[H]c1c([H])c([C@]([H])(N([H])C(=O)c2c([H])c([H])c(N([H])C(=O)N3C([H])([H])C([H])([H])N(c4c([H])c([H])c(C([H])([H])[H])c([H])c4F)C([H])([H])C3([H])[H])c([H])c2[H])C([H])([H])[H])c([H])c(F)c1F


 38 41  0  0  0  0  0  0  0  0999 V2000
  156.6316  134.3546  187.0058 C   0  0  0  0  0  0  0  0  0  0  0  0
  157.4577  133.4429  186.4377 C   0  0  0  0  0  0  0  0  0  0  0  0
  156.9930  132.5752  185.4662 C   0  0  0  0  0  0  0  0  0  0  0  0
  155.7018  132.5503  184.9972 C   0  0  0  0  0  0  0  0  0  0  0  0
  154.8680  133.5153  185.6131 C   0  0  0  0  0  0  0  0  0  0  0  0
  155.3150  134.3719  186.5687 C   0  0  0  0  0  0  0  0  0  0  0  0
  155.1722  131.7165  183.9992 N   0  0  0  0  0  0  0  0  0  0  0  0
  153.8281  131.5922  183.6548 C   0  0  0  0  0  0  0  0  0  0  0  0
  152.9289  132.2737  184.2785 O   0  0  0  0  0  0  0  0  0  0  0  0
  153.3233  130.7520  182.6393 N   0  0  0  0  0  0  0  0  0  0  0  0
  151.9047  130.7084  182.3776 C   0  0  0  0  0  0  0  0  0  0  0  0
  151.6876  131.2180  180.9695 C   0  0  0  0  0  0  0  0  0  0  0  0
  152.5786  130.5709  180.0573 N   0  0  0  0  0  0  0  0  0  0  0  0
  153.9187  130.1832  180.3478 C   0  0  0  0  0  0  0  0  0  0  0  0
  154.1656  129.9250  181.8407 C   0  0  0  0  0  0  0  0  0  0  0  0
  155.8723  131.1375  183.4671 H   0  0  0  0  0  0  0  0  0  0  0  0
  152.0834  130.2878  178.7378 C   0  0  0  0  0  0  0  0  0  0  0  0
  152.9300  130.6045  177.6958 C   0  0  0  0  0  0  0  0  0  0  0  0
  152.5118  130.3580  176.4157 C   0  0  0  0  0  0  0  0  0  0  0  0
  151.2611  129.8029  176.2151 C   0  0  0  0  0  0  0  0  0  0  0  0
  150.8506  129.5530  174.8038 C   0  0  0  0  0  0  0  0  0  0  0  0
  150.4319  129.4945  177.2703 C   0  0  0  0  0  0  0  0  0  0  0  0
  150.8423  129.7392  178.5822 C   0  0  0  0  0  0  0  0  0  0  0  0
  150.0439  129.4433  179.6272 F   0  0  0  0  0  0  0  0  0  0  0  0
  156.2542  136.3952  188.3584 N   0  0  0  0  0  0  0  0  0  0  0  0
  157.0701  135.2867  188.0291 C   0  0  0  0  0  0  0  0  0  0  0  0
  158.1770  135.0707  188.5939 O   0  0  0  0  0  0  0  0  0  0  0  0
  155.3425  136.6091  187.9210 H   0  0  0  0  0  0  0  0  0  0  0  0
  157.9272  136.7603  190.0469 C   0  0  0  0  0  0  0  0  0  0  0  0
  156.6958  137.3306  189.3862 C   0  0  0  0  0  0  0  0  0  0  0  0
  155.5809  137.4662  190.3669 C   0  0  0  0  0  0  0  0  0  0  0  0
  154.7846  136.4142  190.7194 C   0  0  0  0  0  0  0  0  0  0  0  0
  153.7529  136.5828  191.6405 C   0  0  0  0  0  0  0  0  0  0  0  0
  153.5388  137.8208  192.1963 C   0  0  0  0  0  0  0  0  0  0  0  0
  152.5412  137.9965  193.0910 F   0  0  0  0  0  0  0  0  0  0  0  0
  154.3491  138.8814  191.8348 C   0  0  0  0  0  0  0  0  0  0  0  0
  154.1474  140.1113  192.3779 F   0  0  0  0  0  0  0  0  0  0  0  0
  155.3669  138.7048  190.9229 C   0  0  0  0  0  0  0  0  0  0  0  0
 29 30  1  0  0  0
 30 25  1  0  0  0
 25 26  1  0  0  0
 26 27  2  0  0  0
 26  1  1  0  0  0
  1  2  2  0  0  0
  2  3  1  0  0  0
  3  4  2  0  0  0
  4  7  1  0  0  0
  7  8  1  0  0  0
  8  9  2  0  0  0
  8 10  1  0  0  0
 10 11  1  0  0  0
 11 12  1  0  0  0
 12 13  1  0  0  0
 13 14  1  0  0  0
 14 15  1  0  0  0
 13 17  1  0  0  0
 17 18  2  0  0  0
 18 19  1  0  0  0
 19 20  2  0  0  0
 20 21  1  0  0  0
 20 22  1  0  0  0
 22 23  2  0  0  0
 23 24  1  0  0  0
  4  5  1  0  0  0
  5  6  2  0  0  0
 30 31  1  0  0  0
 31 32  2  0  0  0
 32 33  1  0  0  0
 33 34  2  0  0  0
 34 35  1  0  0  0
 34 36  1  0  0  0
 36 37  1  0  0  0
 36 38  2  0  0  0
  6  1  1  0  0  0
 38 31  1  0  0  0
 15 10  1  0  0  0
 23 17  1  0  0  0
 25 28  1  0  0  0
  7 16  1  0  0  0
M  END
> <minimizedAffinity>
-3.09145

> <CNNscore>
0.3692609668

> <CNNaffinity>
5.2034363747

> <CNN_VS>
1.9214259386

> <CNNaffinity_variance>
0.5966181755

$$$$
[H]c1c([H])c([C@]([H])(N([H])C(=O)c2c([H])c([H])c(N([H])C(=O)N3C([H])([H])C([H])([H])N(c4c([H])c([H])c(C([H])([H])[H])c([H])c4F)C([H])([H])C3([H])[H])c([H])c2[H])C([H])([H])[H])c([H])c(F)c1F


 38 41  0  0  0  0  0  0  0  0999 V2000
  155.6105  140.1068  184.0556 C   0  0  0  0  0  0  0  0  0  0  0  0
  154.3161  139.7368  184.2103 C   0  0  0  0  0  0  0  0  0  0  0  0
  153.9509  138.8315  185.1899 C   0  0  0  0  0  0  0  0  0  0  0  0
  154.8257  138.2404  186.0693 C   0  0  0  0  0  0  0  0  0  0  0  0
  156.1678  138.6498  185.8779 C   0  0  0  0  0  0  0  0  0  0  0  0
  156.5367  139.5383  184.9181 C   0  0  0  0  0  0  0  0  0  0  0  0
  154.5198  137.3364  187.0993 N   0  0  0  0  0  0  0  0  0  0  0  0
  154.8754  137.4619  188.4404 C   0  0  0  0  0  0  0  0  0  0  0  0
  155.5592  138.4784  188.8418 O   0  0  0  0  0  0  0  0  0  0  0  0
  154.5462  136.5415  189.4584 N   0  0  0  0  0  0  0  0  0  0  0  0
  154.9758  136.7818  190.8151 C   0  0  0  0  0  0  0  0  0  0  0  0
  153.7326  136.9540  191.6605 C   0  0  0  0  0  0  0  0  0  0  0  0
  152.8019  135.8984  191.4073 N   0  0  0  0  0  0  0  0  0  0  0  0
  152.5783  135.2811  190.1425 C   0  0  0  0  0  0  0  0  0  0  0  0
  153.7925  135.3584  189.2066 C   0  0  0  0  0  0  0  0  0  0  0  0
  153.9654  136.4879  186.8144 H   0  0  0  0  0  0  0  0  0  0  0  0
  152.0266  135.4195  192.5191 C   0  0  0  0  0  0  0  0  0  0  0  0
  152.5733  134.3694  193.2270 C   0  0  0  0  0  0  0  0  0  0  0  0
  151.8792  133.8703  194.2963 C   0  0  0  0  0  0  0  0  0  0  0  0
  150.6606  134.4349  194.6262 C   0  0  0  0  0  0  0  0  0  0  0  0
  149.9429  133.8573  195.7983 C   0  0  0  0  0  0  0  0  0  0  0  0
  150.1333  135.4830  193.9054 C   0  0  0  0  0  0  0  0  0  0  0  0
  150.8276  136.0044  192.8120 C   0  0  0  0  0  0  0  0  0  0  0  0
  150.3267  137.0303  192.0953 F   0  0  0  0  0  0  0  0  0  0  0  0
  157.3357  140.9240  182.4770 N   0  0  0  0  0  0  0  0  0  0  0  0
  156.0450  141.0525  183.0431 C   0  0  0  0  0  0  0  0  0  0  0  0
  155.2450  141.9658  182.7016 O   0  0  0  0  0  0  0  0  0  0  0  0
  158.0213  140.1923  182.7278 H   0  0  0  0  0  0  0  0  0  0  0  0
  158.6040  141.1317  180.4444 C   0  0  0  0  0  0  0  0  0  0  0  0
  157.7708  141.8745  181.4603 C   0  0  0  0  0  0  0  0  0  0  0  0
  158.5810  142.9184  182.1511 C   0  0  0  0  0  0  0  0  0  0  0  0
  158.6176  144.2159  181.7267 C   0  0  0  0  0  0  0  0  0  0  0  0
  159.3876  145.1614  182.4007 C   0  0  0  0  0  0  0  0  0  0  0  0
  160.1150  144.7798  183.5019 C   0  0  0  0  0  0  0  0  0  0  0  0
  160.8654  145.6880  184.1639 F   0  0  0  0  0  0  0  0  0  0  0  0
  160.0731  143.4643  183.9260 C   0  0  0  0  0  0  0  0  0  0  0  0
  160.7883  143.0744  185.0145 F   0  0  0  0  0  0  0  0  0  0  0  0
  159.3086  142.5365  183.2528 C   0  0  0  0  0  0  0  0  0  0  0  0
 29 30  1  0  0  0
 30 25  1  0  0  0
 25 26  1  0  0  0
 26 27  2  0  0  0
 26  1  1  0  0  0
  1  2  2  0  0  0
  2  3  1  0  0  0
  3  4  2  0  0  0
  4  7  1  0  0  0
  7  8  1  0  0  0
  8  9  2  0  0  0
  8 10  1  0  0  0
 10 11  1  0  0  0
 11 12  1  0  0  0
 12 13  1  0  0  0
 13 14  1  0  0  0
 14 15  1  0  0  0
 13 17  1  0  0  0
 17 18  2  0  0  0
 18 19  1  0  0  0
 19 20  2  0  0  0
 20 21  1  0  0  0
 20 22  1  0  0  0
 22 23  2  0  0  0
 23 24  1  0  0  0
  4  5  1  0  0  0
  5  6  2  0  0  0
 30 31  1  0  0  0
 31 32  2  0  0  0
 32 33  1  0  0  0
 33 34  2  0  0  0
 34 35  1  0  0  0
 34 36  1  0  0  0
 36 37  1  0  0  0
 36 38  2  0  0  0
  6  1  1  0  0  0
 38 31  1  0  0  0
 15 10  1  0  0  0
 23 17  1  0  0  0
 25 28  1  0  0  0
  7 16  1  0  0  0
M  END
> <minimizedAffinity>
-10.14292

> <CNNscore>
0.3634588122

> <CNNaffinity>
6.1643762589

> <CNN_VS>
2.2404968739

> <CNNaffinity_variance>
0.0358499587

$$$$
[H]c1c([H])c([C@]([H])(N([H])C(=O)c2c([H])c([H])c(N([H])C(=O)N3C([H])([H])C([H])([H])N(c4c([H])c([H])c(C([H])([H])[H])c([H])c4F)C([H])([H])C3([H])[H])c([H])c2[H])C([H])([H])[H])c([H])c(F)c1F


 38 41  0  0  0  0  0  0  0  0999 V2000
  154.8382  140.6730  182.8572 C   0  0  0  0  0  0  0  0  0  0  0  0
  153.7500  140.0840  182.3045 C   0  0  0  0  0  0  0  0  0  0  0  0
  153.0649  139.0892  182.9780 C   0  0  0  0  0  0  0  0  0  0  0  0
  153.4025  138.6170  184.2233 C   0  0  0  0  0  0  0  0  0  0  0  0
  154.5433  139.2545  184.7691 C   0  0  0  0  0  0  0  0  0  0  0  0
  155.2234  140.2325  184.1152 C   0  0  0  0  0  0  0  0  0  0  0  0
  152.7384  137.6314  184.9712 N   0  0  0  0  0  0  0  0  0  0  0  0
  153.3125  136.7889  185.9205 C   0  0  0  0  0  0  0  0  0  0  0  0
  154.5729  136.8621  186.1810 O   0  0  0  0  0  0  0  0  0  0  0  0
  152.6186  135.8116  186.6659 N   0  0  0  0  0  0  0  0  0  0  0  0
  153.3274  134.9954  187.6220 C   0  0  0  0  0  0  0  0  0  0  0  0
  152.7604  135.3045  188.9905 C   0  0  0  0  0  0  0  0  0  0  0  0
  151.3315  135.2560  188.9657 N   0  0  0  0  0  0  0  0  0  0  0  0
  150.5107  135.6689  187.8765 C   0  0  0  0  0  0  0  0  0  0  0  0
  151.2193  135.5860  186.5173 C   0  0  0  0  0  0  0  0  0  0  0  0
  151.7065  137.5341  184.7865 H   0  0  0  0  0  0  0  0  0  0  0  0
  150.6666  134.7499  190.1354 C   0  0  0  0  0  0  0  0  0  0  0  0
  150.1903  133.4584  190.0461 C   0  0  0  0  0  0  0  0  0  0  0  0
  149.5468  132.9227  191.1293 C   0  0  0  0  0  0  0  0  0  0  0  0
  149.3987  133.6927  192.2684 C   0  0  0  0  0  0  0  0  0  0  0  0
  148.6915  133.0656  193.4213 C   0  0  0  0  0  0  0  0  0  0  0  0
  149.8821  134.9804  192.3357 C   0  0  0  0  0  0  0  0  0  0  0  0
  150.5408  135.5425  191.2405 C   0  0  0  0  0  0  0  0  0  0  0  0
  151.0207  136.8012  191.2888 F   0  0  0  0  0  0  0  0  0  0  0  0
  156.8359  141.4115  181.5924 N   0  0  0  0  0  0  0  0  0  0  0  0
  155.5916  141.7207  182.1917 C   0  0  0  0  0  0  0  0  0  0  0  0
  155.1023  142.8830  182.1724 O   0  0  0  0  0  0  0  0  0  0  0  0
  157.2724  140.4746  181.5855 H   0  0  0  0  0  0  0  0  0  0  0  0
  158.3717  141.8414  179.7926 C   0  0  0  0  0  0  0  0  0  0  0  0
  157.5915  142.4646  180.9244 C   0  0  0  0  0  0  0  0  0  0  0  0
  158.5091  143.0593  181.9382 C   0  0  0  0  0  0  0  0  0  0  0  0
  158.7665  144.3993  181.9953 C   0  0  0  0  0  0  0  0  0  0  0  0
  159.6304  144.9154  182.9588 C   0  0  0  0  0  0  0  0  0  0  0  0
  160.2265  144.0642  183.8575 C   0  0  0  0  0  0  0  0  0  0  0  0
  161.0662  144.5532  184.7967 F   0  0  0  0  0  0  0  0  0  0  0  0
  159.9612  142.7085  183.7938 C   0  0  0  0  0  0  0  0  0  0  0  0
  160.5448  141.8561  184.6775 F   0  0  0  0  0  0  0  0  0  0  0  0
  159.1053  142.2076  182.8372 C   0  0  0  0  0  0  0  0  0  0  0  0
 29 30  1  0  0  0
 30 25  1  0  0  0
 25 26  1  0  0  0
 26 27  2  0  0  0
 26  1  1  0  0  0
  1  2  2  0  0  0
  2  3  1  0  0  0
  3  4  2  0  0  0
  4  7  1  0  0  0
  7  8  1  0  0  0
  8  9  2  0  0  0
  8 10  1  0  0  0
 10 11  1  0  0  0
 11 12  1  0  0  0
 12 13  1  0  0  0
 13 14  1  0  0  0
 14 15  1  0  0  0
 13 17  1  0  0  0
 17 18  2  0  0  0
 18 19  1  0  0  0
 19 20  2  0  0  0
 20 21  1  0  0  0
 20 22  1  0  0  0
 22 23  2  0  0  0
 23 24  1  0  0  0
  4  5  1  0  0  0
  5  6  2  0  0  0
 30 31  1  0  0  0
 31 32  2  0  0  0
 32 33  1  0  0  0
 33 34  2  0  0  0
 34 35  1  0  0  0
 34 36  1  0  0  0
 36 37  1  0  0  0
 36 38  2  0  0  0
  6  1  1  0  0  0
 38 31  1  0  0  0
 15 10  1  0  0  0
 23 17  1  0  0  0
 25 28  1  0  0  0
  7 16  1  0  0  0
M  END
> <minimizedAffinity>
-8.99330

> <CNNscore>
0.2526220977

> <CNNaffinity>
6.0309629440

> <CNN_VS>
1.5235545635

> <CNNaffinity_variance>
0.1361440271

$$$$
[H]c1c([H])c([C@]([H])(N([H])C(=O)c2c([H])c([H])c(N([H])C(=O)N3C([H])([H])C([H])([H])N(c4c([H])c([H])c(C([H])([H])[H])c([H])c4F)C([H])([H])C3([H])[H])c([H])c2[H])C([H])([H])[H])c([H])c(F)c1F


 38 41  0  0  0  0  0  0  0  0999 V2000
  152.9506  136.2296  183.1604 C   0  0  0  0  0  0  0  0  0  0  0  0
  152.3290  135.3947  184.0282 C   0  0  0  0  0  0  0  0  0  0  0  0
  153.0201  134.8289  185.0841 C   0  0  0  0  0  0  0  0  0  0  0  0
  154.3503  135.0466  185.3504 C   0  0  0  0  0  0  0  0  0  0  0  0
  154.9665  135.9227  184.4239 C   0  0  0  0  0  0  0  0  0  0  0  0
  154.2963  136.4833  183.3830 C   0  0  0  0  0  0  0  0  0  0  0  0
  155.1039  134.5263  186.4149 N   0  0  0  0  0  0  0  0  0  0  0  0
  155.0802  134.9674  187.7361 C   0  0  0  0  0  0  0  0  0  0  0  0
  154.3213  135.9502  188.0825 O   0  0  0  0  0  0  0  0  0  0  0  0
  155.8424  134.4192  188.7900 N   0  0  0  0  0  0  0  0  0  0  0  0
  155.7323  134.9668  190.1207 C   0  0  0  0  0  0  0  0  0  0  0  0
  155.1744  133.8798  191.0135 C   0  0  0  0  0  0  0  0  0  0  0  0
  155.8923  132.6574  190.8266 N   0  0  0  0  0  0  0  0  0  0  0  0
  156.4236  132.1935  189.5884 C   0  0  0  0  0  0  0  0  0  0  0  0
  156.7364  133.3257  188.6001 C   0  0  0  0  0  0  0  0  0  0  0  0
  155.7419  133.7239  186.1751 H   0  0  0  0  0  0  0  0  0  0  0  0
  156.0954  131.8265  191.9819 C   0  0  0  0  0  0  0  0  0  0  0  0
  157.3911  131.7508  192.4493 C   0  0  0  0  0  0  0  0  0  0  0  0
  157.6456  130.9732  193.5470 C   0  0  0  0  0  0  0  0  0  0  0  0
  156.5988  130.2952  194.1446 C   0  0  0  0  0  0  0  0  0  0  0  0
  156.9257  129.4619  195.3367 C   0  0  0  0  0  0  0  0  0  0  0  0
  155.3125  130.3851  193.6611 C   0  0  0  0  0  0  0  0  0  0  0  0
  155.0350  131.1733  192.5426 C   0  0  0  0  0  0  0  0  0  0  0  0
  153.7820  131.2732  192.0559 F   0  0  0  0  0  0  0  0  0  0  0  0
  152.4824  138.2207  181.7631 N   0  0  0  0  0  0  0  0  0  0  0  0
  152.2704  136.8484  182.0367 C   0  0  0  0  0  0  0  0  0  0  0  0
  151.5053  136.1300  181.3371 O   0  0  0  0  0  0  0  0  0  0  0  0
  153.0992  138.8443  182.3099 H   0  0  0  0  0  0  0  0  0  0  0  0
  152.2085  140.2922  180.5728 C   0  0  0  0  0  0  0  0  0  0  0  0
  151.7986  138.8409  180.6343 C   0  0  0  0  0  0  0  0  0  0  0  0
  150.3339  138.7123  180.8818 C   0  0  0  0  0  0  0  0  0  0  0  0
  149.5026  138.0486  180.0254 C   0  0  0  0  0  0  0  0  0  0  0  0
  148.1389  137.9507  180.2935 C   0  0  0  0  0  0  0  0  0  0  0  0
  147.6306  138.5292  181.4312 C   0  0  0  0  0  0  0  0  0  0  0  0
  146.3096  138.4409  181.7020 F   0  0  0  0  0  0  0  0  0  0  0  0
  148.4783  139.1997  182.2939 C   0  0  0  0  0  0  0  0  0  0  0  0
  147.9874  139.7762  183.4231 F   0  0  0  0  0  0  0  0  0  0  0  0
  149.8256  139.2910  182.0202 C   0  0  0  0  0  0  0  0  0  0  0  0
 29 30  1  0  0  0
 30 25  1  0  0  0
 25 26  1  0  0  0
 26 27  2  0  0  0
 26  1  1  0  0  0
  1  2  2  0  0  0
  2  3  1  0  0  0
  3  4  2  0  0  0
  4  7  1  0  0  0
  7  8  1  0  0  0
  8  9  2  0  0  0
  8 10  1  0  0  0
 10 11  1  0  0  0
 11 12  1  0  0  0
 12 13  1  0  0  0
 13 14  1  0  0  0
 14 15  1  0  0  0
 13 17  1  0  0  0
 17 18  2  0  0  0
 18 19  1  0  0  0
 19 20  2  0  0  0
 20 21  1  0  0  0
 20 22  1  0  0  0
 22 23  2  0  0  0
 23 24  1  0  0  0
  4  5  1  0  0  0
  5  6  2  0  0  0
 30 31  1  0  0  0
 31 32  2  0  0  0
 32 33  1  0  0  0
 33 34  2  0  0  0
 34 35  1  0  0  0
 34 36  1  0  0  0
 36 37  1  0  0  0
 36 38  2  0  0  0
  6  1  1  0  0  0
 38 31  1  0  0  0
 15 10  1  0  0  0
 23 17  1  0  0  0
 25 28  1  0  0  0
  7 16  1  0  0  0
M  END
> <minimizedAffinity>
-4.45888

> <CNNscore>
0.2408947498

> <CNNaffinity>
5.4861645699

> <CNN_VS>
1.3215882778

> <CNNaffinity_variance>
1.0403125286

$$$$
[H]c1c([H])c([C@]([H])(N([H])C(=O)c2c([H])c([H])c(N([H])C(=O)N3C([H])([H])C([H])([H])N(c4c([H])c([H])c(C([H])([H])[H])c([H])c4F)C([H])([H])C3([H])[H])c([H])c2[H])C([H])([H])[H])c([H])c(F)c1F


 38 41  0  0  0  0  0  0  0  0999 V2000
  155.2038  140.2111  183.3126 C   0  0  0  0  0  0  0  0  0  0  0  0
  154.0192  139.5744  183.1461 C   0  0  0  0  0  0  0  0  0  0  0  0
  153.5717  138.6564  184.0787 C   0  0  0  0  0  0  0  0  0  0  0  0
  154.2529  138.3114  185.2209 C   0  0  0  0  0  0  0  0  0  0  0  0
  155.4851  138.9953  185.3614 C   0  0  0  0  0  0  0  0  0  0  0  0
  155.9336  139.8986  184.4505 C   0  0  0  0  0  0  0  0  0  0  0  0
  153.8461  137.4100  186.2178 N   0  0  0  0  0  0  0  0  0  0  0  0
  154.6082  136.9780  187.3009 C   0  0  0  0  0  0  0  0  0  0  0  0
  155.8157  137.4009  187.4593 O   0  0  0  0  0  0  0  0  0  0  0  0
  154.1705  136.0770  188.2952 N   0  0  0  0  0  0  0  0  0  0  0  0
  155.0572  135.7025  189.3705 C   0  0  0  0  0  0  0  0  0  0  0  0
  154.4379  136.1938  190.6608 C   0  0  0  0  0  0  0  0  0  0  0  0
  153.0618  135.8124  190.7355 N   0  0  0  0  0  0  0  0  0  0  0  0
  152.1621  135.7487  189.6323 C   0  0  0  0  0  0  0  0  0  0  0  0
  152.8649  135.5055  188.2895 C   0  0  0  0  0  0  0  0  0  0  0  0
  152.8666  137.0355  186.1245 H   0  0  0  0  0  0  0  0  0  0  0  0
  152.5413  135.4647  192.0296 C   0  0  0  0  0  0  0  0  0  0  0  0
  151.6912  136.3865  192.6046 C   0  0  0  0  0  0  0  0  0  0  0  0
  151.1648  136.1101  193.8378 C   0  0  0  0  0  0  0  0  0  0  0  0
  151.5031  134.9219  194.4592 C   0  0  0  0  0  0  0  0  0  0  0  0
  150.9047  134.6659  195.8005 C   0  0  0  0  0  0  0  0  0  0  0  0
  152.3540  134.0156  193.8668 C   0  0  0  0  0  0  0  0  0  0  0  0
  152.8999  134.2813  192.6095 C   0  0  0  0  0  0  0  0  0  0  0  0
  153.7343  133.4055  192.0146 F   0  0  0  0  0  0  0  0  0  0  0  0
  157.0656  141.0973  181.9398 N   0  0  0  0  0  0  0  0  0  0  0  0
  155.7179  141.1821  182.3633 C   0  0  0  0  0  0  0  0  0  0  0  0
  154.9332  142.0772  181.9461 O   0  0  0  0  0  0  0  0  0  0  0  0
  157.7410  140.3817  182.2563 H   0  0  0  0  0  0  0  0  0  0  0  0
  158.4352  141.3439  179.9786 C   0  0  0  0  0  0  0  0  0  0  0  0
  157.5805  142.0731  180.9865 C   0  0  0  0  0  0  0  0  0  0  0  0
  158.3920  143.0574  181.7584 C   0  0  0  0  0  0  0  0  0  0  0  0
  158.5638  144.3478  181.3457 C   0  0  0  0  0  0  0  0  0  0  0  0
  159.3299  145.2369  182.0966 C   0  0  0  0  0  0  0  0  0  0  0  0
  159.9161  144.8064  183.2621 C   0  0  0  0  0  0  0  0  0  0  0  0
  160.6613  145.6596  183.9989 F   0  0  0  0  0  0  0  0  0  0  0  0
  159.7378  143.4984  183.6740 C   0  0  0  0  0  0  0  0  0  0  0  0
  160.3125  143.0605  184.8256 F   0  0  0  0  0  0  0  0  0  0  0  0
  158.9783  142.6266  182.9245 C   0  0  0  0  0  0  0  0  0  0  0  0
 29 30  1  0  0  0
 30 25  1  0  0  0
 25 26  1  0  0  0
 26 27  2  0  0  0
 26  1  1  0  0  0
  1  2  2  0  0  0
  2  3  1  0  0  0
  3  4  2  0  0  0
  4  7  1  0  0  0
  7  8  1  0  0  0
  8  9  2  0  0  0
  8 10  1  0  0  0
 10 11  1  0  0  0
 11 12  1  0  0  0
 12 13  1  0  0  0
 13 14  1  0  0  0
 14 15  1  0  0  0
 13 17  1  0  0  0
 17 18  2  0  0  0
 18 19  1  0  0  0
 19 20  2  0  0  0
 20 21  1  0  0  0
 20 22  1  0  0  0
 22 23  2  0  0  0
 23 24  1  0  0  0
  4  5  1  0  0  0
  5  6  2  0  0  0
 30 31  1  0  0  0
 31 32  2  0  0  0
 32 33  1  0  0  0
 33 34  2  0  0  0
 34 35  1  0  0  0
 34 36  1  0  0  0
 36 37  1  0  0  0
 36 38  2  0  0  0
  6  1  1  0  0  0
 38 31  1  0  0  0
 15 10  1  0  0  0
 23 17  1  0  0  0
 25 28  1  0  0  0
  7 16  1  0  0  0
M  END
> <minimizedAffinity>
-9.57028

> <CNNscore>
0.2352928519

> <CNNaffinity>
6.0421881676

> <CNN_VS>
1.4216836691

> <CNNaffinity_variance>
0.0681802183

$$$$
[H]c1c([H])c([C@]([H])(N([H])C(=O)c2c([H])c([H])c(N([H])C(=O)N3C([H])([H])C([H])([H])N(c4c([H])c([H])c(C([H])([H])[H])c([H])c4F)C([H])([H])C3([H])[H])c([H])c2[H])C([H])([H])[H])c([H])c(F)c1F


 38 41  0  0  0  0  0  0  0  0999 V2000
  154.8534  138.4464  185.1195 C   0  0  0  0  0  0  0  0  0  0  0  0
  155.9410  138.5366  185.9229 C   0  0  0  0  0  0  0  0  0  0  0  0
  156.0240  137.7955  187.0877 C   0  0  0  0  0  0  0  0  0  0  0  0
  155.0542  136.9286  187.5301 C   0  0  0  0  0  0  0  0  0  0  0  0
  153.9337  136.8604  186.6666 C   0  0  0  0  0  0  0  0  0  0  0  0
  153.8425  137.5847  185.5204 C   0  0  0  0  0  0  0  0  0  0  0  0
  155.0855  136.1302  188.6847 N   0  0  0  0  0  0  0  0  0  0  0  0
  154.4549  136.4054  189.8961 C   0  0  0  0  0  0  0  0  0  0  0  0
  153.7661  137.4852  190.0426 O   0  0  0  0  0  0  0  0  0  0  0  0
  154.4952  135.5793  191.0397 N   0  0  0  0  0  0  0  0  0  0  0  0
  153.8006  135.9758  192.2410 C   0  0  0  0  0  0  0  0  0  0  0  0
  152.7262  134.9436  192.5051 C   0  0  0  0  0  0  0  0  0  0  0  0
  153.2670  133.6224  192.4239 N   0  0  0  0  0  0  0  0  0  0  0  0
  154.2844  133.2014  191.5194 C   0  0  0  0  0  0  0  0  0  0  0  0
  155.2048  134.3437  191.0672 C   0  0  0  0  0  0  0  0  0  0  0  0
  155.6418  135.2393  188.6106 H   0  0  0  0  0  0  0  0  0  0  0  0
  152.7417  132.6361  193.3282 C   0  0  0  0  0  0  0  0  0  0  0  0
  152.8154  131.3267  192.9005 C   0  0  0  0  0  0  0  0  0  0  0  0
  152.3296  130.3431  193.7197 C   0  0  0  0  0  0  0  0  0  0  0  0
  151.7852  130.6969  194.9407 C   0  0  0  0  0  0  0  0  0  0  0  0
  151.2698  129.5910  195.7973 C   0  0  0  0  0  0  0  0  0  0  0  0
  151.7216  132.0109  195.3478 C   0  0  0  0  0  0  0  0  0  0  0  0
  152.2122  133.0267  194.5251 C   0  0  0  0  0  0  0  0  0  0  0  0
  152.1585  134.3181  194.9075 F   0  0  0  0  0  0  0  0  0  0  0  0
  153.4888  139.1785  183.1861 N   0  0  0  0  0  0  0  0  0  0  0  0
  154.7177  139.2028  183.8876 C   0  0  0  0  0  0  0  0  0  0  0  0
  155.7141  139.8620  183.4830 O   0  0  0  0  0  0  0  0  0  0  0  0
  152.6496  138.6526  183.4816 H   0  0  0  0  0  0  0  0  0  0  0  0
  153.4657  141.4066  182.2815 C   0  0  0  0  0  0  0  0  0  0  0  0
  153.3540  139.9386  181.9491 C   0  0  0  0  0  0  0  0  0  0  0  0
  152.0117  139.6226  181.3819 C   0  0  0  0  0  0  0  0  0  0  0  0
  151.0109  139.0747  182.1322 C   0  0  0  0  0  0  0  0  0  0  0  0
  149.7699  138.7947  181.5640 C   0  0  0  0  0  0  0  0  0  0  0  0
  149.5563  139.0742  180.2359 C   0  0  0  0  0  0  0  0  0  0  0  0
  148.3568  138.8072  179.6736 F   0  0  0  0  0  0  0  0  0  0  0  0
  150.5743  139.6292  179.4822 C   0  0  0  0  0  0  0  0  0  0  0  0
  150.3752  139.9105  178.1671 F   0  0  0  0  0  0  0  0  0  0  0  0
  151.7982  139.9024  180.0533 C   0  0  0  0  0  0  0  0  0  0  0  0
 29 30  1  0  0  0
 30 25  1  0  0  0
 25 26  1  0  0  0
 26 27  2  0  0  0
 26  1  1  0  0  0
  1  2  2  0  0  0
  2  3  1  0  0  0
  3  4  2  0  0  0
  4  7  1  0  0  0
  7  8  1  0  0  0
  8  9  2  0  0  0
  8 10  1  0  0  0
 10 11  1  0  0  0
 11 12  1  0  0  0
 12 13  1  0  0  0
 13 14  1  0  0  0
 14 15  1  0  0  0
 13 17  1  0  0  0
 17 18  2  0  0  0
 18 19  1  0  0  0
 19 20  2  0  0  0
 20 21  1  0  0  0
 20 22  1  0  0  0
 22 23  2  0  0  0
 23 24  1  0  0  0
  4  5  1  0  0  0
  5  6  2  0  0  0
 30 31  1  0  0  0
 31 32  2  0  0  0
 32 33  1  0  0  0
 33 34  2  0  0  0
 34 35  1  0  0  0
 34 36  1  0  0  0
 36 37  1  0  0  0
 36 38  2  0  0  0
  6  1  1  0  0  0
 38 31  1  0  0  0
 15 10  1  0  0  0
 23 17  1  0  0  0
 25 28  1  0  0  0
  7 16  1  0  0  0
M  END
> <minimizedAffinity>
-7.63852

> <CNNscore>
0.2342355996

> <CNNaffinity>
5.3749952316

> <CNN_VS>
1.2590152025

> <CNNaffinity_variance>
0.1073085517

$$$$
[H]c1c([H])c([C@]([H])(N([H])C(=O)c2c([H])c([H])c(N([H])C(=O)N3C([H])([H])C([H])([H])N(c4c([H])c([H])c(C([H])([H])[H])c([H])c4F)C([H])([H])C3([H])[H])c([H])c2[H])C([H])([H])[H])c([H])c(F)c1F


 38 41  0  0  0  0  0  0  0  0999 V2000
  155.4988  139.4863  184.7151 C   0  0  0  0  0  0  0  0  0  0  0  0
  154.2000  139.2804  184.3879 C   0  0  0  0  0  0  0  0  0  0  0  0
  153.4010  138.4486  185.1512 C   0  0  0  0  0  0  0  0  0  0  0  0
  153.8241  137.7754  186.2717 C   0  0  0  0  0  0  0  0  0  0  0  0
  155.1850  138.0139  186.5827 C   0  0  0  0  0  0  0  0  0  0  0  0
  155.9783  138.8289  185.8389 C   0  0  0  0  0  0  0  0  0  0  0  0
  153.0622  136.9390  187.1033 N   0  0  0  0  0  0  0  0  0  0  0  0
  153.4362  135.6834  187.5770 C   0  0  0  0  0  0  0  0  0  0  0  0
  154.5761  135.1764  187.2522 O   0  0  0  0  0  0  0  0  0  0  0  0
  152.6535  134.8665  188.4208 N   0  0  0  0  0  0  0  0  0  0  0  0
  153.1512  133.5795  188.8435 C   0  0  0  0  0  0  0  0  0  0  0  0
  153.3058  133.6251  190.3481 C   0  0  0  0  0  0  0  0  0  0  0  0
  152.1216  134.1427  190.9600 N   0  0  0  0  0  0  0  0  0  0  0  0
  151.2927  135.1671  190.4176 C   0  0  0  0  0  0  0  0  0  0  0  0
  151.3653  135.2594  188.8871 C   0  0  0  0  0  0  0  0  0  0  0  0
  152.1205  137.3127  187.3896 H   0  0  0  0  0  0  0  0  0  0  0  0
  151.7342  133.5854  192.2272 C   0  0  0  0  0  0  0  0  0  0  0  0
  151.1048  132.3588  192.1787 C   0  0  0  0  0  0  0  0  0  0  0  0
  150.7117  131.7788  193.3549 C   0  0  0  0  0  0  0  0  0  0  0  0
  150.9592  132.4411  194.5435 C   0  0  0  0  0  0  0  0  0  0  0  0
  150.5128  131.7695  195.7974 C   0  0  0  0  0  0  0  0  0  0  0  0
  151.5892  133.6653  194.5687 C   0  0  0  0  0  0  0  0  0  0  0  0
  151.9967  134.2713  193.3787 C   0  0  0  0  0  0  0  0  0  0  0  0
  152.6149  135.4691  193.3846 F   0  0  0  0  0  0  0  0  0  0  0  0
  157.7450  140.4457  184.3026 N   0  0  0  0  0  0  0  0  0  0  0  0
  156.3786  140.3489  183.9469 C   0  0  0  0  0  0  0  0  0  0  0  0
  155.8853  140.9886  182.9783 O   0  0  0  0  0  0  0  0  0  0  0  0
  158.1891  139.9403  185.0873 H   0  0  0  0  0  0  0  0  0  0  0  0
  159.2029  140.5067  182.3911 C   0  0  0  0  0  0  0  0  0  0  0  0
  158.6274  141.3124  183.5303 C   0  0  0  0  0  0  0  0  0  0  0  0
  159.7050  141.7765  184.4505 C   0  0  0  0  0  0  0  0  0  0  0  0
  159.4391  142.2990  185.6839 C   0  0  0  0  0  0  0  0  0  0  0  0
  160.4753  142.7211  186.5141 C   0  0  0  0  0  0  0  0  0  0  0  0
  161.7749  142.6086  186.0833 C   0  0  0  0  0  0  0  0  0  0  0  0
  162.7885  143.0145  186.8797 F   0  0  0  0  0  0  0  0  0  0  0  0
  162.0368  142.0784  184.8331 C   0  0  0  0  0  0  0  0  0  0  0  0
  163.3186  141.9618  184.3955 F   0  0  0  0  0  0  0  0  0  0  0  0
  161.0051  141.6638  184.0193 C   0  0  0  0  0  0  0  0  0  0  0  0
 29 30  1  0  0  0
 30 25  1  0  0  0
 25 26  1  0  0  0
 26 27  2  0  0  0
 26  1  1  0  0  0
  1  2  2  0  0  0
  2  3  1  0  0  0
  3  4  2  0  0  0
  4  7  1  0  0  0
  7  8  1  0  0  0
  8  9  2  0  0  0
  8 10  1  0  0  0
 10 11  1  0  0  0
 11 12  1  0  0  0
 12 13  1  0  0  0
 13 14  1  0  0  0
 14 15  1  0  0  0
 13 17  1  0  0  0
 17 18  2  0  0  0
 18 19  1  0  0  0
 19 20  2  0  0  0
 20 21  1  0  0  0
 20 22  1  0  0  0
 22 23  2  0  0  0
 23 24  1  0  0  0
  4  5  1  0  0  0
  5  6  2  0  0  0
 30 31  1  0  0  0
 31 32  2  0  0  0
 32 33  1  0  0  0
 33 34  2  0  0  0
 34 35  1  0  0  0
 34 36  1  0  0  0
 36 37  1  0  0  0
 36 38  2  0  0  0
  6  1  1  0  0  0
 38 31  1  0  0  0
 15 10  1  0  0  0
 23 17  1  0  0  0
 25 28  1  0  0  0
  7 16  1  0  0  0
M  END
> <minimizedAffinity>
-8.85128

> <CNNscore>
0.2244886160

> <CNNaffinity>
5.9996118546

> <CNN_VS>
1.3468445539

> <CNNaffinity_variance>
0.1853560656

$$$$
[H]c1c([H])c([C@]([H])(N([H])C(=O)c2c([H])c([H])c(N([H])C(=O)N3C([H])([H])C([H])([H])N(c4c([H])c([H])c(C([H])([H])[H])c([H])c4F)C([H])([H])C3([H])[H])c([H])c2[H])C([H])([H])[H])c([H])c(F)c1F


 38 41  0  0  0  0  0  0  0  0999 V2000
  157.7540  141.1141  184.9574 C   0  0  0  0  0  0  0  0  0  0  0  0
  156.6688  141.4772  184.2314 C   0  0  0  0  0  0  0  0  0  0  0  0
  155.7296  140.5386  183.8447 C   0  0  0  0  0  0  0  0  0  0  0  0
  155.7973  139.1995  184.1447 C   0  0  0  0  0  0  0  0  0  0  0  0
  156.9434  138.8570  184.9030 C   0  0  0  0  0  0  0  0  0  0  0  0
  157.8720  139.7717  185.2874 C   0  0  0  0  0  0  0  0  0  0  0  0
  154.8696  138.2011  183.8066 N   0  0  0  0  0  0  0  0  0  0  0  0
  153.5683  138.0855  184.2901 C   0  0  0  0  0  0  0  0  0  0  0  0
  153.1096  138.9395  185.1399 O   0  0  0  0  0  0  0  0  0  0  0  0
  152.6522  137.0756  183.9256 N   0  0  0  0  0  0  0  0  0  0  0  0
  151.3280  137.0611  184.4994 C   0  0  0  0  0  0  0  0  0  0  0  0
  150.3421  137.2629  183.3694 C   0  0  0  0  0  0  0  0  0  0  0  0
  150.6340  136.3798  182.2833 N   0  0  0  0  0  0  0  0  0  0  0  0
  151.9390  135.9852  181.8685 C   0  0  0  0  0  0  0  0  0  0  0  0
  152.9782  136.0450  182.9967 C   0  0  0  0  0  0  0  0  0  0  0  0
  155.2048  137.4789  183.1177 H   0  0  0  0  0  0  0  0  0  0  0  0
  149.5205  135.8455  181.5477 C   0  0  0  0  0  0  0  0  0  0  0  0
  148.9861  136.6706  180.5800 C   0  0  0  0  0  0  0  0  0  0  0  0
  147.9226  136.2157  179.8476 C   0  0  0  0  0  0  0  0  0  0  0  0
  147.4254  134.9509  180.1035 C   0  0  0  0  0  0  0  0  0  0  0  0
  146.2672  134.5002  179.2801 C   0  0  0  0  0  0  0  0  0  0  0  0
  147.9745  134.1437  181.0748 C   0  0  0  0  0  0  0  0  0  0  0  0
  149.0592  134.5916  181.8311 C   0  0  0  0  0  0  0  0  0  0  0  0
  149.6094  133.8149  182.7855 F   0  0  0  0  0  0  0  0  0  0  0  0
  159.4006  141.8827  186.6408 N   0  0  0  0  0  0  0  0  0  0  0  0
  158.7680  142.0602  185.3873 C   0  0  0  0  0  0  0  0  0  0  0  0
  159.0508  143.0181  184.6171 O   0  0  0  0  0  0  0  0  0  0  0  0
  159.1990  141.1136  187.3013 H   0  0  0  0  0  0  0  0  0  0  0  0
  159.7431  144.1530  187.3559 C   0  0  0  0  0  0  0  0  0  0  0  0
  160.4186  142.8337  187.0714 C   0  0  0  0  0  0  0  0  0  0  0  0
  161.3971  142.9676  185.9543 C   0  0  0  0  0  0  0  0  0  0  0  0
  161.1455  143.7284  184.8485 C   0  0  0  0  0  0  0  0  0  0  0  0
  162.0870  143.8277  183.8262 C   0  0  0  0  0  0  0  0  0  0  0  0
  163.2780  143.1517  183.9365 C   0  0  0  0  0  0  0  0  0  0  0  0
  164.1990  143.2404  182.9515 F   0  0  0  0  0  0  0  0  0  0  0  0
  163.5260  142.3832  185.0591 C   0  0  0  0  0  0  0  0  0  0  0  0
  164.7008  141.7098  185.1799 F   0  0  0  0  0  0  0  0  0  0  0  0
  162.5886  142.2913  186.0648 C   0  0  0  0  0  0  0  0  0  0  0  0
 29 30  1  0  0  0
 30 25  1  0  0  0
 25 26  1  0  0  0
 26 27  2  0  0  0
 26  1  1  0  0  0
  1  2  2  0  0  0
  2  3  1  0  0  0
  3  4  2  0  0  0
  4  7  1  0  0  0
  7  8  1  0  0  0
  8  9  2  0  0  0
  8 10  1  0  0  0
 10 11  1  0  0  0
 11 12  1  0  0  0
 12 13  1  0  0  0
 13 14  1  0  0  0
 14 15  1  0  0  0
 13 17  1  0  0  0
 17 18  2  0  0  0
 18 19  1  0  0  0
 19 20  2  0  0  0
 20 21  1  0  0  0
 20 22  1  0  0  0
 22 23  2  0  0  0
 23 24  1  0  0  0
  4  5  1  0  0  0
  5  6  2  0  0  0
 30 31  1  0  0  0
 31 32  2  0  0  0
 32 33  1  0  0  0
 33 34  2  0  0  0
 34 35  1  0  0  0
 34 36  1  0  0  0
 36 37  1  0  0  0
 36 38  2  0  0  0
  6  1  1  0  0  0
 38 31  1  0  0  0
 15 10  1  0  0  0
 23 17  1  0  0  0
 25 28  1  0  0  0
  7 16  1  0  0  0
M  END
> <minimizedAffinity>
3.23324

> <CNNscore>
0.2188394666

> <CNNaffinity>
6.0036916733

> <CNN_VS>
1.3138446808

> <CNNaffinity_variance>
1.5327297449

$$$$
[H]c1c([H])c([C@]([H])(N([H])C(=O)c2c([H])c([H])c(N([H])C(=O)N3C([H])([H])C([H])([H])N(c4c([H])c([H])c(C([H])([H])[H])c([H])c4F)C([H])([H])C3([H])[H])c([H])c2[H])C([H])([H])[H])c([H])c(F)c1F


 38 41  0  0  0  0  0  0  0  0999 V2000
  155.6974  138.9401  185.3484 C   0  0  0  0  0  0  0  0  0  0  0  0
  154.4500  138.4911  185.0671 C   0  0  0  0  0  0  0  0  0  0  0  0
  153.8369  137.5515  185.8758 C   0  0  0  0  0  0  0  0  0  0  0  0
  154.4050  137.0013  186.9994 C   0  0  0  0  0  0  0  0  0  0  0  0
  155.7069  137.4931  187.2617 C   0  0  0  0  0  0  0  0  0  0  0  0
  156.3180  138.4158  186.4731 C   0  0  0  0  0  0  0  0  0  0  0  0
  153.8309  136.0660  187.8753 N   0  0  0  0  0  0  0  0  0  0  0  0
  153.2283  136.3437  189.1003 C   0  0  0  0  0  0  0  0  0  0  0  0
  153.1649  137.5551  189.5365 O   0  0  0  0  0  0  0  0  0  0  0  0
  152.6497  135.3837  189.9579 N   0  0  0  0  0  0  0  0  0  0  0  0
  152.0560  135.7965  191.2068 C   0  0  0  0  0  0  0  0  0  0  0  0
  150.5807  135.4667  191.1383 C   0  0  0  0  0  0  0  0  0  0  0  0
  150.3859  134.1224  190.6917 N   0  0  0  0  0  0  0  0  0  0  0  0
  151.1897  133.4487  189.7270 C   0  0  0  0  0  0  0  0  0  0  0  0
  152.6223  133.9938  189.6437 C   0  0  0  0  0  0  0  0  0  0  0  0
  153.8650  135.0621  187.5598 H   0  0  0  0  0  0  0  0  0  0  0  0
  149.2889  133.3887  191.2615 C   0  0  0  0  0  0  0  0  0  0  0  0
  149.5869  132.6231  192.3696 C   0  0  0  0  0  0  0  0  0  0  0  0
  148.5818  131.9012  192.9550 C   0  0  0  0  0  0  0  0  0  0  0  0
  147.3097  131.9657  192.4162 C   0  0  0  0  0  0  0  0  0  0  0  0
  146.2490  131.1624  193.0885 C   0  0  0  0  0  0  0  0  0  0  0  0
  147.0343  132.7367  191.3089 C   0  0  0  0  0  0  0  0  0  0  0  0
  148.0474  133.4793  190.6994 C   0  0  0  0  0  0  0  0  0  0  0  0
  147.7959  134.2397  189.6151 F   0  0  0  0  0  0  0  0  0  0  0  0
  157.7650  140.1587  184.7352 N   0  0  0  0  0  0  0  0  0  0  0  0
  156.3842  139.9245  184.5315 C   0  0  0  0  0  0  0  0  0  0  0  0
  155.7153  140.5428  183.6590 O   0  0  0  0  0  0  0  0  0  0  0  0
  158.3494  139.6755  185.4377 H   0  0  0  0  0  0  0  0  0  0  0  0
  158.9797  140.4546  182.6810 C   0  0  0  0  0  0  0  0  0  0  0  0
  158.4535  141.1476  183.9142 C   0  0  0  0  0  0  0  0  0  0  0  0
  159.5719  141.6980  184.7325 C   0  0  0  0  0  0  0  0  0  0  0  0
  159.3827  142.1935  185.9910 C   0  0  0  0  0  0  0  0  0  0  0  0
  160.4550  142.6987  186.7232 C   0  0  0  0  0  0  0  0  0  0  0  0
  161.7123  142.6963  186.1695 C   0  0  0  0  0  0  0  0  0  0  0  0
  162.7602  143.1836  186.8701 F   0  0  0  0  0  0  0  0  0  0  0  0
  161.8964  142.1929  184.8947 C   0  0  0  0  0  0  0  0  0  0  0  0
  163.1358  142.1849  184.3360 F   0  0  0  0  0  0  0  0  0  0  0  0
  160.8297  141.6954  184.1785 C   0  0  0  0  0  0  0  0  0  0  0  0
 29 30  1  0  0  0
 30 25  1  0  0  0
 25 26  1  0  0  0
 26 27  2  0  0  0
 26  1  1  0  0  0
  1  2  2  0  0  0
  2  3  1  0  0  0
  3  4  2  0  0  0
  4  7  1  0  0  0
  7  8  1  0  0  0
  8  9  2  0  0  0
  8 10  1  0  0  0
 10 11  1  0  0  0
 11 12  1  0  0  0
 12 13  1  0  0  0
 13 14  1  0  0  0
 14 15  1  0  0  0
 13 17  1  0  0  0
 17 18  2  0  0  0
 18 19  1  0  0  0
 19 20  2  0  0  0
 20 21  1  0  0  0
 20 22  1  0  0  0
 22 23  2  0  0  0
 23 24  1  0  0  0
  4  5  1  0  0  0
  5  6  2  0  0  0
 30 31  1  0  0  0
 31 32  2  0  0  0
 32 33  1  0  0  0
 33 34  2  0  0  0
 34 35  1  0  0  0
 34 36  1  0  0  0
 36 37  1  0  0  0
 36 38  2  0  0  0
  6  1  1  0  0  0
 38 31  1  0  0  0
 15 10  1  0  0  0
 23 17  1  0  0  0
 25 28  1  0  0  0
  7 16  1  0  0  0
M  END
> <minimizedAffinity>
-8.92822

> <CNNscore>
0.2144392878

> <CNNaffinity>
5.8457989693

> <CNN_VS>
1.2535690069

> <CNNaffinity_variance>
0.3164564073

$$$$
[H]c1nc(N2C([H])([H])C([H])([H])N(c3nc4c([H])c([H])c(C(F)(F)F)c([H])c4s3)[C@]([H])(C([H])([H])[H])C2([H])[H])nc(-c2c([H])c([H])c(F)c([H])c2[H])c1F


 34 38  0  0  0  0  0  0  0  0999 V2000
  153.0869  134.3314  185.7989 C   0  0  0  0  0  0  0  0  0  0  0  0
  154.1131  135.4448  185.5952 C   0  0  0  0  0  0  0  0  0  0  0  0
  155.2077  135.2147  186.6330 C   0  0  0  0  0  0  0  0  0  0  0  0
  155.4097  136.3328  187.4557 N   0  0  0  0  0  0  0  0  0  0  0  0
  155.3998  137.6797  186.8022 C   0  0  0  0  0  0  0  0  0  0  0  0
  153.8816  137.8312  186.5505 C   0  0  0  0  0  0  0  0  0  0  0  0
  153.5430  136.7446  185.6103 N   0  0  0  0  0  0  0  0  0  0  0  0
  152.5858  137.1082  184.6201 C   0  0  0  0  0  0  0  0  0  0  0  0
  152.7504  137.7866  183.4966 N   0  0  0  0  0  0  0  0  0  0  0  0
  151.7285  138.0299  182.7264 C   0  0  0  0  0  0  0  0  0  0  0  0
  151.7686  138.7823  181.5262 C   0  0  0  0  0  0  0  0  0  0  0  0
  150.6293  138.9886  180.8408 C   0  0  0  0  0  0  0  0  0  0  0  0
  149.3943  138.5226  181.2086 C   0  0  0  0  0  0  0  0  0  0  0  0
  149.3253  137.7911  182.3716 C   0  0  0  0  0  0  0  0  0  0  0  0
  150.5052  137.5663  183.1015 C   0  0  0  0  0  0  0  0  0  0  0  0
  150.9137  136.7872  184.6062 S   0  0  0  0  0  0  0  0  0  0  0  0
  148.1351  138.8575  180.4676 C   0  0  0  0  0  0  0  0  0  0  0  0
  147.1920  137.8551  180.7961 F   0  0  0  0  0  0  0  0  0  0  0  0
  147.5925  140.0291  180.8931 F   0  0  0  0  0  0  0  0  0  0  0  0
  148.3206  138.8566  179.1230 F   0  0  0  0  0  0  0  0  0  0  0  0
  155.5224  136.4229  188.8601 C   0  0  0  0  0  0  0  0  0  0  0  0
  156.7773  136.5783  189.3863 N   0  0  0  0  0  0  0  0  0  0  0  0
  156.9057  136.5645  190.6780 C   0  0  0  0  0  0  0  0  0  0  0  0
  155.8022  136.4054  191.5272 C   0  0  0  0  0  0  0  0  0  0  0  0
  156.0658  136.3637  192.8632 F   0  0  0  0  0  0  0  0  0  0  0  0
  154.5521  136.2579  191.0272 C   0  0  0  0  0  0  0  0  0  0  0  0
  154.4682  136.2721  189.6610 N   0  0  0  0  0  0  0  0  0  0  0  0
  153.3261  136.1684  191.8357 C   0  0  0  0  0  0  0  0  0  0  0  0
  152.1981  136.8765  191.4498 C   0  0  0  0  0  0  0  0  0  0  0  0
  151.0193  136.8024  192.1942 C   0  0  0  0  0  0  0  0  0  0  0  0
  151.0606  135.9972  193.2840 C   0  0  0  0  0  0  0  0  0  0  0  0
  149.8802  135.9292  194.0154 F   0  0  0  0  0  0  0  0  0  0  0  0
  152.1405  135.2760  193.7083 C   0  0  0  0  0  0  0  0  0  0  0  0
  153.3101  135.3705  192.9587 C   0  0  0  0  0  0  0  0  0  0  0  0
  1  2  1  0  0  0
  2  3  1  0  0  0
  3  4  1  0  0  0
  4  5  1  0  0  0
  5  6  1  0  0  0
  6  7  1  0  0  0
  7  8  1  0  0  0
  8  9  2  0  0  0
  9 10  1  0  0  0
 10 11  2  0  0  0
 11 12  1  0  0  0
 12 13  2  0  0  0
 13 14  1  0  0  0
 14 15  2  0  0  0
 15 16  1  0  0  0
 13 17  1  0  0  0
 17 18  1  0  0  0
 17 19  1  0  0  0
 17 20  1  0  0  0
  4 21  1  0  0  0
 21 22  2  0  0  0
 22 23  1  0  0  0
 23 24  2  0  0  0
 24 25  1  0  0  0
 24 26  1  0  0  0
 26 27  2  0  0  0
 26 28  1  0  0  0
 28 29  2  0  0  0
 29 30  1  0  0  0
 30 31  2  0  0  0
 31 32  1  0  0  0
 31 33  1  0  0  0
 33 34  2  0  0  0
  7  2  1  0  0  0
 16  8  1  0  0  0
 27 21  1  0  0  0
 34 28  1  0  0  0
 15 10  1  0  0  0
M  END
> <minimizedAffinity>
-7.23310

> <CNNscore>
0.3552334905

> <CNNaffinity>
5.9867906570

> <CNN_VS>
2.1267085075

> <CNNaffinity_variance>
0.0195068978

$$$$
[H]c1nc(N2C([H])([H])C([H])([H])N(c3nc4c([H])c([H])c(C(F)(F)F)c([H])c4s3)[C@]([H])(C([H])([H])[H])C2([H])[H])nc(-c2c([H])c([H])c(F)c([H])c2[H])c1F


 34 38  0  0  0  0  0  0  0  0999 V2000
  155.5606  139.3108  184.6501 C   0  0  0  0  0  0  0  0  0  0  0  0
  156.0691  139.4647  183.2175 C   0  0  0  0  0  0  0  0  0  0  0  0
  157.5393  139.8587  183.3241 C   0  0  0  0  0  0  0  0  0  0  0  0
  157.8219  141.0598  182.6568 N   0  0  0  0  0  0  0  0  0  0  0  0
  157.1825  141.2720  181.3199 C   0  0  0  0  0  0  0  0  0  0  0  0
  155.7361  141.5777  181.7733 C   0  0  0  0  0  0  0  0  0  0  0  0
  155.2748  140.3385  182.4298 N   0  0  0  0  0  0  0  0  0  0  0  0
  153.9113  140.0162  182.1735 C   0  0  0  0  0  0  0  0  0  0  0  0
  153.1437  140.3499  181.1492 N   0  0  0  0  0  0  0  0  0  0  0  0
  151.9010  139.9613  181.1121 C   0  0  0  0  0  0  0  0  0  0  0  0
  150.9698  140.2917  180.0963 C   0  0  0  0  0  0  0  0  0  0  0  0
  149.7025  139.8515  180.1972 C   0  0  0  0  0  0  0  0  0  0  0  0
  149.2141  139.0880  181.2249 C   0  0  0  0  0  0  0  0  0  0  0  0
  150.0957  138.7545  182.2269 C   0  0  0  0  0  0  0  0  0  0  0  0
  151.4236  139.2065  182.1389 C   0  0  0  0  0  0  0  0  0  0  0  0
  152.8456  139.1075  183.1420 S   0  0  0  0  0  0  0  0  0  0  0  0
  147.7713  138.7004  181.3475 C   0  0  0  0  0  0  0  0  0  0  0  0
  147.4244  138.8533  182.7108 F   0  0  0  0  0  0  0  0  0  0  0  0
  146.9585  139.5476  180.6622 F   0  0  0  0  0  0  0  0  0  0  0  0
  147.5590  137.4093  180.9867 F   0  0  0  0  0  0  0  0  0  0  0  0
  158.5488  142.1916  183.0854 C   0  0  0  0  0  0  0  0  0  0  0  0
  158.2950  143.3824  182.4582 N   0  0  0  0  0  0  0  0  0  0  0  0
  159.0242  144.4087  182.7746 C   0  0  0  0  0  0  0  0  0  0  0  0
  160.0412  144.3229  183.7350 C   0  0  0  0  0  0  0  0  0  0  0  0
  160.7679  145.4548  183.9520 F   0  0  0  0  0  0  0  0  0  0  0  0
  160.3032  143.1568  184.3721 C   0  0  0  0  0  0  0  0  0  0  0  0
  159.5135  142.1024  184.0004 N   0  0  0  0  0  0  0  0  0  0  0  0
  161.2903  142.9885  185.4501 C   0  0  0  0  0  0  0  0  0  0  0  0
  160.9530  143.3396  186.7484 C   0  0  0  0  0  0  0  0  0  0  0  0
  161.8679  143.1820  187.7912 C   0  0  0  0  0  0  0  0  0  0  0  0
  163.0711  142.6619  187.4455 C   0  0  0  0  0  0  0  0  0  0  0  0
  163.9725  142.5070  188.4926 F   0  0  0  0  0  0  0  0  0  0  0  0
  163.4554  142.2966  186.1865 C   0  0  0  0  0  0  0  0  0  0  0  0
  162.5330  142.4705  185.1580 C   0  0  0  0  0  0  0  0  0  0  0  0
  1  2  1  0  0  0
  2  3  1  0  0  0
  3  4  1  0  0  0
  4  5  1  0  0  0
  5  6  1  0  0  0
  6  7  1  0  0  0
  7  8  1  0  0  0
  8  9  2  0  0  0
  9 10  1  0  0  0
 10 11  2  0  0  0
 11 12  1  0  0  0
 12 13  2  0  0  0
 13 14  1  0  0  0
 14 15  2  0  0  0
 15 16  1  0  0  0
 13 17  1  0  0  0
 17 18  1  0  0  0
 17 19  1  0  0  0
 17 20  1  0  0  0
  4 21  1  0  0  0
 21 22  2  0  0  0
 22 23  1  0  0  0
 23 24  2  0  0  0
 24 25  1  0  0  0
 24 26  1  0  0  0
 26 27  2  0  0  0
 26 28  1  0  0  0
 28 29  2  0  0  0
 29 30  1  0  0  0
 30 31  2  0  0  0
 31 32  1  0  0  0
 31 33  1  0  0  0
 33 34  2  0  0  0
  7  2  1  0  0  0
 16  8  1  0  0  0
 27 21  1  0  0  0
 34 28  1  0  0  0
 15 10  1  0  0  0
M  END
> <minimizedAffinity>
-9.93224

> <CNNscore>
0.2998166978

> <CNNaffinity>
6.9471740723

> <CNN_VS>
2.0828788280

> <CNNaffinity_variance>
0.1725336909

$$$$
[H]c1nc(N2C([H])([H])C([H])([H])N(c3nc4c([H])c([H])c(C(F)(F)F)c([H])c4s3)[C@]([H])(C([H])([H])[H])C2([H])[H])nc(-c2c([H])c([H])c(F)c([H])c2[H])c1F


 34 38  0  0  0  0  0  0  0  0999 V2000
  153.4970  138.0500  183.8300 C   0  0  0  0  0  0  0  0  0  0  0  0
  152.6592  137.1251  184.7115 C   0  0  0  0  0  0  0  0  0  0  0  0
  152.6621  137.7432  186.1065 C   0  0  0  0  0  0  0  0  0  0  0  0
  153.1366  136.8566  187.0845 N   0  0  0  0  0  0  0  0  0  0  0  0
  152.6842  135.4320  187.0006 C   0  0  0  0  0  0  0  0  0  0  0  0
  153.5430  134.9604  185.8043 C   0  0  0  0  0  0  0  0  0  0  0  0
  153.0769  135.7695  184.6608 N   0  0  0  0  0  0  0  0  0  0  0  0
  153.0162  135.0568  183.4291 C   0  0  0  0  0  0  0  0  0  0  0  0
  153.9812  134.7736  182.5698 N   0  0  0  0  0  0  0  0  0  0  0  0
  153.7102  134.1157  181.4789 C   0  0  0  0  0  0  0  0  0  0  0  0
  154.6446  133.7937  180.4634 C   0  0  0  0  0  0  0  0  0  0  0  0
  154.2243  133.1372  179.3667 C   0  0  0  0  0  0  0  0  0  0  0  0
  152.9341  132.7383  179.1346 C   0  0  0  0  0  0  0  0  0  0  0  0
  152.0047  133.0403  180.1028 C   0  0  0  0  0  0  0  0  0  0  0  0
  152.4254  133.7267  181.2549 C   0  0  0  0  0  0  0  0  0  0  0  0
  151.6517  134.3674  182.6793 S   0  0  0  0  0  0  0  0  0  0  0  0
  152.4899  132.0951  177.8555 C   0  0  0  0  0  0  0  0  0  0  0  0
  153.0659  132.8450  176.8029 F   0  0  0  0  0  0  0  0  0  0  0  0
  152.9822  130.8348  177.7238 F   0  0  0  0  0  0  0  0  0  0  0  0
  151.1399  132.1170  177.7173 F   0  0  0  0  0  0  0  0  0  0  0  0
  154.0832  137.0552  188.1130 C   0  0  0  0  0  0  0  0  0  0  0  0
  154.0102  138.2233  188.8243 N   0  0  0  0  0  0  0  0  0  0  0  0
  154.9326  138.4620  189.7059 C   0  0  0  0  0  0  0  0  0  0  0  0
  155.9768  137.5580  189.9442 C   0  0  0  0  0  0  0  0  0  0  0  0
  156.9095  137.9366  190.8622 F   0  0  0  0  0  0  0  0  0  0  0  0
  156.0629  136.3940  189.2570 C   0  0  0  0  0  0  0  0  0  0  0  0
  155.0724  136.1902  188.3345 N   0  0  0  0  0  0  0  0  0  0  0  0
  157.0702  135.3481  189.4937 C   0  0  0  0  0  0  0  0  0  0  0  0
  158.0602  135.1244  188.5489 C   0  0  0  0  0  0  0  0  0  0  0  0
  159.0332  134.1441  188.7527 C   0  0  0  0  0  0  0  0  0  0  0  0
  158.9430  133.4582  189.9185 C   0  0  0  0  0  0  0  0  0  0  0  0
  159.9189  132.4869  190.1114 F   0  0  0  0  0  0  0  0  0  0  0  0
  157.9933  133.6381  190.8839 C   0  0  0  0  0  0  0  0  0  0  0  0
  157.0255  134.6134  190.6583 C   0  0  0  0  0  0  0  0  0  0  0  0
  1  2  1  0  0  0
  2  3  1  0  0  0
  3  4  1  0  0  0
  4  5  1  0  0  0
  5  6  1  0  0  0
  6  7  1  0  0  0
  7  8  1  0  0  0
  8  9  2  0  0  0
  9 10  1  0  0  0
 10 11  2  0  0  0
 11 12  1  0  0  0
 12 13  2  0  0  0
 13 14  1  0  0  0
 14 15  2  0  0  0
 15 16  1  0  0  0
 13 17  1  0  0  0
 17 18  1  0  0  0
 17 19  1  0  0  0
 17 20  1  0  0  0
  4 21  1  0  0  0
 21 22  2  0  0  0
 22 23  1  0  0  0
 23 24  2  0  0  0
 24 25  1  0  0  0
 24 26  1  0  0  0
 26 27  2  0  0  0
 26 28  1  0  0  0
 28 29  2  0  0  0
 29 30  1  0  0  0
 30 31  2  0  0  0
 31 32  1  0  0  0
 31 33  1  0  0  0
 33 34  2  0  0  0
  7  2  1  0  0  0
 16  8  1  0  0  0
 27 21  1  0  0  0
 34 28  1  0  0  0
 15 10  1  0  0  0
M  END
> <minimizedAffinity>
-6.55558

> <CNNscore>
0.2911043167

> <CNNaffinity>
5.6432085037

> <CNN_VS>
1.6427623034

> <CNNaffinity_variance>
0.0295654684

$$$$
[H]c1nc(N2C([H])([H])C([H])([H])N(c3nc4c([H])c([H])c(C(F)(F)F)c([H])c4s3)[C@]([H])(C([H])([H])[H])C2([H])[H])nc(-c2c([H])c([H])c(F)c([H])c2[H])c1F


 34 38  0  0  0  0  0  0  0  0999 V2000
  154.6391  135.0299  186.0295 C   0  0  0  0  0  0  0  0  0  0  0  0
  155.1062  136.3879  186.5512 C   0  0  0  0  0  0  0  0  0  0  0  0
  155.7196  136.1320  187.9246 C   0  0  0  0  0  0  0  0  0  0  0  0
  155.1158  136.8984  188.9324 N   0  0  0  0  0  0  0  0  0  0  0  0
  154.7958  138.3258  188.6140 C   0  0  0  0  0  0  0  0  0  0  0  0
  153.5684  138.1149  187.6975 C   0  0  0  0  0  0  0  0  0  0  0  0
  154.0900  137.3786  186.5290 N   0  0  0  0  0  0  0  0  0  0  0  0
  153.5173  137.7761  185.2869 C   0  0  0  0  0  0  0  0  0  0  0  0
  153.8848  138.7395  184.4583 N   0  0  0  0  0  0  0  0  0  0  0  0
  153.2081  138.9535  183.3662 C   0  0  0  0  0  0  0  0  0  0  0  0
  153.4735  139.9803  182.4264 C   0  0  0  0  0  0  0  0  0  0  0  0
  152.6727  140.1131  181.3534 C   0  0  0  0  0  0  0  0  0  0  0  0
  151.5895  139.3206  181.0770 C   0  0  0  0  0  0  0  0  0  0  0  0
  151.3064  138.3170  181.9743 C   0  0  0  0  0  0  0  0  0  0  0  0
  152.1316  138.1639  183.1018 C   0  0  0  0  0  0  0  0  0  0  0  0
  152.1521  137.1273  184.5029 S   0  0  0  0  0  0  0  0  0  0  0  0
  150.6663  139.5639  179.9214 C   0  0  0  0  0  0  0  0  0  0  0  0
  149.5392  140.2451  180.4388 F   0  0  0  0  0  0  0  0  0  0  0  0
  151.2145  140.4018  179.0019 F   0  0  0  0  0  0  0  0  0  0  0  0
  150.2501  138.4051  179.3502 F   0  0  0  0  0  0  0  0  0  0  0  0
  154.6449  136.5186  190.2081 C   0  0  0  0  0  0  0  0  0  0  0  0
  155.5201  136.6050  191.2581 N   0  0  0  0  0  0  0  0  0  0  0  0
  155.1313  136.1675  192.4168 C   0  0  0  0  0  0  0  0  0  0  0  0
  153.8527  135.6271  192.6100 C   0  0  0  0  0  0  0  0  0  0  0  0
  153.5734  135.1613  193.8595 F   0  0  0  0  0  0  0  0  0  0  0  0
  152.9697  135.5397  191.5867 C   0  0  0  0  0  0  0  0  0  0  0  0
  153.4272  136.0069  190.3841 N   0  0  0  0  0  0  0  0  0  0  0  0
  151.5819  135.0667  191.7089 C   0  0  0  0  0  0  0  0  0  0  0  0
  151.1401  134.0255  190.9068 C   0  0  0  0  0  0  0  0  0  0  0  0
  149.8307  133.5518  191.0087 C   0  0  0  0  0  0  0  0  0  0  0  0
  149.0535  134.1638  191.9355 C   0  0  0  0  0  0  0  0  0  0  0  0
  147.7529  133.6816  192.0298 F   0  0  0  0  0  0  0  0  0  0  0  0
  149.4362  135.1895  192.7528 C   0  0  0  0  0  0  0  0  0  0  0  0
  150.7427  135.6551  192.6296 C   0  0  0  0  0  0  0  0  0  0  0  0
  1  2  1  0  0  0
  2  3  1  0  0  0
  3  4  1  0  0  0
  4  5  1  0  0  0
  5  6  1  0  0  0
  6  7  1  0  0  0
  7  8  1  0  0  0
  8  9  2  0  0  0
  9 10  1  0  0  0
 10 11  2  0  0  0
 11 12  1  0  0  0
 12 13  2  0  0  0
 13 14  1  0  0  0
 14 15  2  0  0  0
 15 16  1  0  0  0
 13 17  1  0  0  0
 17 18  1  0  0  0
 17 19  1  0  0  0
 17 20  1  0  0  0
  4 21  1  0  0  0
 21 22  2  0  0  0
 22 23  1  0  0  0
 23 24  2  0  0  0
 24 25  1  0  0  0
 24 26  1  0  0  0
 26 27  2  0  0  0
 26 28  1  0  0  0
 28 29  2  0  0  0
 29 30  1  0  0  0
 30 31  2  0  0  0
 31 32  1  0  0  0
 31 33  1  0  0  0
 33 34  2  0  0  0
  7  2  1  0  0  0
 16  8  1  0  0  0
 27 21  1  0  0  0
 34 28  1  0  0  0
 15 10  1  0  0  0
M  END
> <minimizedAffinity>
-7.20710

> <CNNscore>
0.2737016976

> <CNNaffinity>
5.9868178368

> <CNN_VS>
1.6386022568

> <CNNaffinity_variance>
0.0185152292

$$$$
[H]c1nc(N2C([H])([H])C([H])([H])N(c3nc4c([H])c([H])c(C(F)(F)F)c([H])c4s3)[C@]([H])(C([H])([H])[H])C2([H])[H])nc(-c2c([H])c([H])c(F)c([H])c2[H])c1F


 34 38  0  0  0  0  0  0  0  0999 V2000
  152.9348  137.2406  182.9788 C   0  0  0  0  0  0  0  0  0  0  0  0
  153.5952  136.9500  184.3256 C   0  0  0  0  0  0  0  0  0  0  0  0
  152.7173  135.9122  185.0188 C   0  0  0  0  0  0  0  0  0  0  0  0
  152.2774  136.3394  186.2805 N   0  0  0  0  0  0  0  0  0  0  0  0
  153.2678  137.0466  187.1524 C   0  0  0  0  0  0  0  0  0  0  0  0
  153.3125  138.4142  186.4321 C   0  0  0  0  0  0  0  0  0  0  0  0
  153.8514  138.1183  185.0899 N   0  0  0  0  0  0  0  0  0  0  0  0
  154.7422  139.1100  184.5881 C   0  0  0  0  0  0  0  0  0  0  0  0
  156.0471  139.2379  184.7627 N   0  0  0  0  0  0  0  0  0  0  0  0
  156.6819  140.2392  184.2233 C   0  0  0  0  0  0  0  0  0  0  0  0
  158.0647  140.5094  184.3751 C   0  0  0  0  0  0  0  0  0  0  0  0
  158.5898  141.6011  183.7899 C   0  0  0  0  0  0  0  0  0  0  0  0
  157.8875  142.5045  183.0360 C   0  0  0  0  0  0  0  0  0  0  0  0
  156.5419  142.2686  182.8742 C   0  0  0  0  0  0  0  0  0  0  0  0
  155.9757  141.1334  183.4792 C   0  0  0  0  0  0  0  0  0  0  0  0
  154.3744  140.4588  183.6161 S   0  0  0  0  0  0  0  0  0  0  0  0
  158.4919  143.7598  182.4827 C   0  0  0  0  0  0  0  0  0  0  0  0
  158.9919  143.4378  181.1989 F   0  0  0  0  0  0  0  0  0  0  0  0
  157.5581  144.7274  182.2837 F   0  0  0  0  0  0  0  0  0  0  0  0
  159.5176  144.2108  183.2487 F   0  0  0  0  0  0  0  0  0  0  0  0
  150.9878  136.3101  186.8544 C   0  0  0  0  0  0  0  0  0  0  0  0
  149.9574  136.8406  186.1247 N   0  0  0  0  0  0  0  0  0  0  0  0
  148.7858  136.9087  186.6794 C   0  0  0  0  0  0  0  0  0  0  0  0
  148.5595  136.4490  187.9839 C   0  0  0  0  0  0  0  0  0  0  0  0
  147.2991  136.6121  188.4747 F   0  0  0  0  0  0  0  0  0  0  0  0
  149.5632  135.9140  188.7195 C   0  0  0  0  0  0  0  0  0  0  0  0
  150.7804  135.8700  188.0950 N   0  0  0  0  0  0  0  0  0  0  0  0
  149.4064  135.3306  190.0610 C   0  0  0  0  0  0  0  0  0  0  0  0
  148.6202  134.2009  190.2289 C   0  0  0  0  0  0  0  0  0  0  0  0
  148.4617  133.6223  191.4897 C   0  0  0  0  0  0  0  0  0  0  0  0
  149.1283  134.2273  192.5033 C   0  0  0  0  0  0  0  0  0  0  0  0
  148.9652  133.6404  193.7531 F   0  0  0  0  0  0  0  0  0  0  0  0
  149.9170  135.3375  192.3951 C   0  0  0  0  0  0  0  0  0  0  0  0
  150.0549  135.9062  191.1317 C   0  0  0  0  0  0  0  0  0  0  0  0
  1  2  1  0  0  0
  2  3  1  0  0  0
  3  4  1  0  0  0
  4  5  1  0  0  0
  5  6  1  0  0  0
  6  7  1  0  0  0
  7  8  1  0  0  0
  8  9  2  0  0  0
  9 10  1  0  0  0
 10 11  2  0  0  0
 11 12  1  0  0  0
 12 13  2  0  0  0
 13 14  1  0  0  0
 14 15  2  0  0  0
 15 16  1  0  0  0
 13 17  1  0  0  0
 17 18  1  0  0  0
 17 19  1  0  0  0
 17 20  1  0  0  0
  4 21  1  0  0  0
 21 22  2  0  0  0
 22 23  1  0  0  0
 23 24  2  0  0  0
 24 25  1  0  0  0
 24 26  1  0  0  0
 26 27  2  0  0  0
 26 28  1  0  0  0
 28 29  2  0  0  0
 29 30  1  0  0  0
 30 31  2  0  0  0
 31 32  1  0  0  0
 31 33  1  0  0  0
 33 34  2  0  0  0
  7  2  1  0  0  0
 16  8  1  0  0  0
 27 21  1  0  0  0
 34 28  1  0  0  0
 15 10  1  0  0  0
M  END
> <minimizedAffinity>
-7.58933

> <CNNscore>
0.2588643432

> <CNNaffinity>
6.1576271057

> <CNN_VS>
1.5939900875

> <CNNaffinity_variance>
0.1096278429

$$$$
[H]c1nc(N2C([H])([H])C([H])([H])N(c3nc4c([H])c([H])c(C(F)(F)F)c([H])c4s3)[C@]([H])(C([H])([H])[H])C2([H])[H])nc(-c2c([H])c([H])c(F)c([H])c2[H])c1F


 34 38  0  0  0  0  0  0  0  0999 V2000
  154.3806  138.1831  184.9179 C   0  0  0  0  0  0  0  0  0  0  0  0
  153.1798  138.0584  185.8544 C   0  0  0  0  0  0  0  0  0  0  0  0
  153.6495  138.5466  187.2216 C   0  0  0  0  0  0  0  0  0  0  0  0
  153.4632  137.5859  188.2266 N   0  0  0  0  0  0  0  0  0  0  0  0
  152.1808  136.8136  188.2122 C   0  0  0  0  0  0  0  0  0  0  0  0
  152.4633  135.8701  187.0201 C   0  0  0  0  0  0  0  0  0  0  0  0
  152.5976  136.7639  185.8529 N   0  0  0  0  0  0  0  0  0  0  0  0
  152.0292  136.2459  184.6540 C   0  0  0  0  0  0  0  0  0  0  0  0
  151.2696  136.8459  183.7526 N   0  0  0  0  0  0  0  0  0  0  0  0
  150.8337  136.1811  182.7208 C   0  0  0  0  0  0  0  0  0  0  0  0
  149.9788  136.6975  181.7155 C   0  0  0  0  0  0  0  0  0  0  0  0
  149.5737  135.8906  180.7181 C   0  0  0  0  0  0  0  0  0  0  0  0
  149.9237  134.5729  180.5806 C   0  0  0  0  0  0  0  0  0  0  0  0
  150.7509  134.0440  181.5442 C   0  0  0  0  0  0  0  0  0  0  0  0
  151.1833  134.8719  182.5944 C   0  0  0  0  0  0  0  0  0  0  0  0
  152.1471  134.6652  184.0319 S   0  0  0  0  0  0  0  0  0  0  0  0
  149.3719  133.6833  179.5076 C   0  0  0  0  0  0  0  0  0  0  0  0
  148.8508  132.5393  180.1570 F   0  0  0  0  0  0  0  0  0  0  0  0
  148.3191  134.2558  178.8659 F   0  0  0  0  0  0  0  0  0  0  0  0
  150.3307  133.2878  178.6320 F   0  0  0  0  0  0  0  0  0  0  0  0
  154.3490  137.1292  189.2267 C   0  0  0  0  0  0  0  0  0  0  0  0
  154.1805  137.6195  190.4943 N   0  0  0  0  0  0  0  0  0  0  0  0
  155.0468  137.2838  191.4009 C   0  0  0  0  0  0  0  0  0  0  0  0
  156.1257  136.4371  191.1124 C   0  0  0  0  0  0  0  0  0  0  0  0
  156.9931  136.1901  192.1336 F   0  0  0  0  0  0  0  0  0  0  0  0
  156.3059  135.9354  189.8673 C   0  0  0  0  0  0  0  0  0  0  0  0
  155.3718  136.3228  188.9448 N   0  0  0  0  0  0  0  0  0  0  0  0
  157.3558  134.9767  189.4886 C   0  0  0  0  0  0  0  0  0  0  0  0
  158.0724  135.1728  188.3178 C   0  0  0  0  0  0  0  0  0  0  0  0
  159.0796  134.2830  187.9397 C   0  0  0  0  0  0  0  0  0  0  0  0
  159.3030  133.2507  188.7895 C   0  0  0  0  0  0  0  0  0  0  0  0
  160.3101  132.3732  188.4039 F   0  0  0  0  0  0  0  0  0  0  0  0
  158.6313  133.0109  189.9547 C   0  0  0  0  0  0  0  0  0  0  0  0
  157.6235  133.9035  190.3100 C   0  0  0  0  0  0  0  0  0  0  0  0
  1  2  1  0  0  0
  2  3  1  0  0  0
  3  4  1  0  0  0
  4  5  1  0  0  0
  5  6  1  0  0  0
  6  7  1  0  0  0
  7  8  1  0  0  0
  8  9  2  0  0  0
  9 10  1  0  0  0
 10 11  2  0  0  0
 11 12  1  0  0  0
 12 13  2  0  0  0
 13 14  1  0  0  0
 14 15  2  0  0  0
 15 16  1  0  0  0
 13 17  1  0  0  0
 17 18  1  0  0  0
 17 19  1  0  0  0
 17 20  1  0  0  0
  4 21  1  0  0  0
 21 22  2  0  0  0
 22 23  1  0  0  0
 23 24  2  0  0  0
 24 25  1  0  0  0
 24 26  1  0  0  0
 26 27  2  0  0  0
 26 28  1  0  0  0
 28 29  2  0  0  0
 29 30  1  0  0  0
 30 31  2  0  0  0
 31 32  1  0  0  0
 31 33  1  0  0  0
 33 34  2  0  0  0
  7  2  1  0  0  0
 16  8  1  0  0  0
 27 21  1  0  0  0
 34 28  1  0  0  0
 15 10  1  0  0  0
M  END
> <minimizedAffinity>
-6.09898

> <CNNscore>
0.2503693700

> <CNNaffinity>
5.8067097664

> <CNN_VS>
1.4538222551

> <CNNaffinity_variance>
0.0643595010

$$$$
[H]c1nc(N2C([H])([H])C([H])([H])N(c3nc4c([H])c([H])c(C(F)(F)F)c([H])c4s3)[C@]([H])(C([H])([H])[H])C2([H])[H])nc(-c2c([H])c([H])c(F)c([H])c2[H])c1F


 34 38  0  0  0  0  0  0  0  0999 V2000
  153.1446  137.9056  183.2197 C   0  0  0  0  0  0  0  0  0  0  0  0
  154.1816  137.3200  184.1768 C   0  0  0  0  0  0  0  0  0  0  0  0
  153.5075  136.1395  184.8697 C   0  0  0  0  0  0  0  0  0  0  0  0
  153.5233  136.2582  186.2674 N   0  0  0  0  0  0  0  0  0  0  0  0
  154.7841  136.7571  186.9021 C   0  0  0  0  0  0  0  0  0  0  0  0
  154.6833  138.2545  186.5297 C   0  0  0  0  0  0  0  0  0  0  0  0
  154.7436  138.2832  185.0549 N   0  0  0  0  0  0  0  0  0  0  0  0
  155.4884  139.3748  184.5235 C   0  0  0  0  0  0  0  0  0  0  0  0
  156.7813  139.6385  184.6158 N   0  0  0  0  0  0  0  0  0  0  0  0
  157.2685  140.7129  184.0638 C   0  0  0  0  0  0  0  0  0  0  0  0
  158.6220  141.1269  184.1322 C   0  0  0  0  0  0  0  0  0  0  0  0
  158.9877  142.2804  183.5442 C   0  0  0  0  0  0  0  0  0  0  0  0
  158.1442  143.1183  182.8629 C   0  0  0  0  0  0  0  0  0  0  0  0
  156.8232  142.7427  182.7830 C   0  0  0  0  0  0  0  0  0  0  0  0
  156.4227  141.5411  183.3923 C   0  0  0  0  0  0  0  0  0  0  0  0
  154.9147  140.6958  183.6150 S   0  0  0  0  0  0  0  0  0  0  0  0
  158.5734  144.4422  182.3061 C   0  0  0  0  0  0  0  0  0  0  0  0
  157.4628  145.3111  182.4230 F   0  0  0  0  0  0  0  0  0  0  0  0
  159.5639  145.0068  183.0465 F   0  0  0  0  0  0  0  0  0  0  0  0
  158.9214  144.3547  180.9971 F   0  0  0  0  0  0  0  0  0  0  0  0
  152.4865  136.0813  187.2092 C   0  0  0  0  0  0  0  0  0  0  0  0
  151.1979  136.1122  186.7462 N   0  0  0  0  0  0  0  0  0  0  0  0
  150.2340  136.0488  187.6133 C   0  0  0  0  0  0  0  0  0  0  0  0
  150.4846  135.9421  188.9882 C   0  0  0  0  0  0  0  0  0  0  0  0
  149.3938  135.9267  189.8043 F   0  0  0  0  0  0  0  0  0  0  0  0
  151.7514  135.9023  189.4658 C   0  0  0  0  0  0  0  0  0  0  0  0
  152.7328  135.9790  188.5148 N   0  0  0  0  0  0  0  0  0  0  0  0
  152.1137  135.7085  190.8786 C   0  0  0  0  0  0  0  0  0  0  0  0
  152.6031  134.4808  191.2979 C   0  0  0  0  0  0  0  0  0  0  0  0
  152.9625  134.2730  192.6309 C   0  0  0  0  0  0  0  0  0  0  0  0
  152.8115  135.3390  193.4547 C   0  0  0  0  0  0  0  0  0  0  0  0
  153.1753  135.1209  194.7787 F   0  0  0  0  0  0  0  0  0  0  0  0
  152.3382  136.5694  193.0961 C   0  0  0  0  0  0  0  0  0  0  0  0
  151.9755  136.7545  191.7646 C   0  0  0  0  0  0  0  0  0  0  0  0
  1  2  1  0  0  0
  2  3  1  0  0  0
  3  4  1  0  0  0
  4  5  1  0  0  0
  5  6  1  0  0  0
  6  7  1  0  0  0
  7  8  1  0  0  0
  8  9  2  0  0  0
  9 10  1  0  0  0
 10 11  2  0  0  0
 11 12  1  0  0  0
 12 13  2  0  0  0
 13 14  1  0  0  0
 14 15  2  0  0  0
 15 16  1  0  0  0
 13 17  1  0  0  0
 17 18  1  0  0  0
 17 19  1  0  0  0
 17 20  1  0  0  0
  4 21  1  0  0  0
 21 22  2  0  0  0
 22 23  1  0  0  0
 23 24  2  0  0  0
 24 25  1  0  0  0
 24 26  1  0  0  0
 26 27  2  0  0  0
 26 28  1  0  0  0
 28 29  2  0  0  0
 29 30  1  0  0  0
 30 31  2  0  0  0
 31 32  1  0  0  0
 31 33  1  0  0  0
 33 34  2  0  0  0
  7  2  1  0  0  0
 16  8  1  0  0  0
 27 21  1  0  0  0
 34 28  1  0  0  0
 15 10  1  0  0  0
M  END
> <minimizedAffinity>
-8.26950

> <CNNscore>
0.2290506214

> <CNNaffinity>
6.2376680374

> <CNN_VS>
1.4287416935

> <CNNaffinity_variance>
0.0961647257

$$$$
[H]c1nc(N2C([H])([H])C([H])([H])N(c3nc4c([H])c([H])c(C(F)(F)F)c([H])c4s3)[C@]([H])(C([H])([H])[H])C2([H])[H])nc(-c2c([H])c([H])c(F)c([H])c2[H])c1F


 34 38  0  0  0  0  0  0  0  0999 V2000
  155.2856  138.3272  188.7857 C   0  0  0  0  0  0  0  0  0  0  0  0
  155.0840  137.1831  187.7933 C   0  0  0  0  0  0  0  0  0  0  0  0
  155.6879  137.6497  186.4721 C   0  0  0  0  0  0  0  0  0  0  0  0
  154.7655  137.6054  185.4161 N   0  0  0  0  0  0  0  0  0  0  0  0
  153.8636  136.4131  185.3388 C   0  0  0  0  0  0  0  0  0  0  0  0
  152.8951  136.7489  186.4966 C   0  0  0  0  0  0  0  0  0  0  0  0
  153.7373  136.7426  187.7090 N   0  0  0  0  0  0  0  0  0  0  0  0
  153.1020  136.1874  188.8567 C   0  0  0  0  0  0  0  0  0  0  0  0
  152.2296  136.7357  189.6861 N   0  0  0  0  0  0  0  0  0  0  0  0
  151.7751  136.0538  190.6984 C   0  0  0  0  0  0  0  0  0  0  0  0
  150.8768  136.5439  191.6787 C   0  0  0  0  0  0  0  0  0  0  0  0
  150.5120  135.7426  192.6961 C   0  0  0  0  0  0  0  0  0  0  0  0
  150.9430  134.4544  192.8766 C   0  0  0  0  0  0  0  0  0  0  0  0
  151.8184  133.9533  191.9412 C   0  0  0  0  0  0  0  0  0  0  0  0
  152.2114  134.7765  190.8720 C   0  0  0  0  0  0  0  0  0  0  0  0
  153.3024  134.6321  189.5203 S   0  0  0  0  0  0  0  0  0  0  0  0
  150.5879  133.6293  194.0767 C   0  0  0  0  0  0  0  0  0  0  0  0
  151.7602  133.5311  194.8630 F   0  0  0  0  0  0  0  0  0  0  0  0
  149.6665  134.2470  194.8624 F   0  0  0  0  0  0  0  0  0  0  0  0
  150.1881  132.3784  193.7336 F   0  0  0  0  0  0  0  0  0  0  0  0
  154.4557  138.5723  184.4350 C   0  0  0  0  0  0  0  0  0  0  0  0
  153.2192  138.5074  183.8498 N   0  0  0  0  0  0  0  0  0  0  0  0
  152.9575  139.3282  182.8788 C   0  0  0  0  0  0  0  0  0  0  0  0
  153.8974  140.2677  182.4336 C   0  0  0  0  0  0  0  0  0  0  0  0
  153.5247  141.0462  181.3795 F   0  0  0  0  0  0  0  0  0  0  0  0
  155.1229  140.3533  183.0039 C   0  0  0  0  0  0  0  0  0  0  0  0
  155.3544  139.4635  184.0180 N   0  0  0  0  0  0  0  0  0  0  0  0
  156.1428  141.3575  182.6633 C   0  0  0  0  0  0  0  0  0  0  0  0
  157.3453  140.9504  182.1055 C   0  0  0  0  0  0  0  0  0  0  0  0
  158.3265  141.8834  181.7651 C   0  0  0  0  0  0  0  0  0  0  0  0
  158.0139  143.1806  182.0040 C   0  0  0  0  0  0  0  0  0  0  0  0
  158.9974  144.1005  181.6582 F   0  0  0  0  0  0  0  0  0  0  0  0
  156.8467  143.6378  182.5473 C   0  0  0  0  0  0  0  0  0  0  0  0
  155.8843  142.6917  182.8897 C   0  0  0  0  0  0  0  0  0  0  0  0
  1  2  1  0  0  0
  2  3  1  0  0  0
  3  4  1  0  0  0
  4  5  1  0  0  0
  5  6  1  0  0  0
  6  7  1  0  0  0
  7  8  1  0  0  0
  8  9  2  0  0  0
  9 10  1  0  0  0
 10 11  2  0  0  0
 11 12  1  0  0  0
 12 13  2  0  0  0
 13 14  1  0  0  0
 14 15  2  0  0  0
 15 16  1  0  0  0
 13 17  1  0  0  0
 17 18  1  0  0  0
 17 19  1  0  0  0
 17 20  1  0  0  0
  4 21  1  0  0  0
 21 22  2  0  0  0
 22 23  1  0  0  0
 23 24  2  0  0  0
 24 25  1  0  0  0
 24 26  1  0  0  0
 26 27  2  0  0  0
 26 28  1  0  0  0
 28 29  2  0  0  0
 29 30  1  0  0  0
 30 31  2  0  0  0
 31 32  1  0  0  0
 31 33  1  0  0  0
 33 34  2  0  0  0
  7  2  1  0  0  0
 16  8  1  0  0  0
 27 21  1  0  0  0
 34 28  1  0  0  0
 15 10  1  0  0  0
M  END
> <minimizedAffinity>
-7.78222

> <CNNscore>
0.2233301699

> <CNNaffinity>
6.0917797089

> <CNN_VS>
1.3604781628

> <CNNaffinity_variance>
0.0743869245

$$$$
[H]c1nc(N2C([H])([H])C([H])([H])N(c3nc4c([H])c([H])c(C(F)(F)F)c([H])c4s3)[C@]([H])(C([H])([H])[H])C2([H])[H])nc(-c2c([H])c([H])c(F)c([H])c2[H])c1F


 34 38  0  0  0  0  0  0  0  0999 V2000
  154.0260  135.0305  185.3308 C   0  0  0  0  0  0  0  0  0  0  0  0
  154.2409  136.4979  185.6979 C   0  0  0  0  0  0  0  0  0  0  0  0
  155.1189  136.5039  186.9458 C   0  0  0  0  0  0  0  0  0  0  0  0
  154.5295  137.1988  188.0123 N   0  0  0  0  0  0  0  0  0  0  0  0
  153.8336  138.4858  187.6953 C   0  0  0  0  0  0  0  0  0  0  0  0
  152.5545  137.9280  187.0291 C   0  0  0  0  0  0  0  0  0  0  0  0
  153.0311  137.2304  185.8185 N   0  0  0  0  0  0  0  0  0  0  0  0
  152.1808  137.3822  184.6858 C   0  0  0  0  0  0  0  0  0  0  0  0
  150.8876  137.1334  184.5624 N   0  0  0  0  0  0  0  0  0  0  0  0
  150.2927  137.3269  183.4199 C   0  0  0  0  0  0  0  0  0  0  0  0
  148.9284  137.0546  183.1507 C   0  0  0  0  0  0  0  0  0  0  0  0
  148.4466  137.2684  181.9128 C   0  0  0  0  0  0  0  0  0  0  0  0
  149.1779  137.7409  180.8546 C   0  0  0  0  0  0  0  0  0  0  0  0
  150.5066  138.0112  181.0866 C   0  0  0  0  0  0  0  0  0  0  0  0
  151.0276  137.7928  182.3735 C   0  0  0  0  0  0  0  0  0  0  0  0
  152.5959  137.9182  183.1238 S   0  0  0  0  0  0  0  0  0  0  0  0
  148.6257  137.8726  179.4672 C   0  0  0  0  0  0  0  0  0  0  0  0
  148.3836  136.5590  179.0004 F   0  0  0  0  0  0  0  0  0  0  0  0
  147.4178  138.4962  179.4592 F   0  0  0  0  0  0  0  0  0  0  0  0
  149.5021  138.4786  178.6265 F   0  0  0  0  0  0  0  0  0  0  0  0
  154.3823  136.8334  189.3681 C   0  0  0  0  0  0  0  0  0  0  0  0
  155.4811  136.9465  190.1777 N   0  0  0  0  0  0  0  0  0  0  0  0
  155.3866  136.5225  191.4010 C   0  0  0  0  0  0  0  0  0  0  0  0
  154.1994  135.9700  191.9005 C   0  0  0  0  0  0  0  0  0  0  0  0
  154.2332  135.5205  193.1861 F   0  0  0  0  0  0  0  0  0  0  0  0
  153.0993  135.8563  191.1186 C   0  0  0  0  0  0  0  0  0  0  0  0
  153.2496  136.3101  189.8360 N   0  0  0  0  0  0  0  0  0  0  0  0
  151.7881  135.3688  191.5744 C   0  0  0  0  0  0  0  0  0  0  0  0
  151.2532  134.2180  191.0155 C   0  0  0  0  0  0  0  0  0  0  0  0
  150.0149  133.7291  191.4360 C   0  0  0  0  0  0  0  0  0  0  0  0
  149.4020  134.4405  192.4137 C   0  0  0  0  0  0  0  0  0  0  0  0
  148.1712  133.9424  192.8261 F   0  0  0  0  0  0  0  0  0  0  0  0
  149.8827  135.5765  193.0009 C   0  0  0  0  0  0  0  0  0  0  0  0
  151.1144  136.0544  192.5614 C   0  0  0  0  0  0  0  0  0  0  0  0
  1  2  1  0  0  0
  2  3  1  0  0  0
  3  4  1  0  0  0
  4  5  1  0  0  0
  5  6  1  0  0  0
  6  7  1  0  0  0
  7  8  1  0  0  0
  8  9  2  0  0  0
  9 10  1  0  0  0
 10 11  2  0  0  0
 11 12  1  0  0  0
 12 13  2  0  0  0
 13 14  1  0  0  0
 14 15  2  0  0  0
 15 16  1  0  0  0
 13 17  1  0  0  0
 17 18  1  0  0  0
 17 19  1  0  0  0
 17 20  1  0  0  0
  4 21  1  0  0  0
 21 22  2  0  0  0
 22 23  1  0  0  0
 23 24  2  0  0  0
 24 25  1  0  0  0
 24 26  1  0  0  0
 26 27  2  0  0  0
 26 28  1  0  0  0
 28 29  2  0  0  0
 29 30  1  0  0  0
 30 31  2  0  0  0
 31 32  1  0  0  0
 31 33  1  0  0  0
 33 34  2  0  0  0
  7  2  1  0  0  0
 16  8  1  0  0  0
 27 21  1  0  0  0
 34 28  1  0  0  0
 15 10  1  0  0  0
M  END
> <minimizedAffinity>
-6.33816

> <CNNscore>
0.2164783776

> <CNNaffinity>
5.7999687195

> <CNN_VS>
1.2555677891

> <CNNaffinity_variance>
0.0167813953

$$$$
[H]c1nc([H])c(-c2nc3c([H])c([H])c(C(F)(F)F)c([H])c3c(=O)n2-c2c([H])c([H])c(F)c([H])c2[H])c([H])c1[H]


 28 31  0  0  0  0  0  0  0  0999 V2000
  154.7132  132.8778  183.6605 N   0  0  0  0  0  0  0  0  0  0  0  0
  153.6711  132.8385  184.4604 C   0  0  0  0  0  0  0  0  0  0  0  0
  153.9568  132.9925  185.8293 N   0  0  0  0  0  0  0  0  0  0  0  0
  155.1715  133.1702  186.3084 C   0  0  0  0  0  0  0  0  0  0  0  0
  155.3854  133.3706  187.6737 C   0  0  0  0  0  0  0  0  0  0  0  0
  156.6547  133.6072  188.1355 C   0  0  0  0  0  0  0  0  0  0  0  0
  157.7518  133.6612  187.3105 C   0  0  0  0  0  0  0  0  0  0  0  0
  157.5076  133.4507  185.9621 C   0  0  0  0  0  0  0  0  0  0  0  0
  156.2178  133.2061  185.4542 C   0  0  0  0  0  0  0  0  0  0  0  0
  156.0051  133.0604  184.1251 C   0  0  0  0  0  0  0  0  0  0  0  0
  156.9305  133.0855  183.3197 O   0  0  0  0  0  0  0  0  0  0  0  0
  154.5317  133.3073  178.0986 F   0  0  0  0  0  0  0  0  0  0  0  0
  154.5724  133.1561  179.4487 C   0  0  0  0  0  0  0  0  0  0  0  0
  155.1643  132.0398  180.0444 C   0  0  0  0  0  0  0  0  0  0  0  0
  155.1790  131.9467  181.4318 C   0  0  0  0  0  0  0  0  0  0  0  0
  154.6560  132.8686  182.2437 C   0  0  0  0  0  0  0  0  0  0  0  0
  154.0597  133.9844  181.6337 C   0  0  0  0  0  0  0  0  0  0  0  0
  154.0182  134.1307  180.2862 C   0  0  0  0  0  0  0  0  0  0  0  0
  152.2693  132.8276  184.1340 C   0  0  0  0  0  0  0  0  0  0  0  0
  151.5307  133.9946  184.4403 C   0  0  0  0  0  0  0  0  0  0  0  0
  150.1953  134.1178  184.2577 C   0  0  0  0  0  0  0  0  0  0  0  0
  149.4806  133.0258  183.7269 C   0  0  0  0  0  0  0  0  0  0  0  0
  150.1768  131.9348  183.4472 N   0  0  0  0  0  0  0  0  0  0  0  0
  151.5382  131.8095  183.6381 C   0  0  0  0  0  0  0  0  0  0  0  0
  159.1305  133.9307  187.7835 C   0  0  0  0  0  0  0  0  0  0  0  0
  159.1284  133.9270  189.1804 F   0  0  0  0  0  0  0  0  0  0  0  0
  159.5705  135.1478  187.3368 F   0  0  0  0  0  0  0  0  0  0  0  0
  160.0475  132.9860  187.3406 F   0  0  0  0  0  0  0  0  0  0  0  0
 12 13  1  0  0  0
 13 14  2  0  0  0
 14 15  1  0  0  0
 15 16  2  0  0  0
 16 17  1  0  0  0
 17 18  2  0  0  0
 16  1  1  0  0  0
  1  2  1  0  0  0
  2  3  2  0  0  0
  3  4  1  0  0  0
  4  5  2  0  0  0
  5  6  1  0  0  0
  6  7  2  0  0  0
  7  8  1  0  0  0
  8  9  2  0  0  0
  9 10  1  0  0  0
 10 11  2  0  0  0
  7 25  1  0  0  0
 25 26  1  0  0  0
 25 27  1  0  0  0
 25 28  1  0  0  0
  2 19  1  0  0  0
 19 20  2  0  0  0
 20 21  1  0  0  0
 21 22  2  0  0  0
 22 23  1  0  0  0
 23 24  2  0  0  0
 18 13  1  0  0  0
 10  1  1  0  0  0
 24 19  1  0  0  0
  9  4  1  0  0  0
M  END
> <minimizedAffinity>
-2.40819

> <CNNscore>
0.7275305986

> <CNNaffinity>
6.0056524277

> <CNN_VS>
4.3692960739

> <CNNaffinity_variance>
1.2763866186

$$$$
[H]c1nc([H])c(-c2nc3c([H])c([H])c(C(F)(F)F)c([H])c3c(=O)n2-c2c([H])c([H])c(F)c([H])c2[H])c([H])c1[H]


 28 31  0  0  0  0  0  0  0  0999 V2000
  157.7288  141.4780  183.1576 N   0  0  0  0  0  0  0  0  0  0  0  0
  158.3543  141.2038  184.2806 C   0  0  0  0  0  0  0  0  0  0  0  0
  157.6962  140.2957  185.1300 N   0  0  0  0  0  0  0  0  0  0  0  0
  156.5363  139.7376  184.8476 C   0  0  0  0  0  0  0  0  0  0  0  0
  155.9584  138.8018  185.7081 C   0  0  0  0  0  0  0  0  0  0  0  0
  154.7774  138.1976  185.3611 C   0  0  0  0  0  0  0  0  0  0  0  0
  154.1176  138.4664  184.1866 C   0  0  0  0  0  0  0  0  0  0  0  0
  154.7126  139.4052  183.3578 C   0  0  0  0  0  0  0  0  0  0  0  0
  155.9243  140.0436  183.6825 C   0  0  0  0  0  0  0  0  0  0  0  0
  156.5081  140.9142  182.8255 C   0  0  0  0  0  0  0  0  0  0  0  0
  155.9814  141.2176  181.7596 O   0  0  0  0  0  0  0  0  0  0  0  0
  159.9821  144.8513  179.3242 F   0  0  0  0  0  0  0  0  0  0  0  0
  159.4168  144.0029  180.2230 C   0  0  0  0  0  0  0  0  0  0  0  0
  159.3105  142.6328  179.9723 C   0  0  0  0  0  0  0  0  0  0  0  0
  158.7271  141.8164  180.9350 C   0  0  0  0  0  0  0  0  0  0  0  0
  158.2544  142.2638  182.1009 C   0  0  0  0  0  0  0  0  0  0  0  0
  158.3626  143.6435  182.3403 C   0  0  0  0  0  0  0  0  0  0  0  0
  158.9245  144.4877  181.4399 C   0  0  0  0  0  0  0  0  0  0  0  0
  159.6845  141.5634  184.6961 C   0  0  0  0  0  0  0  0  0  0  0  0
  159.8091  142.2406  185.9319 C   0  0  0  0  0  0  0  0  0  0  0  0
  160.9794  142.7041  186.4292 C   0  0  0  0  0  0  0  0  0  0  0  0
  162.1582  142.5051  185.6839 C   0  0  0  0  0  0  0  0  0  0  0  0
  162.0342  141.8753  184.5258 N   0  0  0  0  0  0  0  0  0  0  0  0
  160.8390  141.4070  184.0181 C   0  0  0  0  0  0  0  0  0  0  0  0
  152.8488  137.8152  183.7824 C   0  0  0  0  0  0  0  0  0  0  0  0
  152.0880  137.5767  184.9293 F   0  0  0  0  0  0  0  0  0  0  0  0
  153.0910  136.6268  183.1471 F   0  0  0  0  0  0  0  0  0  0  0  0
  152.0984  138.5912  182.9080 F   0  0  0  0  0  0  0  0  0  0  0  0
 12 13  1  0  0  0
 13 14  2  0  0  0
 14 15  1  0  0  0
 15 16  2  0  0  0
 16 17  1  0  0  0
 17 18  2  0  0  0
 16  1  1  0  0  0
  1  2  1  0  0  0
  2  3  2  0  0  0
  3  4  1  0  0  0
  4  5  2  0  0  0
  5  6  1  0  0  0
  6  7  2  0  0  0
  7  8  1  0  0  0
  8  9  2  0  0  0
  9 10  1  0  0  0
 10 11  2  0  0  0
  7 25  1  0  0  0
 25 26  1  0  0  0
 25 27  1  0  0  0
 25 28  1  0  0  0
  2 19  1  0  0  0
 19 20  2  0  0  0
 20 21  1  0  0  0
 21 22  2  0  0  0
 22 23  1  0  0  0
 23 24  2  0  0  0
 18 13  1  0  0  0
 10  1  1  0  0  0
 24 19  1  0  0  0
  9  4  1  0  0  0
M  END
> <minimizedAffinity>
-10.75757

> <CNNscore>
0.5776846409

> <CNNaffinity>
6.9418382645

> <CNN_VS>
4.0101933479

> <CNNaffinity_variance>
0.1453398466

$$$$
[H]c1nc([H])c(-c2nc3c([H])c([H])c(C(F)(F)F)c([H])c3c(=O)n2-c2c([H])c([H])c(F)c([H])c2[H])c([H])c1[H]


 28 31  0  0  0  0  0  0  0  0999 V2000
  158.0871  141.2585  183.9091 N   0  0  0  0  0  0  0  0  0  0  0  0
  157.6582  141.8077  182.7948 C   0  0  0  0  0  0  0  0  0  0  0  0
  156.3754  141.4054  182.3802 N   0  0  0  0  0  0  0  0  0  0  0  0
  155.6284  140.5445  183.0416 C   0  0  0  0  0  0  0  0  0  0  0  0
  154.3404  140.2252  182.6069 C   0  0  0  0  0  0  0  0  0  0  0  0
  153.5667  139.3676  183.3459 C   0  0  0  0  0  0  0  0  0  0  0  0
  153.9974  138.7939  184.5174 C   0  0  0  0  0  0  0  0  0  0  0  0
  155.2829  139.1246  184.9179 C   0  0  0  0  0  0  0  0  0  0  0  0
  156.1036  140.0018  184.1841 C   0  0  0  0  0  0  0  0  0  0  0  0
  157.3335  140.3484  184.6317 C   0  0  0  0  0  0  0  0  0  0  0  0
  157.7988  139.8749  185.6636 O   0  0  0  0  0  0  0  0  0  0  0  0
  162.9965  142.7148  186.1291 F   0  0  0  0  0  0  0  0  0  0  0  0
  161.7849  142.3515  185.6318 C   0  0  0  0  0  0  0  0  0  0  0  0
  160.6019  142.5873  186.3363 C   0  0  0  0  0  0  0  0  0  0  0  0
  159.3932  142.1971  185.7703 C   0  0  0  0  0  0  0  0  0  0  0  0
  159.2882  141.6023  184.5795 C   0  0  0  0  0  0  0  0  0  0  0  0
  160.4844  141.3662  183.8822 C   0  0  0  0  0  0  0  0  0  0  0  0
  161.6918  141.7273  184.3827 C   0  0  0  0  0  0  0  0  0  0  0  0
  158.2324  142.8800  182.0253 C   0  0  0  0  0  0  0  0  0  0  0  0
  158.7238  142.5546  180.7393 C   0  0  0  0  0  0  0  0  0  0  0  0
  159.3508  143.4320  179.9215 C   0  0  0  0  0  0  0  0  0  0  0  0
  159.5306  144.7583  180.3615 C   0  0  0  0  0  0  0  0  0  0  0  0
  159.0731  145.0552  181.5680 N   0  0  0  0  0  0  0  0  0  0  0  0
  158.4377  144.1577  182.4025 C   0  0  0  0  0  0  0  0  0  0  0  0
  153.1745  137.8768  185.3414 C   0  0  0  0  0  0  0  0  0  0  0  0
  153.9078  136.7108  185.5734 F   0  0  0  0  0  0  0  0  0  0  0  0
  152.0092  137.5558  184.6982 F   0  0  0  0  0  0  0  0  0  0  0  0
  152.8176  138.4254  186.5667 F   0  0  0  0  0  0  0  0  0  0  0  0
 12 13  1  0  0  0
 13 14  2  0  0  0
 14 15  1  0  0  0
 15 16  2  0  0  0
 16 17  1  0  0  0
 17 18  2  0  0  0
 16  1  1  0  0  0
  1  2  1  0  0  0
  2  3  2  0  0  0
  3  4  1  0  0  0
  4  5  2  0  0  0
  5  6  1  0  0  0
  6  7  2  0  0  0
  7  8  1  0  0  0
  8  9  2  0  0  0
  9 10  1  0  0  0
 10 11  2  0  0  0
  7 25  1  0  0  0
 25 26  1  0  0  0
 25 27  1  0  0  0
 25 28  1  0  0  0
  2 19  1  0  0  0
 19 20  2  0  0  0
 20 21  1  0  0  0
 21 22  2  0  0  0
 22 23  1  0  0  0
 23 24  2  0  0  0
 18 13  1  0  0  0
 10  1  1  0  0  0
 24 19  1  0  0  0
  9  4  1  0  0  0
M  END
> <minimizedAffinity>
-9.98343

> <CNNscore>
0.5752993226

> <CNNaffinity>
6.9051351547

> <CNN_VS>
3.9725196362

> <CNNaffinity_variance>
0.1416741461

$$$$
[H]c1nc([H])c(-c2nc3c([H])c([H])c(C(F)(F)F)c([H])c3c(=O)n2-c2c([H])c([H])c(F)c([H])c2[H])c([H])c1[H]


 28 31  0  0  0  0  0  0  0  0999 V2000
  154.6684  139.6462  183.6860 N   0  0  0  0  0  0  0  0  0  0  0  0
  153.6474  138.9220  183.2853 C   0  0  0  0  0  0  0  0  0  0  0  0
  153.3644  137.7920  184.0741 N   0  0  0  0  0  0  0  0  0  0  0  0
  154.0515  137.4576  185.1476 C   0  0  0  0  0  0  0  0  0  0  0  0
  153.6883  136.3526  185.9204 C   0  0  0  0  0  0  0  0  0  0  0  0
  154.3895  136.0615  187.0622 C   0  0  0  0  0  0  0  0  0  0  0  0
  155.4520  136.8148  187.4989 C   0  0  0  0  0  0  0  0  0  0  0  0
  155.7926  137.9000  186.7061 C   0  0  0  0  0  0  0  0  0  0  0  0
  155.0942  138.2278  185.5288 C   0  0  0  0  0  0  0  0  0  0  0  0
  155.4165  139.3270  184.8070 C   0  0  0  0  0  0  0  0  0  0  0  0
  156.3575  140.0490  185.1213 O   0  0  0  0  0  0  0  0  0  0  0  0
  156.1045  144.7299  181.8844 F   0  0  0  0  0  0  0  0  0  0  0  0
  155.7669  143.4745  182.2812 C   0  0  0  0  0  0  0  0  0  0  0  0
  156.4496  142.3489  181.8141 C   0  0  0  0  0  0  0  0  0  0  0  0
  156.0597  141.0919  182.2628 C   0  0  0  0  0  0  0  0  0  0  0  0
  155.0598  140.8876  183.1238 C   0  0  0  0  0  0  0  0  0  0  0  0
  154.3777  142.0262  183.5834 C   0  0  0  0  0  0  0  0  0  0  0  0
  154.7152  143.2771  183.1830 C   0  0  0  0  0  0  0  0  0  0  0  0
  152.6761  139.2013  182.2605 C   0  0  0  0  0  0  0  0  0  0  0  0
  151.5367  138.3643  182.2119 C   0  0  0  0  0  0  0  0  0  0  0  0
  150.5685  138.4534  181.2704 C   0  0  0  0  0  0  0  0  0  0  0  0
  150.6852  139.4387  180.2701 C   0  0  0  0  0  0  0  0  0  0  0  0
  151.7564  140.2155  180.3181 N   0  0  0  0  0  0  0  0  0  0  0  0
  152.7451  140.1203  181.2768 C   0  0  0  0  0  0  0  0  0  0  0  0
  156.2153  136.5297  188.7372 C   0  0  0  0  0  0  0  0  0  0  0  0
  155.3358  136.0104  189.6902 F   0  0  0  0  0  0  0  0  0  0  0  0
  156.7907  137.6704  189.2294 F   0  0  0  0  0  0  0  0  0  0  0  0
  157.2427  135.6159  188.5398 F   0  0  0  0  0  0  0  0  0  0  0  0
 12 13  1  0  0  0
 13 14  2  0  0  0
 14 15  1  0  0  0
 15 16  2  0  0  0
 16 17  1  0  0  0
 17 18  2  0  0  0
 16  1  1  0  0  0
  1  2  1  0  0  0
  2  3  2  0  0  0
  3  4  1  0  0  0
  4  5  2  0  0  0
  5  6  1  0  0  0
  6  7  2  0  0  0
  7  8  1  0  0  0
  8  9  2  0  0  0
  9 10  1  0  0  0
 10 11  2  0  0  0
  7 25  1  0  0  0
 25 26  1  0  0  0
 25 27  1  0  0  0
 25 28  1  0  0  0
  2 19  1  0  0  0
 19 20  2  0  0  0
 20 21  1  0  0  0
 21 22  2  0  0  0
 22 23  1  0  0  0
 23 24  2  0  0  0
 18 13  1  0  0  0
 10  1  1  0  0  0
 24 19  1  0  0  0
  9  4  1  0  0  0
M  END
> <minimizedAffinity>
-7.91155

> <CNNscore>
0.4857341051

> <CNNaffinity>
5.9718670845

> <CNN_VS>
2.9007394314

> <CNNaffinity_variance>
0.0974534601

$$$$
[H]c1nc([H])c(-c2nc3c([H])c([H])c(C(F)(F)F)c([H])c3c(=O)n2-c2c([H])c([H])c(F)c([H])c2[H])c([H])c1[H]


 28 31  0  0  0  0  0  0  0  0999 V2000
  154.8574  139.3030  184.1861 N   0  0  0  0  0  0  0  0  0  0  0  0
  154.3540  139.8260  183.0905 C   0  0  0  0  0  0  0  0  0  0  0  0
  155.1696  140.7743  182.4464 N   0  0  0  0  0  0  0  0  0  0  0  0
  156.3610  141.1318  182.8816 C   0  0  0  0  0  0  0  0  0  0  0  0
  157.1461  142.0400  182.1682 C   0  0  0  0  0  0  0  0  0  0  0  0
  158.4037  142.3510  182.6176 C   0  0  0  0  0  0  0  0  0  0  0  0
  158.9469  141.8049  183.7550 C   0  0  0  0  0  0  0  0  0  0  0  0
  158.1399  140.9131  184.4447 C   0  0  0  0  0  0  0  0  0  0  0  0
  156.8452  140.5709  184.0114 C   0  0  0  0  0  0  0  0  0  0  0  0
  156.1041  139.6538  184.6770 C   0  0  0  0  0  0  0  0  0  0  0  0
  156.5099  139.1248  185.7071 O   0  0  0  0  0  0  0  0  0  0  0  0
  152.1884  135.4173  187.1743 F   0  0  0  0  0  0  0  0  0  0  0  0
  152.8740  136.3335  186.4409 C   0  0  0  0  0  0  0  0  0  0  0  0
  153.7168  135.9531  185.3939 C   0  0  0  0  0  0  0  0  0  0  0  0
  154.3860  136.9392  184.6774 C   0  0  0  0  0  0  0  0  0  0  0  0
  154.2740  138.2456  184.9291 C   0  0  0  0  0  0  0  0  0  0  0  0
  153.4273  138.6162  185.9868 C   0  0  0  0  0  0  0  0  0  0  0  0
  152.7470  137.6992  186.7184 C   0  0  0  0  0  0  0  0  0  0  0  0
  153.1695  139.4548  182.3622 C   0  0  0  0  0  0  0  0  0  0  0  0
  152.7407  140.3370  181.3428 C   0  0  0  0  0  0  0  0  0  0  0  0
  151.6127  140.1654  180.6149 C   0  0  0  0  0  0  0  0  0  0  0  0
  150.8045  139.0407  180.8731 C   0  0  0  0  0  0  0  0  0  0  0  0
  151.2085  138.2216  181.8318 N   0  0  0  0  0  0  0  0  0  0  0  0
  152.3572  138.4005  182.5761 C   0  0  0  0  0  0  0  0  0  0  0  0
  160.3089  142.1132  184.2520 C   0  0  0  0  0  0  0  0  0  0  0  0
  160.3737  141.7751  185.6058 F   0  0  0  0  0  0  0  0  0  0  0  0
  160.5918  143.4449  184.1061 F   0  0  0  0  0  0  0  0  0  0  0  0
  161.3015  141.4163  183.5746 F   0  0  0  0  0  0  0  0  0  0  0  0
 12 13  1  0  0  0
 13 14  2  0  0  0
 14 15  1  0  0  0
 15 16  2  0  0  0
 16 17  1  0  0  0
 17 18  2  0  0  0
 16  1  1  0  0  0
  1  2  1  0  0  0
  2  3  2  0  0  0
  3  4  1  0  0  0
  4  5  2  0  0  0
  5  6  1  0  0  0
  6  7  2  0  0  0
  7  8  1  0  0  0
  8  9  2  0  0  0
  9 10  1  0  0  0
 10 11  2  0  0  0
  7 25  1  0  0  0
 25 26  1  0  0  0
 25 27  1  0  0  0
 25 28  1  0  0  0
  2 19  1  0  0  0
 19 20  2  0  0  0
 20 21  1  0  0  0
 21 22  2  0  0  0
 22 23  1  0  0  0
 23 24  2  0  0  0
 18 13  1  0  0  0
 10  1  1  0  0  0
 24 19  1  0  0  0
  9  4  1  0  0  0
M  END
> <minimizedAffinity>
-8.73602

> <CNNscore>
0.3981141448

> <CNNaffinity>
6.2249131203

> <CNN_VS>
2.4782259464

> <CNNaffinity_variance>
0.1392077655

$$$$
[H]c1nc([H])c(-c2nc3c([H])c([H])c(C(F)(F)F)c([H])c3c(=O)n2-c2c([H])c([H])c(F)c([H])c2[H])c([H])c1[H]


 28 31  0  0  0  0  0  0  0  0999 V2000
  153.2237  138.5225  183.5421 N   0  0  0  0  0  0  0  0  0  0  0  0
  153.9830  139.4333  182.9752 C   0  0  0  0  0  0  0  0  0  0  0  0
  153.5328  139.9002  181.7268 N   0  0  0  0  0  0  0  0  0  0  0  0
  152.4299  139.4787  181.1415 C   0  0  0  0  0  0  0  0  0  0  0  0
  152.0073  140.0198  179.9255 C   0  0  0  0  0  0  0  0  0  0  0  0
  150.8271  139.5997  179.3680 C   0  0  0  0  0  0  0  0  0  0  0  0
  150.0183  138.6562  179.9537 C   0  0  0  0  0  0  0  0  0  0  0  0
  150.4691  138.1329  181.1558 C   0  0  0  0  0  0  0  0  0  0  0  0
  151.6747  138.5419  181.7562 C   0  0  0  0  0  0  0  0  0  0  0  0
  152.0590  138.0523  182.9586 C   0  0  0  0  0  0  0  0  0  0  0  0
  151.4001  137.1997  183.5456 O   0  0  0  0  0  0  0  0  0  0  0  0
  154.3671  136.2921  188.5290 F   0  0  0  0  0  0  0  0  0  0  0  0
  154.0488  136.8525  187.3324 C   0  0  0  0  0  0  0  0  0  0  0  0
  153.3442  138.0559  187.2501 C   0  0  0  0  0  0  0  0  0  0  0  0
  153.0544  138.5808  185.9955 C   0  0  0  0  0  0  0  0  0  0  0  0
  153.4107  138.0004  184.8470 C   0  0  0  0  0  0  0  0  0  0  0  0
  154.1148  136.7888  184.9419 C   0  0  0  0  0  0  0  0  0  0  0  0
  154.4281  136.2308  186.1375 C   0  0  0  0  0  0  0  0  0  0  0  0
  155.1136  140.1432  183.5130 C   0  0  0  0  0  0  0  0  0  0  0  0
  155.0607  141.5564  183.4745 C   0  0  0  0  0  0  0  0  0  0  0  0
  156.0681  142.3652  183.8778 C   0  0  0  0  0  0  0  0  0  0  0  0
  157.2499  141.7797  184.3732 C   0  0  0  0  0  0  0  0  0  0  0  0
  157.2952  140.4566  184.4018 N   0  0  0  0  0  0  0  0  0  0  0  0
  156.2682  139.6332  183.9860 C   0  0  0  0  0  0  0  0  0  0  0  0
  148.7314  138.1976  179.3787 C   0  0  0  0  0  0  0  0  0  0  0  0
  148.6471  136.8115  179.5305 F   0  0  0  0  0  0  0  0  0  0  0  0
  148.6520  138.5109  178.0483 F   0  0  0  0  0  0  0  0  0  0  0  0
  147.6285  138.7771  179.9932 F   0  0  0  0  0  0  0  0  0  0  0  0
 12 13  1  0  0  0
 13 14  2  0  0  0
 14 15  1  0  0  0
 15 16  2  0  0  0
 16 17  1  0  0  0
 17 18  2  0  0  0
 16  1  1  0  0  0
  1  2  1  0  0  0
  2  3  2  0  0  0
  3  4  1  0  0  0
  4  5  2  0  0  0
  5  6  1  0  0  0
  6  7  2  0  0  0
  7  8  1  0  0  0
  8  9  2  0  0  0
  9 10  1  0  0  0
 10 11  2  0  0  0
  7 25  1  0  0  0
 25 26  1  0  0  0
 25 27  1  0  0  0
 25 28  1  0  0  0
  2 19  1  0  0  0
 19 20  2  0  0  0
 20 21  1  0  0  0
 21 22  2  0  0  0
 22 23  1  0  0  0
 23 24  2  0  0  0
 18 13  1  0  0  0
 10  1  1  0  0  0
 24 19  1  0  0  0
  9  4  1  0  0  0
M  END
> <minimizedAffinity>
-8.26225

> <CNNscore>
0.3465263546

> <CNNaffinity>
5.8020539284

> <CNN_VS>
2.0105645657

> <CNNaffinity_variance>
0.0837312564

$$$$
[H]c1nc([H])c(-c2nc3c([H])c([H])c(C(F)(F)F)c([H])c3c(=O)n2-c2c([H])c([H])c(F)c([H])c2[H])c([H])c1[H]


 28 31  0  0  0  0  0  0  0  0999 V2000
  153.2740  137.3750  186.1792 N   0  0  0  0  0  0  0  0  0  0  0  0
  152.4148  136.3806  186.1554 C   0  0  0  0  0  0  0  0  0  0  0  0
  151.6212  136.2985  184.9967 N   0  0  0  0  0  0  0  0  0  0  0  0
  151.7109  137.1398  183.9864 C   0  0  0  0  0  0  0  0  0  0  0  0
  150.9318  136.9742  182.8394 C   0  0  0  0  0  0  0  0  0  0  0  0
  151.0867  137.8339  181.7825 C   0  0  0  0  0  0  0  0  0  0  0  0
  151.9874  138.8711  181.7888 C   0  0  0  0  0  0  0  0  0  0  0  0
  152.7400  139.0136  182.9445 C   0  0  0  0  0  0  0  0  0  0  0  0
  152.6073  138.1490  184.0472 C   0  0  0  0  0  0  0  0  0  0  0  0
  153.3971  138.2810  185.1390 C   0  0  0  0  0  0  0  0  0  0  0  0
  154.2208  139.1858  185.2305 O   0  0  0  0  0  0  0  0  0  0  0  0
  156.7898  138.1919  190.4364 F   0  0  0  0  0  0  0  0  0  0  0  0
  155.9704  137.9923  189.3705 C   0  0  0  0  0  0  0  0  0  0  0  0
  156.3723  137.2346  188.2679 C   0  0  0  0  0  0  0  0  0  0  0  0
  155.4850  137.0625  187.2112 C   0  0  0  0  0  0  0  0  0  0  0  0
  154.2556  137.5823  187.1812 C   0  0  0  0  0  0  0  0  0  0  0  0
  153.8639  138.3459  188.2932 C   0  0  0  0  0  0  0  0  0  0  0  0
  154.6851  138.5455  189.3537 C   0  0  0  0  0  0  0  0  0  0  0  0
  152.2789  135.2695  187.0600 C   0  0  0  0  0  0  0  0  0  0  0  0
  152.9794  134.0854  186.7308 C   0  0  0  0  0  0  0  0  0  0  0  0
  152.9025  132.9353  187.4402 C   0  0  0  0  0  0  0  0  0  0  0  0
  152.0801  132.8986  188.5836 C   0  0  0  0  0  0  0  0  0  0  0  0
  151.4232  134.0084  188.8834 N   0  0  0  0  0  0  0  0  0  0  0  0
  151.4996  135.1792  188.1562 C   0  0  0  0  0  0  0  0  0  0  0  0
  152.1839  139.8035  180.6534 C   0  0  0  0  0  0  0  0  0  0  0  0
  152.5464  139.0605  179.5275 F   0  0  0  0  0  0  0  0  0  0  0  0
  153.1713  140.7102  180.9319 F   0  0  0  0  0  0  0  0  0  0  0  0
  151.0421  140.5348  180.3514 F   0  0  0  0  0  0  0  0  0  0  0  0
 12 13  1  0  0  0
 13 14  2  0  0  0
 14 15  1  0  0  0
 15 16  2  0  0  0
 16 17  1  0  0  0
 17 18  2  0  0  0
 16  1  1  0  0  0
  1  2  1  0  0  0
  2  3  2  0  0  0
  3  4  1  0  0  0
  4  5  2  0  0  0
  5  6  1  0  0  0
  6  7  2  0  0  0
  7  8  1  0  0  0
  8  9  2  0  0  0
  9 10  1  0  0  0
 10 11  2  0  0  0
  7 25  1  0  0  0
 25 26  1  0  0  0
 25 27  1  0  0  0
 25 28  1  0  0  0
  2 19  1  0  0  0
 19 20  2  0  0  0
 20 21  1  0  0  0
 21 22  2  0  0  0
 22 23  1  0  0  0
 23 24  2  0  0  0
 18 13  1  0  0  0
 10  1  1  0  0  0
 24 19  1  0  0  0
  9  4  1  0  0  0
M  END
> <minimizedAffinity>
-6.46890

> <CNNscore>
0.3111708760

> <CNNaffinity>
5.4991130829

> <CNN_VS>
1.7111638784

> <CNNaffinity_variance>
0.0929183885

$$$$
[H]c1nc([H])c(-c2nc3c([H])c([H])c(C(F)(F)F)c([H])c3c(=O)n2-c2c([H])c([H])c(F)c([H])c2[H])c([H])c1[H]


 28 31  0  0  0  0  0  0  0  0999 V2000
  153.8461  139.0115  183.5879 N   0  0  0  0  0  0  0  0  0  0  0  0
  153.3908  139.7450  182.5969 C   0  0  0  0  0  0  0  0  0  0  0  0
  154.2201  140.8128  182.2079 N   0  0  0  0  0  0  0  0  0  0  0  0
  155.3795  141.0832  182.7729 C   0  0  0  0  0  0  0  0  0  0  0  0
  156.1828  142.1258  182.3063 C   0  0  0  0  0  0  0  0  0  0  0  0
  157.4085  142.3483  182.8793 C   0  0  0  0  0  0  0  0  0  0  0  0
  157.9019  141.5839  183.9086 C   0  0  0  0  0  0  0  0  0  0  0  0
  157.0777  140.5620  184.3542 C   0  0  0  0  0  0  0  0  0  0  0  0
  155.8146  140.3054  183.7885 C   0  0  0  0  0  0  0  0  0  0  0  0
  155.0580  139.2643  184.2090 C   0  0  0  0  0  0  0  0  0  0  0  0
  155.4194  138.5377  185.1293 O   0  0  0  0  0  0  0  0  0  0  0  0
  151.8674  134.0896  185.3231 F   0  0  0  0  0  0  0  0  0  0  0  0
  152.3100  135.3086  184.9162 C   0  0  0  0  0  0  0  0  0  0  0  0
  151.9865  136.4762  185.6115 C   0  0  0  0  0  0  0  0  0  0  0  0
  152.4755  137.6924  185.1474 C   0  0  0  0  0  0  0  0  0  0  0  0
  153.2455  137.8186  184.0640 C   0  0  0  0  0  0  0  0  0  0  0  0
  153.5608  136.6386  183.3704 C   0  0  0  0  0  0  0  0  0  0  0  0
  153.1149  135.4243  183.7774 C   0  0  0  0  0  0  0  0  0  0  0  0
  152.2539  139.5218  181.7430 C   0  0  0  0  0  0  0  0  0  0  0  0
  152.3706  139.9419  180.3972 C   0  0  0  0  0  0  0  0  0  0  0  0
  151.3710  139.8641  179.4880 C   0  0  0  0  0  0  0  0  0  0  0  0
  150.1304  139.3304  179.8893 C   0  0  0  0  0  0  0  0  0  0  0  0
  150.0261  138.9439  181.1514 N   0  0  0  0  0  0  0  0  0  0  0  0
  151.0454  139.0279  182.0785 C   0  0  0  0  0  0  0  0  0  0  0  0
  159.2294  141.7948  184.5334 C   0  0  0  0  0  0  0  0  0  0  0  0
  159.1076  141.5957  185.9107 F   0  0  0  0  0  0  0  0  0  0  0  0
  159.6822  143.0657  184.3002 F   0  0  0  0  0  0  0  0  0  0  0  0
  160.1994  140.9283  184.0458 F   0  0  0  0  0  0  0  0  0  0  0  0
 12 13  1  0  0  0
 13 14  2  0  0  0
 14 15  1  0  0  0
 15 16  2  0  0  0
 16 17  1  0  0  0
 17 18  2  0  0  0
 16  1  1  0  0  0
  1  2  1  0  0  0
  2  3  2  0  0  0
  3  4  1  0  0  0
  4  5  2  0  0  0
  5  6  1  0  0  0
  6  7  2  0  0  0
  7  8  1  0  0  0
  8  9  2  0  0  0
  9 10  1  0  0  0
 10 11  2  0  0  0
  7 25  1  0  0  0
 25 26  1  0  0  0
 25 27  1  0  0  0
 25 28  1  0  0  0
  2 19  1  0  0  0
 19 20  2  0  0  0
 20 21  1  0  0  0
 21 22  2  0  0  0
 22 23  1  0  0  0
 23 24  2  0  0  0
 18 13  1  0  0  0
 10  1  1  0  0  0
 24 19  1  0  0  0
  9  4  1  0  0  0
M  END
> <minimizedAffinity>
-8.32933

> <CNNscore>
0.3089995086

> <CNNaffinity>
5.9786429405

> <CNN_VS>
1.8473976851

> <CNNaffinity_variance>
0.1230120510

$$$$
[H]c1nc([H])c(-c2nc3c([H])c([H])c(C(F)(F)F)c([H])c3c(=O)n2-c2c([H])c([H])c(F)c([H])c2[H])c([H])c1[H]


 28 31  0  0  0  0  0  0  0  0999 V2000
  155.6880  139.2872  184.3454 N   0  0  0  0  0  0  0  0  0  0  0  0
  154.4285  139.0200  184.0815 C   0  0  0  0  0  0  0  0  0  0  0  0
  153.6863  138.4965  185.1559 N   0  0  0  0  0  0  0  0  0  0  0  0
  154.1867  138.2816  186.3559 C   0  0  0  0  0  0  0  0  0  0  0  0
  153.3848  137.8097  187.3971 C   0  0  0  0  0  0  0  0  0  0  0  0
  153.9213  137.6477  188.6486 C   0  0  0  0  0  0  0  0  0  0  0  0
  155.2328  137.9323  188.9417 C   0  0  0  0  0  0  0  0  0  0  0  0
  156.0045  138.3914  187.8854 C   0  0  0  0  0  0  0  0  0  0  0  0
  155.4860  138.5700  186.5890 C   0  0  0  0  0  0  0  0  0  0  0  0
  156.2516  139.0735  185.5923 C   0  0  0  0  0  0  0  0  0  0  0  0
  157.4355  139.3454  185.7661 O   0  0  0  0  0  0  0  0  0  0  0  0
  159.2781  142.1601  181.1816 F   0  0  0  0  0  0  0  0  0  0  0  0
  158.4020  141.4275  181.9186 C   0  0  0  0  0  0  0  0  0  0  0  0
  158.3958  140.0312  181.8764 C   0  0  0  0  0  0  0  0  0  0  0  0
  157.4782  139.3391  182.6591 C   0  0  0  0  0  0  0  0  0  0  0  0
  156.5891  139.9312  183.4601 C   0  0  0  0  0  0  0  0  0  0  0  0
  156.6015  141.3354  183.4911 C   0  0  0  0  0  0  0  0  0  0  0  0
  157.4749  142.0633  182.7521 C   0  0  0  0  0  0  0  0  0  0  0  0
  153.6540  139.3360  182.9103 C   0  0  0  0  0  0  0  0  0  0  0  0
  152.9343  138.2751  182.3121 C   0  0  0  0  0  0  0  0  0  0  0  0
  152.2149  138.3935  181.1718 C   0  0  0  0  0  0  0  0  0  0  0  0
  152.1661  139.6461  180.5287 C   0  0  0  0  0  0  0  0  0  0  0  0
  152.8460  140.6336  181.0907 N   0  0  0  0  0  0  0  0  0  0  0  0
  153.5826  140.5099  182.2515 C   0  0  0  0  0  0  0  0  0  0  0  0
  155.8315  137.7804  190.2892 C   0  0  0  0  0  0  0  0  0  0  0  0
  157.1596  138.2099  190.2352 F   0  0  0  0  0  0  0  0  0  0  0  0
  155.7968  136.4729  190.6940 F   0  0  0  0  0  0  0  0  0  0  0  0
  155.1677  138.5183  191.2612 F   0  0  0  0  0  0  0  0  0  0  0  0
 12 13  1  0  0  0
 13 14  2  0  0  0
 14 15  1  0  0  0
 15 16  2  0  0  0
 16 17  1  0  0  0
 17 18  2  0  0  0
 16  1  1  0  0  0
  1  2  1  0  0  0
  2  3  2  0  0  0
  3  4  1  0  0  0
  4  5  2  0  0  0
  5  6  1  0  0  0
  6  7  2  0  0  0
  7  8  1  0  0  0
  8  9  2  0  0  0
  9 10  1  0  0  0
 10 11  2  0  0  0
  7 25  1  0  0  0
 25 26  1  0  0  0
 25 27  1  0  0  0
 25 28  1  0  0  0
  2 19  1  0  0  0
 19 20  2  0  0  0
 20 21  1  0  0  0
 21 22  2  0  0  0
 22 23  1  0  0  0
 23 24  2  0  0  0
 18 13  1  0  0  0
 10  1  1  0  0  0
 24 19  1  0  0  0
  9  4  1  0  0  0
M  END
> <minimizedAffinity>
-8.06740

> <CNNscore>
0.2777816951

> <CNNaffinity>
6.0376138687

> <CNN_VS>
1.6771385670

> <CNNaffinity_variance>
0.1188532859

$$$$
[H]c1c([H])c([H])c(N(C(=O)OC([H])([H])[H])C([H])([H])[H])c(-c2c([H])c([H])c3c(N([H])C(=O)C([H])([H])Oc4c([H])c([H])c(Cl)c([H])c4[H])c([H])c([H])c([H])c3c2[H])c1[H]


 35 38  0  0  0  0  0  0  0  0999 V2000
  155.5822  137.8319  187.4100 C   0  0  0  0  0  0  0  0  0  0  0  0
  156.5773  138.5874  186.7931 C   0  0  0  0  0  0  0  0  0  0  0  0
  156.4093  139.1364  185.5222 C   0  0  0  0  0  0  0  0  0  0  0  0
  155.2526  138.9591  184.8150 C   0  0  0  0  0  0  0  0  0  0  0  0
  155.1100  139.5377  183.5353 C   0  0  0  0  0  0  0  0  0  0  0  0
  153.8965  139.3012  182.9242 C   0  0  0  0  0  0  0  0  0  0  0  0
  152.8802  138.5507  183.5124 C   0  0  0  0  0  0  0  0  0  0  0  0
  153.0888  138.0246  184.7471 C   0  0  0  0  0  0  0  0  0  0  0  0
  154.2775  138.2172  185.4234 C   0  0  0  0  0  0  0  0  0  0  0  0
  154.4349  137.6588  186.7047 C   0  0  0  0  0  0  0  0  0  0  0  0
  156.1312  136.0374  189.0619 C   0  0  0  0  0  0  0  0  0  0  0  0
  156.3828  135.6895  190.3859 C   0  0  0  0  0  0  0  0  0  0  0  0
  156.3645  136.6042  191.3905 C   0  0  0  0  0  0  0  0  0  0  0  0
  156.0886  137.9335  191.1157 C   0  0  0  0  0  0  0  0  0  0  0  0
  155.8466  138.2548  189.8224 C   0  0  0  0  0  0  0  0  0  0  0  0
  155.8586  137.3271  188.7579 C   0  0  0  0  0  0  0  0  0  0  0  0
  157.3555  134.6202  187.4468 C   0  0  0  0  0  0  0  0  0  0  0  0
  157.2718  133.7031  186.5534 O   0  0  0  0  0  0  0  0  0  0  0  0
  156.1692  135.0099  188.0701 N   0  0  0  0  0  0  0  0  0  0  0  0
  154.9281  134.3525  187.7543 C   0  0  0  0  0  0  0  0  0  0  0  0
  159.7155  134.2870  188.0454 C   0  0  0  0  0  0  0  0  0  0  0  0
  158.6060  135.1060  187.6814 O   0  0  0  0  0  0  0  0  0  0  0  0
  156.1944  140.2001  182.9558 N   0  0  0  0  0  0  0  0  0  0  0  0
  157.2173  140.8035  182.3871 C   0  0  0  0  0  0  0  0  0  0  0  0
  157.7911  140.3925  181.2890 O   0  0  0  0  0  0  0  0  0  0  0  0
  155.9810  139.4740  181.8132 H   0  0  0  0  0  0  0  0  0  0  0  0
  157.8685  142.0665  182.9422 C   0  0  0  0  0  0  0  0  0  0  0  0
  158.2575  141.8673  184.2287 O   0  0  0  0  0  0  0  0  0  0  0  0
  159.4376  142.0836  184.8650 C   0  0  0  0  0  0  0  0  0  0  0  0
  160.6582  142.1351  184.2531 C   0  0  0  0  0  0  0  0  0  0  0  0
  161.7933  142.3622  184.9934 C   0  0  0  0  0  0  0  0  0  0  0  0
  161.7019  142.5396  186.3583 C   0  0  0  0  0  0  0  0  0  0  0  0
  163.1524  142.8329  187.2879 Cl  0  0  0  0  0  0  0  0  0  0  0  0
  160.4894  142.4896  186.9742 C   0  0  0  0  0  0  0  0  0  0  0  0
  159.3428  142.2647  186.2564 C   0  0  0  0  0  0  0  0  0  0  0  0
 21 22  1  0  0  0
 22 17  1  0  0  0
 17 18  2  0  0  0
 17 19  1  0  0  0
 19 20  1  0  0  0
 19 11  1  0  0  0
 11 12  2  0  0  0
 12 13  1  0  0  0
 13 14  2  0  0  0
 14 15  1  0  0  0
 15 16  2  0  0  0
 16  1  1  0  0  0
  1  2  2  0  0  0
  2  3  1  0  0  0
  3  4  2  0  0  0
  4  5  1  0  0  0
  5 23  1  0  0  0
 23 24  1  0  0  0
 24 25  2  0  0  0
 24 27  1  0  0  0
 27 28  1  0  0  0
 28 29  1  0  0  0
 29 30  2  0  0  0
 30 31  1  0  0  0
 31 32  2  0  0  0
 32 33  1  0  0  0
 32 34  1  0  0  0
 34 35  2  0  0  0
  5  6  2  0  0  0
  6  7  1  0  0  0
  7  8  2  0  0  0
  8  9  1  0  0  0
  9 10  2  0  0  0
 16 11  1  0  0  0
 10  1  1  0  0  0
  9  4  1  0  0  0
 35 29  1  0  0  0
 23 26  1  0  0  0
M  END
> <minimizedAffinity>
-9.73815

> <CNNscore>
0.7355626225

> <CNNaffinity>
6.8374109268

> <CNN_VS>
5.0293440819

> <CNNaffinity_variance>
0.0357687660

$$$$
[H]c1c([H])c([H])c(N(C(=O)OC([H])([H])[H])C([H])([H])[H])c(-c2c([H])c([H])c3c(N([H])C(=O)C([H])([H])Oc4c([H])c([H])c(Cl)c([H])c4[H])c([H])c([H])c([H])c3c2[H])c1[H]


 35 38  0  0  0  0  0  0  0  0999 V2000
  157.4812  141.5100  184.4776 C   0  0  0  0  0  0  0  0  0  0  0  0
  157.2635  140.1588  184.7390 C   0  0  0  0  0  0  0  0  0  0  0  0
  156.1174  139.4953  184.3018 C   0  0  0  0  0  0  0  0  0  0  0  0
  155.1455  140.1424  183.5904 C   0  0  0  0  0  0  0  0  0  0  0  0
  154.0024  139.4391  183.1526 C   0  0  0  0  0  0  0  0  0  0  0  0
  153.0978  140.1928  182.4346 C   0  0  0  0  0  0  0  0  0  0  0  0
  153.2843  141.5453  182.1552 C   0  0  0  0  0  0  0  0  0  0  0  0
  154.4094  142.1561  182.6090 C   0  0  0  0  0  0  0  0  0  0  0  0
  155.3622  141.4688  183.3351 C   0  0  0  0  0  0  0  0  0  0  0  0
  156.5139  142.1487  183.7704 C   0  0  0  0  0  0  0  0  0  0  0  0
  159.5855  142.8340  184.2141 C   0  0  0  0  0  0  0  0  0  0  0  0
  160.7424  143.3397  184.7999 C   0  0  0  0  0  0  0  0  0  0  0  0
  161.0494  143.1176  186.1048 C   0  0  0  0  0  0  0  0  0  0  0  0
  160.2006  142.3661  186.9007 C   0  0  0  0  0  0  0  0  0  0  0  0
  159.0793  141.8822  186.3151 C   0  0  0  0  0  0  0  0  0  0  0  0
  158.7339  142.0961  184.9627 C   0  0  0  0  0  0  0  0  0  0  0  0
  159.3521  142.1176  181.8586 C   0  0  0  0  0  0  0  0  0  0  0  0
  159.1454  142.4845  180.6466 O   0  0  0  0  0  0  0  0  0  0  0  0
  159.3433  143.1152  182.8345 N   0  0  0  0  0  0  0  0  0  0  0  0
  159.0490  144.4794  182.4818 C   0  0  0  0  0  0  0  0  0  0  0  0
  158.6839  139.7737  181.5446 C   0  0  0  0  0  0  0  0  0  0  0  0
  159.5560  140.7843  182.0471 O   0  0  0  0  0  0  0  0  0  0  0  0
  153.8228  138.1096  183.5411 N   0  0  0  0  0  0  0  0  0  0  0  0
  153.6485  136.8488  183.8779 C   0  0  0  0  0  0  0  0  0  0  0  0
  153.3804  135.8948  183.0282 O   0  0  0  0  0  0  0  0  0  0  0  0
  153.9492  137.7461  182.2257 H   0  0  0  0  0  0  0  0  0  0  0  0
  153.7359  136.3376  185.3126 C   0  0  0  0  0  0  0  0  0  0  0  0
  154.8013  136.8951  185.9453 O   0  0  0  0  0  0  0  0  0  0  0  0
  154.9583  137.3822  187.2032 C   0  0  0  0  0  0  0  0  0  0  0  0
  156.0896  137.2496  187.9579 C   0  0  0  0  0  0  0  0  0  0  0  0
  156.1432  137.7839  189.2226 C   0  0  0  0  0  0  0  0  0  0  0  0
  155.0529  138.4573  189.7331 C   0  0  0  0  0  0  0  0  0  0  0  0
  155.1355  139.1368  191.3410 Cl  0  0  0  0  0  0  0  0  0  0  0  0
  153.9230  138.5931  188.9870 C   0  0  0  0  0  0  0  0  0  0  0  0
  153.8460  138.0687  187.7222 C   0  0  0  0  0  0  0  0  0  0  0  0
 21 22  1  0  0  0
 22 17  1  0  0  0
 17 18  2  0  0  0
 17 19  1  0  0  0
 19 20  1  0  0  0
 19 11  1  0  0  0
 11 12  2  0  0  0
 12 13  1  0  0  0
 13 14  2  0  0  0
 14 15  1  0  0  0
 15 16  2  0  0  0
 16  1  1  0  0  0
  1  2  2  0  0  0
  2  3  1  0  0  0
  3  4  2  0  0  0
  4  5  1  0  0  0
  5 23  1  0  0  0
 23 24  1  0  0  0
 24 25  2  0  0  0
 24 27  1  0  0  0
 27 28  1  0  0  0
 28 29  1  0  0  0
 29 30  2  0  0  0
 30 31  1  0  0  0
 31 32  2  0  0  0
 32 33  1  0  0  0
 32 34  1  0  0  0
 34 35  2  0  0  0
  5  6  2  0  0  0
  6  7  1  0  0  0
  7  8  2  0  0  0
  8  9  1  0  0  0
  9 10  2  0  0  0
 16 11  1  0  0  0
 10  1  1  0  0  0
  9  4  1  0  0  0
 35 29  1  0  0  0
 23 26  1  0  0  0
M  END
> <minimizedAffinity>
-11.01869

> <CNNscore>
0.6388022304

> <CNNaffinity>
6.8788576126

> <CNN_VS>
4.3942294121

> <CNNaffinity_variance>
0.2046303302

$$$$
[H]c1c([H])c([H])c(N(C(=O)OC([H])([H])[H])C([H])([H])[H])c(-c2c([H])c([H])c3c(N([H])C(=O)C([H])([H])Oc4c([H])c([H])c(Cl)c([H])c4[H])c([H])c([H])c([H])c3c2[H])c1[H]


 35 38  0  0  0  0  0  0  0  0999 V2000
  155.5755  141.8195  182.7358 C   0  0  0  0  0  0  0  0  0  0  0  0
  155.6048  141.0421  183.8918 C   0  0  0  0  0  0  0  0  0  0  0  0
  154.6812  140.0230  184.1224 C   0  0  0  0  0  0  0  0  0  0  0  0
  153.6958  139.7348  183.2193 C   0  0  0  0  0  0  0  0  0  0  0  0
  152.7833  138.6891  183.4776 C   0  0  0  0  0  0  0  0  0  0  0  0
  151.8426  138.4836  182.4903 C   0  0  0  0  0  0  0  0  0  0  0  0
  151.7850  139.2419  181.3226 C   0  0  0  0  0  0  0  0  0  0  0  0
  152.6968  140.2323  181.1423 C   0  0  0  0  0  0  0  0  0  0  0  0
  153.6699  140.4994  182.0853 C   0  0  0  0  0  0  0  0  0  0  0  0
  154.5959  141.5296  181.8414 C   0  0  0  0  0  0  0  0  0  0  0  0
  157.9419  142.6009  182.5361 C   0  0  0  0  0  0  0  0  0  0  0  0
  158.8235  143.6674  182.3863 C   0  0  0  0  0  0  0  0  0  0  0  0
  158.3943  144.9530  182.2894 C   0  0  0  0  0  0  0  0  0  0  0  0
  157.0400  145.2396  182.3388 C   0  0  0  0  0  0  0  0  0  0  0  0
  156.1962  144.1902  182.4843 C   0  0  0  0  0  0  0  0  0  0  0  0
  156.6123  142.8448  182.5876 C   0  0  0  0  0  0  0  0  0  0  0  0
  158.4321  140.3777  181.5699 C   0  0  0  0  0  0  0  0  0  0  0  0
  158.9261  139.2110  181.7724 O   0  0  0  0  0  0  0  0  0  0  0  0
  158.4813  141.2815  182.6322 N   0  0  0  0  0  0  0  0  0  0  0  0
  159.1209  140.9195  183.8700 C   0  0  0  0  0  0  0  0  0  0  0  0
  158.2723  141.7055  179.5083 C   0  0  0  0  0  0  0  0  0  0  0  0
  157.9154  140.5948  180.3286 O   0  0  0  0  0  0  0  0  0  0  0  0
  152.8292  138.0244  184.7051 N   0  0  0  0  0  0  0  0  0  0  0  0
  152.8818  137.3723  185.8478 C   0  0  0  0  0  0  0  0  0  0  0  0
  153.2404  136.1223  185.9610 O   0  0  0  0  0  0  0  0  0  0  0  0
  153.5600  137.0349  184.1009 H   0  0  0  0  0  0  0  0  0  0  0  0
  152.5265  137.9962  187.1938 C   0  0  0  0  0  0  0  0  0  0  0  0
  153.6556  138.3728  187.8491 O   0  0  0  0  0  0  0  0  0  0  0  0
  154.2959  137.8536  188.9282 C   0  0  0  0  0  0  0  0  0  0  0  0
  153.6920  137.1520  189.9333 C   0  0  0  0  0  0  0  0  0  0  0  0
  154.4363  136.6677  190.9820 C   0  0  0  0  0  0  0  0  0  0  0  0
  155.7973  136.8889  191.0212 C   0  0  0  0  0  0  0  0  0  0  0  0
  156.7335  136.2632  192.3576 Cl  0  0  0  0  0  0  0  0  0  0  0  0
  156.4052  137.5868  190.0235 C   0  0  0  0  0  0  0  0  0  0  0  0
  155.6834  138.0796  188.9667 C   0  0  0  0  0  0  0  0  0  0  0  0
 21 22  1  0  0  0
 22 17  1  0  0  0
 17 18  2  0  0  0
 17 19  1  0  0  0
 19 20  1  0  0  0
 19 11  1  0  0  0
 11 12  2  0  0  0
 12 13  1  0  0  0
 13 14  2  0  0  0
 14 15  1  0  0  0
 15 16  2  0  0  0
 16  1  1  0  0  0
  1  2  2  0  0  0
  2  3  1  0  0  0
  3  4  2  0  0  0
  4  5  1  0  0  0
  5 23  1  0  0  0
 23 24  1  0  0  0
 24 25  2  0  0  0
 24 27  1  0  0  0
 27 28  1  0  0  0
 28 29  1  0  0  0
 29 30  2  0  0  0
 30 31  1  0  0  0
 31 32  2  0  0  0
 32 33  1  0  0  0
 32 34  1  0  0  0
 34 35  2  0  0  0
  5  6  2  0  0  0
  6  7  1  0  0  0
  7  8  2  0  0  0
  8  9  1  0  0  0
  9 10  2  0  0  0
 16 11  1  0  0  0
 10  1  1  0  0  0
  9  4  1  0  0  0
 35 29  1  0  0  0
 23 26  1  0  0  0
M  END
> <minimizedAffinity>
-9.45915

> <CNNscore>
0.6317656040

> <CNNaffinity>
6.4968423843

> <CNN_VS>
4.1044816971

> <CNNaffinity_variance>
0.1240641847

$$$$
[H]c1c([H])c([H])c(N(C(=O)OC([H])([H])[H])C([H])([H])[H])c(-c2c([H])c([H])c3c(N([H])C(=O)C([H])([H])Oc4c([H])c([H])c(Cl)c([H])c4[H])c([H])c([H])c([H])c3c2[H])c1[H]


 35 38  0  0  0  0  0  0  0  0999 V2000
  155.4068  141.4944  182.6146 C   0  0  0  0  0  0  0  0  0  0  0  0
  155.5348  140.5040  183.5862 C   0  0  0  0  0  0  0  0  0  0  0  0
  154.5983  139.4804  183.7279 C   0  0  0  0  0  0  0  0  0  0  0  0
  153.5021  139.3980  182.9148 C   0  0  0  0  0  0  0  0  0  0  0  0
  152.5786  138.3427  183.0770 C   0  0  0  0  0  0  0  0  0  0  0  0
  151.5208  138.3570  182.1922 C   0  0  0  0  0  0  0  0  0  0  0  0
  151.3626  139.3318  181.2091 C   0  0  0  0  0  0  0  0  0  0  0  0
  152.2919  140.3176  181.1122 C   0  0  0  0  0  0  0  0  0  0  0  0
  153.3795  140.3716  181.9617 C   0  0  0  0  0  0  0  0  0  0  0  0
  154.3173  141.4086  181.8088 C   0  0  0  0  0  0  0  0  0  0  0  0
  157.7900  142.2495  182.6413 C   0  0  0  0  0  0  0  0  0  0  0  0
  158.6951  143.3027  182.5472 C   0  0  0  0  0  0  0  0  0  0  0  0
  158.2938  144.5869  182.3564 C   0  0  0  0  0  0  0  0  0  0  0  0
  156.9455  144.8854  182.2491 C   0  0  0  0  0  0  0  0  0  0  0  0
  156.0787  143.8489  182.3423 C   0  0  0  0  0  0  0  0  0  0  0  0
  156.4655  142.5053  182.5403 C   0  0  0  0  0  0  0  0  0  0  0  0
  158.6126  140.4403  184.1132 C   0  0  0  0  0  0  0  0  0  0  0  0
  159.0865  139.2498  184.1788 O   0  0  0  0  0  0  0  0  0  0  0  0
  158.3005  140.9307  182.8445 N   0  0  0  0  0  0  0  0  0  0  0  0
  158.4515  140.0961  181.6814 C   0  0  0  0  0  0  0  0  0  0  0  0
  159.5078  141.8452  185.9199 C   0  0  0  0  0  0  0  0  0  0  0  0
  158.4690  141.0870  185.3032 O   0  0  0  0  0  0  0  0  0  0  0  0
  152.7366  137.4481  184.1379 N   0  0  0  0  0  0  0  0  0  0  0  0
  152.8552  136.6063  185.1433 C   0  0  0  0  0  0  0  0  0  0  0  0
  151.8556  136.1954  185.8754 O   0  0  0  0  0  0  0  0  0  0  0  0
  151.3793  137.2579  184.1321 H   0  0  0  0  0  0  0  0  0  0  0  0
  154.1836  136.0007  185.5860 C   0  0  0  0  0  0  0  0  0  0  0  0
  154.9793  136.9599  186.1272 O   0  0  0  0  0  0  0  0  0  0  0  0
  155.0864  137.4451  187.3911 C   0  0  0  0  0  0  0  0  0  0  0  0
  156.1560  137.2456  188.2176 C   0  0  0  0  0  0  0  0  0  0  0  0
  156.1628  137.7846  189.4815 C   0  0  0  0  0  0  0  0  0  0  0  0
  155.0876  138.5302  189.9185 C   0  0  0  0  0  0  0  0  0  0  0  0
  155.1106  139.2148  191.5263 Cl  0  0  0  0  0  0  0  0  0  0  0  0
  154.0191  138.7329  189.1006 C   0  0  0  0  0  0  0  0  0  0  0  0
  153.9897  138.2053  187.8351 C   0  0  0  0  0  0  0  0  0  0  0  0
 21 22  1  0  0  0
 22 17  1  0  0  0
 17 18  2  0  0  0
 17 19  1  0  0  0
 19 20  1  0  0  0
 19 11  1  0  0  0
 11 12  2  0  0  0
 12 13  1  0  0  0
 13 14  2  0  0  0
 14 15  1  0  0  0
 15 16  2  0  0  0
 16  1  1  0  0  0
  1  2  2  0  0  0
  2  3  1  0  0  0
  3  4  2  0  0  0
  4  5  1  0  0  0
  5 23  1  0  0  0
 23 24  1  0  0  0
 24 25  2  0  0  0
 24 27  1  0  0  0
 27 28  1  0  0  0
 28 29  1  0  0  0
 29 30  2  0  0  0
 30 31  1  0  0  0
 31 32  2  0  0  0
 32 33  1  0  0  0
 32 34  1  0  0  0
 34 35  2  0  0  0
  5  6  2  0  0  0
  6  7  1  0  0  0
  7  8  2  0  0  0
  8  9  1  0  0  0
  9 10  2  0  0  0
 16 11  1  0  0  0
 10  1  1  0  0  0
  9  4  1  0  0  0
 35 29  1  0  0  0
 23 26  1  0  0  0
M  END
> <minimizedAffinity>
-10.01806

> <CNNscore>
0.6100271344

> <CNNaffinity>
6.5479340553

> <CNN_VS>
3.9944174290

> <CNNaffinity_variance>
0.3111710846

$$$$
[H]c1c([H])c([H])c(N(C(=O)OC([H])([H])[H])C([H])([H])[H])c(-c2c([H])c([H])c3c(N([H])C(=O)C([H])([H])Oc4c([H])c([H])c(Cl)c([H])c4[H])c([H])c([H])c([H])c3c2[H])c1[H]


 35 38  0  0  0  0  0  0  0  0999 V2000
  155.5868  141.5811  182.6820 C   0  0  0  0  0  0  0  0  0  0  0  0
  155.7223  140.6507  183.7103 C   0  0  0  0  0  0  0  0  0  0  0  0
  154.7921  139.6319  183.9143 C   0  0  0  0  0  0  0  0  0  0  0  0
  153.6950  139.4952  183.1098 C   0  0  0  0  0  0  0  0  0  0  0  0
  152.7780  138.4460  183.3362 C   0  0  0  0  0  0  0  0  0  0  0  0
  151.7185  138.4019  182.4544 C   0  0  0  0  0  0  0  0  0  0  0  0
  151.5528  139.3158  181.4156 C   0  0  0  0  0  0  0  0  0  0  0  0
  152.4761  140.2995  181.2585 C   0  0  0  0  0  0  0  0  0  0  0  0
  153.5649  140.4100  182.1011 C   0  0  0  0  0  0  0  0  0  0  0  0
  154.4963  141.4415  181.8851 C   0  0  0  0  0  0  0  0  0  0  0  0
  157.9675  142.3380  182.5845 C   0  0  0  0  0  0  0  0  0  0  0  0
  158.8657  143.3909  182.4355 C   0  0  0  0  0  0  0  0  0  0  0  0
  158.4540  144.6727  182.2516 C   0  0  0  0  0  0  0  0  0  0  0  0
  157.1017  144.9692  182.2073 C   0  0  0  0  0  0  0  0  0  0  0  0
  156.2417  143.9331  182.3534 C   0  0  0  0  0  0  0  0  0  0  0  0
  156.6394  142.5919  182.5458 C   0  0  0  0  0  0  0  0  0  0  0  0
  158.8692  140.5467  184.0317 C   0  0  0  0  0  0  0  0  0  0  0  0
  159.3466  139.3570  184.0861 O   0  0  0  0  0  0  0  0  0  0  0  0
  158.4889  141.0217  182.7757 N   0  0  0  0  0  0  0  0  0  0  0  0
  158.5774  140.1731  181.6164 C   0  0  0  0  0  0  0  0  0  0  0  0
  159.8598  141.9730  185.7704 C   0  0  0  0  0  0  0  0  0  0  0  0
  158.7896  141.2077  185.2198 O   0  0  0  0  0  0  0  0  0  0  0  0
  152.9431  137.6168  184.4479 N   0  0  0  0  0  0  0  0  0  0  0  0
  153.0726  136.8206  185.4885 C   0  0  0  0  0  0  0  0  0  0  0  0
  152.2248  135.8776  185.7983 O   0  0  0  0  0  0  0  0  0  0  0  0
  151.9910  136.7830  183.9219 H   0  0  0  0  0  0  0  0  0  0  0  0
  154.2353  136.8993  186.4731 C   0  0  0  0  0  0  0  0  0  0  0  0
  153.9306  137.7443  187.4925 O   0  0  0  0  0  0  0  0  0  0  0  0
  153.7219  137.5317  188.8174 C   0  0  0  0  0  0  0  0  0  0  0  0
  154.4887  138.0494  189.8230 C   0  0  0  0  0  0  0  0  0  0  0  0
  154.1877  137.7716  191.1346 C   0  0  0  0  0  0  0  0  0  0  0  0
  153.1081  136.9686  191.4387 C   0  0  0  0  0  0  0  0  0  0  0  0
  152.7326  136.6270  193.1110 Cl  0  0  0  0  0  0  0  0  0  0  0  0
  152.3402  136.4497  190.4422 C   0  0  0  0  0  0  0  0  0  0  0  0
  152.6208  136.7132  189.1260 C   0  0  0  0  0  0  0  0  0  0  0  0
 21 22  1  0  0  0
 22 17  1  0  0  0
 17 18  2  0  0  0
 17 19  1  0  0  0
 19 20  1  0  0  0
 19 11  1  0  0  0
 11 12  2  0  0  0
 12 13  1  0  0  0
 13 14  2  0  0  0
 14 15  1  0  0  0
 15 16  2  0  0  0
 16  1  1  0  0  0
  1  2  2  0  0  0
  2  3  1  0  0  0
  3  4  2  0  0  0
  4  5  1  0  0  0
  5 23  1  0  0  0
 23 24  1  0  0  0
 24 25  2  0  0  0
 24 27  1  0  0  0
 27 28  1  0  0  0
 28 29  1  0  0  0
 29 30  2  0  0  0
 30 31  1  0  0  0
 31 32  2  0  0  0
 32 33  1  0  0  0
 32 34  1  0  0  0
 34 35  2  0  0  0
  5  6  2  0  0  0
  6  7  1  0  0  0
  7  8  2  0  0  0
  8  9  1  0  0  0
  9 10  2  0  0  0
 16 11  1  0  0  0
 10  1  1  0  0  0
  9  4  1  0  0  0
 35 29  1  0  0  0
 23 26  1  0  0  0
M  END
> <minimizedAffinity>
-9.61228

> <CNNscore>
0.5536941886

> <CNNaffinity>
6.3363838196

> <CNN_VS>
3.5084187984

> <CNNaffinity_variance>
0.1191365495

$$$$
[H]c1c([H])c([H])c(N(C(=O)OC([H])([H])[H])C([H])([H])[H])c(-c2c([H])c([H])c3c(N([H])C(=O)C([H])([H])Oc4c([H])c([H])c(Cl)c([H])c4[H])c([H])c([H])c([H])c3c2[H])c1[H]


 35 38  0  0  0  0  0  0  0  0999 V2000
  157.5354  141.5047  184.5091 C   0  0  0  0  0  0  0  0  0  0  0  0
  157.3116  140.1781  184.8717 C   0  0  0  0  0  0  0  0  0  0  0  0
  156.1658  139.4866  184.4794 C   0  0  0  0  0  0  0  0  0  0  0  0
  155.2002  140.0803  183.7148 C   0  0  0  0  0  0  0  0  0  0  0  0
  154.0573  139.3490  183.3251 C   0  0  0  0  0  0  0  0  0  0  0  0
  153.1595  140.0483  182.5460 C   0  0  0  0  0  0  0  0  0  0  0  0
  153.3523  141.3749  182.1653 C   0  0  0  0  0  0  0  0  0  0  0  0
  154.4768  142.0153  182.5779 C   0  0  0  0  0  0  0  0  0  0  0  0
  155.4230  141.3826  183.3602 C   0  0  0  0  0  0  0  0  0  0  0  0
  156.5744  142.0904  183.7493 C   0  0  0  0  0  0  0  0  0  0  0  0
  159.6070  142.8640  184.1758 C   0  0  0  0  0  0  0  0  0  0  0  0
  160.7670  143.4012  184.7265 C   0  0  0  0  0  0  0  0  0  0  0  0
  161.1079  143.2065  186.0273 C   0  0  0  0  0  0  0  0  0  0  0  0
  160.2923  142.4522  186.8546 C   0  0  0  0  0  0  0  0  0  0  0  0
  159.1675  141.9375  186.3029 C   0  0  0  0  0  0  0  0  0  0  0  0
  158.7872  142.1225  184.9556 C   0  0  0  0  0  0  0  0  0  0  0  0
  159.3307  142.1040  181.8386 C   0  0  0  0  0  0  0  0  0  0  0  0
  159.0896  142.4469  180.6259 O   0  0  0  0  0  0  0  0  0  0  0  0
  159.3280  143.1178  182.7978 N   0  0  0  0  0  0  0  0  0  0  0  0
  159.0028  144.4708  182.4296 C   0  0  0  0  0  0  0  0  0  0  0  0
  158.6693  139.7471  181.6236 C   0  0  0  0  0  0  0  0  0  0  0  0
  159.5611  140.7776  182.0443 O   0  0  0  0  0  0  0  0  0  0  0  0
  153.8709  138.0536  183.8129 N   0  0  0  0  0  0  0  0  0  0  0  0
  153.7058  136.8213  184.2461 C   0  0  0  0  0  0  0  0  0  0  0  0
  153.9921  135.7559  183.5483 O   0  0  0  0  0  0  0  0  0  0  0  0
  154.6542  137.5934  182.7867 H   0  0  0  0  0  0  0  0  0  0  0  0
  153.1539  136.4777  185.6262 C   0  0  0  0  0  0  0  0  0  0  0  0
  154.0597  136.7980  186.5869 O   0  0  0  0  0  0  0  0  0  0  0  0
  155.1326  136.1296  187.0831 C   0  0  0  0  0  0  0  0  0  0  0  0
  155.4704  134.8448  186.7631 C   0  0  0  0  0  0  0  0  0  0  0  0
  156.5815  134.2623  187.3236 C   0  0  0  0  0  0  0  0  0  0  0  0
  157.3599  134.9755  188.2114 C   0  0  0  0  0  0  0  0  0  0  0  0
  158.7735  134.2252  188.9133 Cl  0  0  0  0  0  0  0  0  0  0  0  0
  157.0293  136.2555  188.5346 C   0  0  0  0  0  0  0  0  0  0  0  0
  155.9254  136.8581  187.9879 C   0  0  0  0  0  0  0  0  0  0  0  0
 21 22  1  0  0  0
 22 17  1  0  0  0
 17 18  2  0  0  0
 17 19  1  0  0  0
 19 20  1  0  0  0
 19 11  1  0  0  0
 11 12  2  0  0  0
 12 13  1  0  0  0
 13 14  2  0  0  0
 14 15  1  0  0  0
 15 16  2  0  0  0
 16  1  1  0  0  0
  1  2  2  0  0  0
  2  3  1  0  0  0
  3  4  2  0  0  0
  4  5  1  0  0  0
  5 23  1  0  0  0
 23 24  1  0  0  0
 24 25  2  0  0  0
 24 27  1  0  0  0
 27 28  1  0  0  0
 28 29  1  0  0  0
 29 30  2  0  0  0
 30 31  1  0  0  0
 31 32  2  0  0  0
 32 33  1  0  0  0
 32 34  1  0  0  0
 34 35  2  0  0  0
  5  6  2  0  0  0
  6  7  1  0  0  0
  7  8  2  0  0  0
  8  9  1  0  0  0
  9 10  2  0  0  0
 16 11  1  0  0  0
 10  1  1  0  0  0
  9  4  1  0  0  0
 35 29  1  0  0  0
 23 26  1  0  0  0
M  END
> <minimizedAffinity>
-10.01822

> <CNNscore>
0.5144904256

> <CNNaffinity>
6.6620802879

> <CNN_VS>
3.4275765419

> <CNNaffinity_variance>
0.1550996900

$$$$
[H]c1c([H])c([H])c(N(C(=O)OC([H])([H])[H])C([H])([H])[H])c(-c2c([H])c([H])c3c(N([H])C(=O)C([H])([H])Oc4c([H])c([H])c(Cl)c([H])c4[H])c([H])c([H])c([H])c3c2[H])c1[H]


 35 38  0  0  0  0  0  0  0  0999 V2000
  156.2886  134.8531  188.2762 C   0  0  0  0  0  0  0  0  0  0  0  0
  155.4150  134.0633  187.5314 C   0  0  0  0  0  0  0  0  0  0  0  0
  154.5997  134.5987  186.5347 C   0  0  0  0  0  0  0  0  0  0  0  0
  154.6180  135.9333  186.2376 C   0  0  0  0  0  0  0  0  0  0  0  0
  153.7883  136.4419  185.2150 C   0  0  0  0  0  0  0  0  0  0  0  0
  153.9021  137.7989  184.9974 C   0  0  0  0  0  0  0  0  0  0  0  0
  154.7651  138.6176  185.7233 C   0  0  0  0  0  0  0  0  0  0  0  0
  155.5341  138.0577  186.6929 C   0  0  0  0  0  0  0  0  0  0  0  0
  155.4769  136.7059  186.9702 C   0  0  0  0  0  0  0  0  0  0  0  0
  156.3042  136.1777  187.9775 C   0  0  0  0  0  0  0  0  0  0  0  0
  156.7871  134.0273  190.5826 C   0  0  0  0  0  0  0  0  0  0  0  0
  157.6630  133.3583  191.4326 C   0  0  0  0  0  0  0  0  0  0  0  0
  158.8451  132.8482  190.9980 C   0  0  0  0  0  0  0  0  0  0  0  0
  159.2153  132.9850  189.6703 C   0  0  0  0  0  0  0  0  0  0  0  0
  158.3513  133.6380  188.8570 C   0  0  0  0  0  0  0  0  0  0  0  0
  157.1170  134.1784  189.2794 C   0  0  0  0  0  0  0  0  0  0  0  0
  155.4428  135.8452  191.5847 C   0  0  0  0  0  0  0  0  0  0  0  0
  154.3076  136.1881  192.0747 O   0  0  0  0  0  0  0  0  0  0  0  0
  155.5663  134.5331  191.1257 N   0  0  0  0  0  0  0  0  0  0  0  0
  154.4370  133.6410  191.1516 C   0  0  0  0  0  0  0  0  0  0  0  0
  156.2047  138.1072  190.9998 C   0  0  0  0  0  0  0  0  0  0  0  0
  156.3991  136.8149  191.5711 O   0  0  0  0  0  0  0  0  0  0  0  0
  152.8757  135.5931  184.5845 N   0  0  0  0  0  0  0  0  0  0  0  0
  152.0335  134.7690  183.9969 C   0  0  0  0  0  0  0  0  0  0  0  0
  152.2095  133.4782  183.9154 O   0  0  0  0  0  0  0  0  0  0  0  0
  153.5027  134.5324  185.1847 H   0  0  0  0  0  0  0  0  0  0  0  0
  150.7372  135.2192  183.3303 C   0  0  0  0  0  0  0  0  0  0  0  0
  150.6599  136.5757  183.3228 O   0  0  0  0  0  0  0  0  0  0  0  0
  150.7777  137.4870  182.3228 C   0  0  0  0  0  0  0  0  0  0  0  0
  151.6705  138.5212  182.3082 C   0  0  0  0  0  0  0  0  0  0  0  0
  151.7070  139.3877  181.2424 C   0  0  0  0  0  0  0  0  0  0  0  0
  150.8408  139.2139  180.1830 C   0  0  0  0  0  0  0  0  0  0  0  0
  150.9006  140.3197  178.8311 Cl  0  0  0  0  0  0  0  0  0  0  0  0
  149.9490  138.1861  180.1910 C   0  0  0  0  0  0  0  0  0  0  0  0
  149.8942  137.3084  181.2433 C   0  0  0  0  0  0  0  0  0  0  0  0
 21 22  1  0  0  0
 22 17  1  0  0  0
 17 18  2  0  0  0
 17 19  1  0  0  0
 19 20  1  0  0  0
 19 11  1  0  0  0
 11 12  2  0  0  0
 12 13  1  0  0  0
 13 14  2  0  0  0
 14 15  1  0  0  0
 15 16  2  0  0  0
 16  1  1  0  0  0
  1  2  2  0  0  0
  2  3  1  0  0  0
  3  4  2  0  0  0
  4  5  1  0  0  0
  5 23  1  0  0  0
 23 24  1  0  0  0
 24 25  2  0  0  0
 24 27  1  0  0  0
 27 28  1  0  0  0
 28 29  1  0  0  0
 29 30  2  0  0  0
 30 31  1  0  0  0
 31 32  2  0  0  0
 32 33  1  0  0  0
 32 34  1  0  0  0
 34 35  2  0  0  0
  5  6  2  0  0  0
  6  7  1  0  0  0
  7  8  2  0  0  0
  8  9  1  0  0  0
  9 10  2  0  0  0
 16 11  1  0  0  0
 10  1  1  0  0  0
  9  4  1  0  0  0
 35 29  1  0  0  0
 23 26  1  0  0  0
M  END
> <minimizedAffinity>
-6.35375

> <CNNscore>
0.4777621627

> <CNNaffinity>
5.6047916412

> <CNN_VS>
2.6777572632

> <CNNaffinity_variance>
0.1853629053

$$$$
[H]c1c([H])c([H])c(N(C(=O)OC([H])([H])[H])C([H])([H])[H])c(-c2c([H])c([H])c3c(N([H])C(=O)C([H])([H])Oc4c([H])c([H])c(Cl)c([H])c4[H])c([H])c([H])c([H])c3c2[H])c1[H]


 35 38  0  0  0  0  0  0  0  0999 V2000
  155.5436  141.5109  182.7450 C   0  0  0  0  0  0  0  0  0  0  0  0
  155.6676  140.6402  183.8258 C   0  0  0  0  0  0  0  0  0  0  0  0
  154.7470  139.6202  184.0642 C   0  0  0  0  0  0  0  0  0  0  0  0
  153.6711  139.4233  183.2437 C   0  0  0  0  0  0  0  0  0  0  0  0
  152.7636  138.3743  183.5064 C   0  0  0  0  0  0  0  0  0  0  0  0
  151.7260  138.2660  182.6044 C   0  0  0  0  0  0  0  0  0  0  0  0
  151.5723  139.1192  181.5134 C   0  0  0  0  0  0  0  0  0  0  0  0
  152.4854  140.1066  181.3235 C   0  0  0  0  0  0  0  0  0  0  0  0
  153.5524  140.2794  182.1834 C   0  0  0  0  0  0  0  0  0  0  0  0
  154.4743  141.3115  181.9323 C   0  0  0  0  0  0  0  0  0  0  0  0
  157.9158  142.2860  182.5964 C   0  0  0  0  0  0  0  0  0  0  0  0
  158.8023  143.3442  182.4182 C   0  0  0  0  0  0  0  0  0  0  0  0
  158.3767  144.6201  182.2248 C   0  0  0  0  0  0  0  0  0  0  0  0
  157.0214  144.9048  182.2001 C   0  0  0  0  0  0  0  0  0  0  0  0
  156.1729  143.8636  182.3745 C   0  0  0  0  0  0  0  0  0  0  0  0
  156.5851  142.5284  182.5775 C   0  0  0  0  0  0  0  0  0  0  0  0
  158.8477  140.5177  184.0527 C   0  0  0  0  0  0  0  0  0  0  0  0
  159.3371  139.3332  184.1143 O   0  0  0  0  0  0  0  0  0  0  0  0
  158.4515  140.9767  182.7957 N   0  0  0  0  0  0  0  0  0  0  0  0
  158.5377  140.1176  181.6440 C   0  0  0  0  0  0  0  0  0  0  0  0
  159.8380  141.9760  185.7650 C   0  0  0  0  0  0  0  0  0  0  0  0
  158.7727  141.1897  185.2350 O   0  0  0  0  0  0  0  0  0  0  0  0
  152.9138  137.6097  184.6655 N   0  0  0  0  0  0  0  0  0  0  0  0
  153.0490  136.9138  185.7751 C   0  0  0  0  0  0  0  0  0  0  0  0
  152.8950  137.4094  186.9729 O   0  0  0  0  0  0  0  0  0  0  0  0
  152.2984  138.6150  185.3649 H   0  0  0  0  0  0  0  0  0  0  0  0
  153.4068  135.4311  185.8042 C   0  0  0  0  0  0  0  0  0  0  0  0
  154.1160  135.1416  186.9264 O   0  0  0  0  0  0  0  0  0  0  0  0
  155.4330  134.8769  187.1259 C   0  0  0  0  0  0  0  0  0  0  0  0
  156.1019  133.8028  186.6103 C   0  0  0  0  0  0  0  0  0  0  0  0
  157.4393  133.6299  186.8740 C   0  0  0  0  0  0  0  0  0  0  0  0
  158.1103  134.5430  187.6607 C   0  0  0  0  0  0  0  0  0  0  0  0
  159.8124  134.3148  187.9844 Cl  0  0  0  0  0  0  0  0  0  0  0  0
  157.4503  135.6151  188.1775 C   0  0  0  0  0  0  0  0  0  0  0  0
  156.1158  135.8088  187.9279 C   0  0  0  0  0  0  0  0  0  0  0  0
 21 22  1  0  0  0
 22 17  1  0  0  0
 17 18  2  0  0  0
 17 19  1  0  0  0
 19 20  1  0  0  0
 19 11  1  0  0  0
 11 12  2  0  0  0
 12 13  1  0  0  0
 13 14  2  0  0  0
 14 15  1  0  0  0
 15 16  2  0  0  0
 16  1  1  0  0  0
  1  2  2  0  0  0
  2  3  1  0  0  0
  3  4  2  0  0  0
  4  5  1  0  0  0
  5 23  1  0  0  0
 23 24  1  0  0  0
 24 25  2  0  0  0
 24 27  1  0  0  0
 27 28  1  0  0  0
 28 29  1  0  0  0
 29 30  2  0  0  0
 30 31  1  0  0  0
 31 32  2  0  0  0
 32 33  1  0  0  0
 32 34  1  0  0  0
 34 35  2  0  0  0
  5  6  2  0  0  0
  6  7  1  0  0  0
  7  8  2  0  0  0
  8  9  1  0  0  0
  9 10  2  0  0  0
 16 11  1  0  0  0
 10  1  1  0  0  0
  9  4  1  0  0  0
 35 29  1  0  0  0
 23 26  1  0  0  0
M  END
> <minimizedAffinity>
-9.11835

> <CNNscore>
0.4623542130

> <CNNaffinity>
6.2917594910

> <CNN_VS>
2.9090216160

> <CNNaffinity_variance>
0.2102188617

$$$$
[H]c1c([H])c([H])c(N(C(=O)OC([H])([H])[H])C([H])([H])[H])c(-c2c([H])c([H])c3c(N([H])C(=O)C([H])([H])Oc4c([H])c([H])c(Cl)c([H])c4[H])c([H])c([H])c([H])c3c2[H])c1[H]


 35 38  0  0  0  0  0  0  0  0999 V2000
  150.2713  136.2136  182.5661 C   0  0  0  0  0  0  0  0  0  0  0  0
  151.3003  136.7370  183.3465 C   0  0  0  0  0  0  0  0  0  0  0  0
  152.0075  137.8785  182.9704 C   0  0  0  0  0  0  0  0  0  0  0  0
  151.7238  138.5444  181.8104 C   0  0  0  0  0  0  0  0  0  0  0  0
  152.4510  139.7037  181.4640 C   0  0  0  0  0  0  0  0  0  0  0  0
  152.0678  140.2959  180.2790 C   0  0  0  0  0  0  0  0  0  0  0  0
  151.0436  139.7993  179.4750 C   0  0  0  0  0  0  0  0  0  0  0  0
  150.3872  138.6786  179.8725 C   0  0  0  0  0  0  0  0  0  0  0  0
  150.7129  138.0284  181.0467 C   0  0  0  0  0  0  0  0  0  0  0  0
  149.9923  136.8782  181.4154 C   0  0  0  0  0  0  0  0  0  0  0  0
  149.9742  133.7489  182.8613 C   0  0  0  0  0  0  0  0  0  0  0  0
  149.2289  132.7073  183.4061 C   0  0  0  0  0  0  0  0  0  0  0  0
  148.1120  132.9275  184.1481 C   0  0  0  0  0  0  0  0  0  0  0  0
  147.6785  134.2215  184.3850 C   0  0  0  0  0  0  0  0  0  0  0  0
  148.4155  135.2230  183.8481 C   0  0  0  0  0  0  0  0  0  0  0  0
  149.5795  135.0253  183.0734 C   0  0  0  0  0  0  0  0  0  0  0  0
  151.1124  133.3755  180.6977 C   0  0  0  0  0  0  0  0  0  0  0  0
  152.2050  133.0515  180.1080 O   0  0  0  0  0  0  0  0  0  0  0  0
  151.1338  133.4252  182.0922 N   0  0  0  0  0  0  0  0  0  0  0  0
  152.3560  133.1829  182.8130 C   0  0  0  0  0  0  0  0  0  0  0  0
  149.1511  132.6338  179.4162 C   0  0  0  0  0  0  0  0  0  0  0  0
  150.0536  133.6354  179.8815 O   0  0  0  0  0  0  0  0  0  0  0  0
  153.5282  140.1024  182.2588 N   0  0  0  0  0  0  0  0  0  0  0  0
  154.5476  140.4489  183.0166 C   0  0  0  0  0  0  0  0  0  0  0  0
  155.2457  139.6098  183.7324 O   0  0  0  0  0  0  0  0  0  0  0  0
  153.8991  138.7863  182.3528 H   0  0  0  0  0  0  0  0  0  0  0  0
  155.0457  141.8839  183.1582 C   0  0  0  0  0  0  0  0  0  0  0  0
  156.4030  141.9168  183.1052 O   0  0  0  0  0  0  0  0  0  0  0  0
  157.2643  142.4639  182.2091 C   0  0  0  0  0  0  0  0  0  0  0  0
  157.9637  143.6217  182.4028 C   0  0  0  0  0  0  0  0  0  0  0  0
  158.8129  144.0875  181.4281 C   0  0  0  0  0  0  0  0  0  0  0  0
  158.9616  143.3849  180.2504 C   0  0  0  0  0  0  0  0  0  0  0  0
  160.0487  143.9849  179.0207 Cl  0  0  0  0  0  0  0  0  0  0  0  0
  158.2682  142.2310  180.0509 C   0  0  0  0  0  0  0  0  0  0  0  0
  157.4152  141.7464  181.0090 C   0  0  0  0  0  0  0  0  0  0  0  0
 21 22  1  0  0  0
 22 17  1  0  0  0
 17 18  2  0  0  0
 17 19  1  0  0  0
 19 20  1  0  0  0
 19 11  1  0  0  0
 11 12  2  0  0  0
 12 13  1  0  0  0
 13 14  2  0  0  0
 14 15  1  0  0  0
 15 16  2  0  0  0
 16  1  1  0  0  0
  1  2  2  0  0  0
  2  3  1  0  0  0
  3  4  2  0  0  0
  4  5  1  0  0  0
  5 23  1  0  0  0
 23 24  1  0  0  0
 24 25  2  0  0  0
 24 27  1  0  0  0
 27 28  1  0  0  0
 28 29  1  0  0  0
 29 30  2  0  0  0
 30 31  1  0  0  0
 31 32  2  0  0  0
 32 33  1  0  0  0
 32 34  1  0  0  0
 34 35  2  0  0  0
  5  6  2  0  0  0
  6  7  1  0  0  0
  7  8  2  0  0  0
  8  9  1  0  0  0
  9 10  2  0  0  0
 16 11  1  0  0  0
 10  1  1  0  0  0
  9  4  1  0  0  0
 35 29  1  0  0  0
 23 26  1  0  0  0
M  END
> <minimizedAffinity>
-6.76240

> <CNNscore>
0.4445333183

> <CNNaffinity>
5.9658331871

> <CNN_VS>
2.6520116329

> <CNNaffinity_variance>
0.2051561326

$$$$
[H]c1c([H])c(N([H])c2nc3c([H])c([H])c(C(F)(F)F)c([H])c3o2)c(F)c([H])c1C(=O)N1C([H])([H])C([H])([H])C2(C([H])([H])OC2([H])[H])C([H])([H])C1([H])[H]


 33 37  0  0  0  0  0  0  0  0999 V2000
  153.0448  140.6001  181.3760 F   0  0  0  0  0  0  0  0  0  0  0  0
  152.3519  139.4615  181.6477 C   0  0  0  0  0  0  0  0  0  0  0  0
  151.3635  138.9737  180.8130 C   0  0  0  0  0  0  0  0  0  0  0  0
  150.6512  137.7887  181.0843 C   0  0  0  0  0  0  0  0  0  0  0  0
  150.9943  137.1427  182.2308 C   0  0  0  0  0  0  0  0  0  0  0  0
  151.9910  137.6198  183.0961 C   0  0  0  0  0  0  0  0  0  0  0  0
  152.6743  138.7681  182.8298 C   0  0  0  0  0  0  0  0  0  0  0  0
  149.5629  137.4481  180.2426 C   0  0  0  0  0  0  0  0  0  0  0  0
  149.1023  138.5371  179.5629 O   0  0  0  0  0  0  0  0  0  0  0  0
  148.8827  136.2499  179.9650 N   0  0  0  0  0  0  0  0  0  0  0  0
  149.2294  134.9416  180.4306 C   0  0  0  0  0  0  0  0  0  0  0  0
  149.0521  133.9605  179.2410 C   0  0  0  0  0  0  0  0  0  0  0  0
  147.6009  133.9319  178.7958 C   0  0  0  0  0  0  0  0  0  0  0  0
  147.3888  133.6080  177.3451 C   0  0  0  0  0  0  0  0  0  0  0  0
  147.3686  132.2403  177.7090 O   0  0  0  0  0  0  0  0  0  0  0  0
  146.8915  132.6071  178.9685 C   0  0  0  0  0  0  0  0  0  0  0  0
  146.8491  135.1402  179.2627 C   0  0  0  0  0  0  0  0  0  0  0  0
  147.7007  136.3578  179.1211 C   0  0  0  0  0  0  0  0  0  0  0  0
  153.7648  139.2773  183.5566 N   0  0  0  0  0  0  0  0  0  0  0  0
  154.3966  139.9852  183.0472 H   0  0  0  0  0  0  0  0  0  0  0  0
  154.1214  138.9021  184.8822 C   0  0  0  0  0  0  0  0  0  0  0  0
  155.3348  138.4161  185.2490 N   0  0  0  0  0  0  0  0  0  0  0  0
  155.3678  138.1822  186.5755 C   0  0  0  0  0  0  0  0  0  0  0  0
  156.3130  137.6978  187.4464 C   0  0  0  0  0  0  0  0  0  0  0  0
  156.0278  137.5671  188.7928 C   0  0  0  0  0  0  0  0  0  0  0  0
  154.8052  137.9168  189.2717 C   0  0  0  0  0  0  0  0  0  0  0  0
  153.8507  138.4082  188.3768 C   0  0  0  0  0  0  0  0  0  0  0  0
  154.1200  138.5424  187.0243 C   0  0  0  0  0  0  0  0  0  0  0  0
  153.4236  138.9624  185.9698 O   0  0  0  0  0  0  0  0  0  0  0  0
  154.5001  137.8582  190.7116 C   0  0  0  0  0  0  0  0  0  0  0  0
  155.3130  136.8729  191.3347 F   0  0  0  0  0  0  0  0  0  0  0  0
  153.1660  137.5117  190.9127 F   0  0  0  0  0  0  0  0  0  0  0  0
  154.7581  139.0054  191.3595 F   0  0  0  0  0  0  0  0  0  0  0  0
  1  2  1  0  0  0
  2  3  2  0  0  0
  3  4  1  0  0  0
  4  5  2  0  0  0
  5  6  1  0  0  0
  6  7  2  0  0  0
  7 19  1  0  0  0
 19 21  1  0  0  0
 21 22  2  0  0  0
 22 23  1  0  0  0
 23 24  2  0  0  0
 24 25  1  0  0  0
 25 26  2  0  0  0
 26 27  1  0  0  0
 27 28  2  0  0  0
 28 29  1  0  0  0
 26 30  1  0  0  0
 30 31  1  0  0  0
 30 32  1  0  0  0
 30 33  1  0  0  0
  4  8  1  0  0  0
  8  9  2  0  0  0
  8 10  1  0  0  0
 10 11  1  0  0  0
 11 12  1  0  0  0
 12 13  1  0  0  0
 13 14  1  0  0  0
 14 15  1  0  0  0
 15 16  1  0  0  0
 13 17  1  0  0  0
 17 18  1  0  0  0
  7  2  1  0  0  0
 29 21  1  0  0  0
 18 10  1  0  0  0
 28 23  1  0  0  0
 16 13  1  0  0  0
 19 20  1  0  0  0
M  END
> <minimizedAffinity>
-7.10080

> <CNNscore>
0.3837663531

> <CNNaffinity>
5.5629143715

> <CNN_VS>
2.1348593235

> <CNNaffinity_variance>
0.0673367232

$$$$
[H]c1c([H])c(N([H])c2nc3c([H])c([H])c(C(F)(F)F)c([H])c3o2)c(F)c([H])c1C(=O)N1C([H])([H])C([H])([H])C2(C([H])([H])OC2([H])[H])C([H])([H])C1([H])[H]


 33 37  0  0  0  0  0  0  0  0999 V2000
  157.0050  137.9804  186.5794 F   0  0  0  0  0  0  0  0  0  0  0  0
  155.8115  138.0184  187.2311 C   0  0  0  0  0  0  0  0  0  0  0  0
  155.6778  137.6678  188.5618 C   0  0  0  0  0  0  0  0  0  0  0  0
  154.4461  137.7167  189.2442 C   0  0  0  0  0  0  0  0  0  0  0  0
  153.3799  138.1328  188.5095 C   0  0  0  0  0  0  0  0  0  0  0  0
  153.4895  138.4899  187.1567 C   0  0  0  0  0  0  0  0  0  0  0  0
  154.6829  138.4377  186.5014 C   0  0  0  0  0  0  0  0  0  0  0  0
  154.3854  137.2042  190.5642 C   0  0  0  0  0  0  0  0  0  0  0  0
  155.5269  137.4823  191.2568 O   0  0  0  0  0  0  0  0  0  0  0  0
  153.4144  136.4936  191.2906 N   0  0  0  0  0  0  0  0  0  0  0  0
  152.0847  136.1813  190.8631 C   0  0  0  0  0  0  0  0  0  0  0  0
  151.1381  136.4196  192.0699 C   0  0  0  0  0  0  0  0  0  0  0  0
  151.4969  135.4847  193.2111 C   0  0  0  0  0  0  0  0  0  0  0  0
  151.1779  136.0064  194.5825 C   0  0  0  0  0  0  0  0  0  0  0  0
  149.8894  135.4383  194.4401 O   0  0  0  0  0  0  0  0  0  0  0  0
  150.4337  134.4766  193.5873 C   0  0  0  0  0  0  0  0  0  0  0  0
  152.8880  134.9463  193.0763 C   0  0  0  0  0  0  0  0  0  0  0  0
  153.8099  136.0240  192.6113 C   0  0  0  0  0  0  0  0  0  0  0  0
  154.9346  138.8790  185.1903 N   0  0  0  0  0  0  0  0  0  0  0  0
  155.8769  139.3712  185.0188 H   0  0  0  0  0  0  0  0  0  0  0  0
  154.0340  138.7674  184.0941 C   0  0  0  0  0  0  0  0  0  0  0  0
  153.4729  137.6068  183.6686 N   0  0  0  0  0  0  0  0  0  0  0  0
  152.6460  137.8357  182.6297 C   0  0  0  0  0  0  0  0  0  0  0  0
  151.8524  137.0443  181.8359 C   0  0  0  0  0  0  0  0  0  0  0  0
  151.1036  137.5986  180.8145 C   0  0  0  0  0  0  0  0  0  0  0  0
  151.1448  138.9370  180.5829 C   0  0  0  0  0  0  0  0  0  0  0  0
  151.9559  139.7330  181.3963 C   0  0  0  0  0  0  0  0  0  0  0  0
  152.7145  139.1924  182.4220 C   0  0  0  0  0  0  0  0  0  0  0  0
  153.5570  139.6913  183.3245 O   0  0  0  0  0  0  0  0  0  0  0  0
  150.3006  139.5629  179.5506 C   0  0  0  0  0  0  0  0  0  0  0  0
  149.7191  138.5574  178.7316 F   0  0  0  0  0  0  0  0  0  0  0  0
  151.0641  140.3978  178.7380 F   0  0  0  0  0  0  0  0  0  0  0  0
  149.2711  140.2622  180.0541 F   0  0  0  0  0  0  0  0  0  0  0  0
  1  2  1  0  0  0
  2  3  2  0  0  0
  3  4  1  0  0  0
  4  5  2  0  0  0
  5  6  1  0  0  0
  6  7  2  0  0  0
  7 19  1  0  0  0
 19 21  1  0  0  0
 21 22  2  0  0  0
 22 23  1  0  0  0
 23 24  2  0  0  0
 24 25  1  0  0  0
 25 26  2  0  0  0
 26 27  1  0  0  0
 27 28  2  0  0  0
 28 29  1  0  0  0
 26 30  1  0  0  0
 30 31  1  0  0  0
 30 32  1  0  0  0
 30 33  1  0  0  0
  4  8  1  0  0  0
  8  9  2  0  0  0
  8 10  1  0  0  0
 10 11  1  0  0  0
 11 12  1  0  0  0
 12 13  1  0  0  0
 13 14  1  0  0  0
 14 15  1  0  0  0
 15 16  1  0  0  0
 13 17  1  0  0  0
 17 18  1  0  0  0
  7  2  1  0  0  0
 29 21  1  0  0  0
 18 10  1  0  0  0
 28 23  1  0  0  0
 16 13  1  0  0  0
 19 20  1  0  0  0
M  END
> <minimizedAffinity>
-8.00629

> <CNNscore>
0.3533210754

> <CNNaffinity>
5.5592126846

> <CNN_VS>
1.9641870260

> <CNNaffinity_variance>
0.1282449663

$$$$
[H]c1c([H])c(N([H])c2nc3c([H])c([H])c(C(F)(F)F)c([H])c3o2)c(F)c([H])c1C(=O)N1C([H])([H])C([H])([H])C2(C([H])([H])OC2([H])[H])C([H])([H])C1([H])[H]


 33 37  0  0  0  0  0  0  0  0999 V2000
  156.6469  138.2207  185.8143 F   0  0  0  0  0  0  0  0  0  0  0  0
  155.4355  138.2735  186.4311 C   0  0  0  0  0  0  0  0  0  0  0  0
  155.2858  138.1012  187.7947 C   0  0  0  0  0  0  0  0  0  0  0  0
  154.0348  138.1664  188.4397 C   0  0  0  0  0  0  0  0  0  0  0  0
  152.9669  138.4105  187.6338 C   0  0  0  0  0  0  0  0  0  0  0  0
  153.0927  138.5847  186.2469 C   0  0  0  0  0  0  0  0  0  0  0  0
  154.3049  138.5175  185.6285 C   0  0  0  0  0  0  0  0  0  0  0  0
  153.9678  137.8371  189.8165 C   0  0  0  0  0  0  0  0  0  0  0  0
  154.8594  138.5682  190.5450 O   0  0  0  0  0  0  0  0  0  0  0  0
  153.1876  136.9417  190.5681 N   0  0  0  0  0  0  0  0  0  0  0  0
  152.0953  136.1497  190.0905 C   0  0  0  0  0  0  0  0  0  0  0  0
  150.9722  136.2097  191.1601 C   0  0  0  0  0  0  0  0  0  0  0  0
  151.4570  135.6039  192.4651 C   0  0  0  0  0  0  0  0  0  0  0  0
  150.8109  136.1599  193.7012 C   0  0  0  0  0  0  0  0  0  0  0  0
  149.8015  135.1795  193.5494 O   0  0  0  0  0  0  0  0  0  0  0  0
  150.7312  134.3549  192.9138 C   0  0  0  0  0  0  0  0  0  0  0  0
  152.9521  135.5502  192.5350 C   0  0  0  0  0  0  0  0  0  0  0  0
  153.5349  136.8054  191.9759 C   0  0  0  0  0  0  0  0  0  0  0  0
  154.5665  138.7895  184.2741 N   0  0  0  0  0  0  0  0  0  0  0  0
  155.5964  138.9511  184.0039 H   0  0  0  0  0  0  0  0  0  0  0  0
  153.5844  138.9105  183.2513 C   0  0  0  0  0  0  0  0  0  0  0  0
  153.6135  139.8330  182.2558 N   0  0  0  0  0  0  0  0  0  0  0  0
  152.5597  139.6712  181.4319 C   0  0  0  0  0  0  0  0  0  0  0  0
  152.1095  140.3130  180.3041 C   0  0  0  0  0  0  0  0  0  0  0  0
  150.9527  139.8966  179.6721 C   0  0  0  0  0  0  0  0  0  0  0  0
  150.2449  138.8447  180.1611 C   0  0  0  0  0  0  0  0  0  0  0  0
  150.7118  138.1990  181.3094 C   0  0  0  0  0  0  0  0  0  0  0  0
  151.8677  138.6060  181.9559 C   0  0  0  0  0  0  0  0  0  0  0  0
  152.5268  138.1967  183.0382 O   0  0  0  0  0  0  0  0  0  0  0  0
  149.0512  138.3338  179.4655 C   0  0  0  0  0  0  0  0  0  0  0  0
  149.0554  136.9127  179.4857 F   0  0  0  0  0  0  0  0  0  0  0  0
  149.0473  138.7497  178.1361 F   0  0  0  0  0  0  0  0  0  0  0  0
  147.8971  138.7023  180.0441 F   0  0  0  0  0  0  0  0  0  0  0  0
  1  2  1  0  0  0
  2  3  2  0  0  0
  3  4  1  0  0  0
  4  5  2  0  0  0
  5  6  1  0  0  0
  6  7  2  0  0  0
  7 19  1  0  0  0
 19 21  1  0  0  0
 21 22  2  0  0  0
 22 23  1  0  0  0
 23 24  2  0  0  0
 24 25  1  0  0  0
 25 26  2  0  0  0
 26 27  1  0  0  0
 27 28  2  0  0  0
 28 29  1  0  0  0
 26 30  1  0  0  0
 30 31  1  0  0  0
 30 32  1  0  0  0
 30 33  1  0  0  0
  4  8  1  0  0  0
  8  9  2  0  0  0
  8 10  1  0  0  0
 10 11  1  0  0  0
 11 12  1  0  0  0
 12 13  1  0  0  0
 13 14  1  0  0  0
 14 15  1  0  0  0
 15 16  1  0  0  0
 13 17  1  0  0  0
 17 18  1  0  0  0
  7  2  1  0  0  0
 29 21  1  0  0  0
 18 10  1  0  0  0
 28 23  1  0  0  0
 16 13  1  0  0  0
 19 20  1  0  0  0
M  END
> <minimizedAffinity>
-8.84856

> <CNNscore>
0.3264396489

> <CNNaffinity>
5.4669985771

> <CNN_VS>
1.7846450806

> <CNNaffinity_variance>
0.1391628683

$$$$
[H]c1c([H])c(N([H])c2nc3c([H])c([H])c(C(F)(F)F)c([H])c3o2)c(F)c([H])c1C(=O)N1C([H])([H])C([H])([H])C2(C([H])([H])OC2([H])[H])C([H])([H])C1([H])[H]


 33 37  0  0  0  0  0  0  0  0999 V2000
  153.0057  138.9706  186.0774 F   0  0  0  0  0  0  0  0  0  0  0  0
  153.8987  138.4709  186.9737 C   0  0  0  0  0  0  0  0  0  0  0  0
  153.5414  138.1120  188.2602 C   0  0  0  0  0  0  0  0  0  0  0  0
  154.4601  137.5831  189.1883 C   0  0  0  0  0  0  0  0  0  0  0  0
  155.7373  137.4448  188.7419 C   0  0  0  0  0  0  0  0  0  0  0  0
  156.1252  137.8057  187.4423 C   0  0  0  0  0  0  0  0  0  0  0  0
  155.2328  138.3194  186.5502 C   0  0  0  0  0  0  0  0  0  0  0  0
  154.0288  137.3788  190.5229 C   0  0  0  0  0  0  0  0  0  0  0  0
  154.6098  138.2724  191.3738 O   0  0  0  0  0  0  0  0  0  0  0  0
  153.1434  136.4742  191.1338 N   0  0  0  0  0  0  0  0  0  0  0  0
  152.3041  135.5209  190.4741 C   0  0  0  0  0  0  0  0  0  0  0  0
  150.9205  135.5517  191.1768 C   0  0  0  0  0  0  0  0  0  0  0  0
  151.0596  135.1304  192.6288 C   0  0  0  0  0  0  0  0  0  0  0  0
  150.0421  135.7221  193.5611 C   0  0  0  0  0  0  0  0  0  0  0  0
  149.2041  134.6225  193.2579 O   0  0  0  0  0  0  0  0  0  0  0  0
  150.3425  133.8540  193.0093 C   0  0  0  0  0  0  0  0  0  0  0  0
  152.4710  135.2554  193.1143 C   0  0  0  0  0  0  0  0  0  0  0  0
  153.0826  136.5112  192.5884 C   0  0  0  0  0  0  0  0  0  0  0  0
  155.4780  138.6052  185.1955 N   0  0  0  0  0  0  0  0  0  0  0  0
  155.0090  137.9590  184.4729 H   0  0  0  0  0  0  0  0  0  0  0  0
  156.3232  139.6421  184.7101 C   0  0  0  0  0  0  0  0  0  0  0  0
  157.6785  139.6352  184.7864 N   0  0  0  0  0  0  0  0  0  0  0  0
  158.1888  140.7433  184.2145 C   0  0  0  0  0  0  0  0  0  0  0  0
  159.4575  141.2343  184.0251 C   0  0  0  0  0  0  0  0  0  0  0  0
  159.6556  142.4443  183.3865 C   0  0  0  0  0  0  0  0  0  0  0  0
  158.5942  143.1645  182.9378 C   0  0  0  0  0  0  0  0  0  0  0  0
  157.3076  142.6558  183.1360 C   0  0  0  0  0  0  0  0  0  0  0  0
  157.0923  141.4463  183.7767 C   0  0  0  0  0  0  0  0  0  0  0  0
  156.0110  140.7400  184.1012 O   0  0  0  0  0  0  0  0  0  0  0  0
  158.7803  144.4191  182.1887 C   0  0  0  0  0  0  0  0  0  0  0  0
  159.8311  145.1762  182.7740 F   0  0  0  0  0  0  0  0  0  0  0  0
  157.6181  145.1860  182.2273 F   0  0  0  0  0  0  0  0  0  0  0  0
  159.1384  144.2290  180.9088 F   0  0  0  0  0  0  0  0  0  0  0  0
  1  2  1  0  0  0
  2  3  2  0  0  0
  3  4  1  0  0  0
  4  5  2  0  0  0
  5  6  1  0  0  0
  6  7  2  0  0  0
  7 19  1  0  0  0
 19 21  1  0  0  0
 21 22  2  0  0  0
 22 23  1  0  0  0
 23 24  2  0  0  0
 24 25  1  0  0  0
 25 26  2  0  0  0
 26 27  1  0  0  0
 27 28  2  0  0  0
 28 29  1  0  0  0
 26 30  1  0  0  0
 30 31  1  0  0  0
 30 32  1  0  0  0
 30 33  1  0  0  0
  4  8  1  0  0  0
  8  9  2  0  0  0
  8 10  1  0  0  0
 10 11  1  0  0  0
 11 12  1  0  0  0
 12 13  1  0  0  0
 13 14  1  0  0  0
 14 15  1  0  0  0
 15 16  1  0  0  0
 13 17  1  0  0  0
 17 18  1  0  0  0
  7  2  1  0  0  0
 29 21  1  0  0  0
 18 10  1  0  0  0
 28 23  1  0  0  0
 16 13  1  0  0  0
 19 20  1  0  0  0
M  END
> <minimizedAffinity>
-9.19077

> <CNNscore>
0.3180071414

> <CNNaffinity>
5.8897075653

> <CNN_VS>
1.8729690313

> <CNNaffinity_variance>
0.1055346951

$$$$
[H]c1c([H])c(N([H])c2nc3c([H])c([H])c(C(F)(F)F)c([H])c3o2)c(F)c([H])c1C(=O)N1C([H])([H])C([H])([H])C2(C([H])([H])OC2([H])[H])C([H])([H])C1([H])[H]


 33 37  0  0  0  0  0  0  0  0999 V2000
  153.0252  139.2050  186.4960 F   0  0  0  0  0  0  0  0  0  0  0  0
  153.8531  138.4679  187.2845 C   0  0  0  0  0  0  0  0  0  0  0  0
  153.4514  137.9392  188.4972 C   0  0  0  0  0  0  0  0  0  0  0  0
  154.3016  137.1654  189.3119 C   0  0  0  0  0  0  0  0  0  0  0  0
  155.5584  136.9660  188.8323 C   0  0  0  0  0  0  0  0  0  0  0  0
  155.9909  137.4954  187.6066 C   0  0  0  0  0  0  0  0  0  0  0  0
  155.1650  138.2455  186.8246 C   0  0  0  0  0  0  0  0  0  0  0  0
  153.8429  136.7882  190.5988 C   0  0  0  0  0  0  0  0  0  0  0  0
  154.0401  137.7860  191.5074 O   0  0  0  0  0  0  0  0  0  0  0  0
  153.2359  135.6314  191.1173 N   0  0  0  0  0  0  0  0  0  0  0  0
  152.7966  134.4895  190.3745 C   0  0  0  0  0  0  0  0  0  0  0  0
  151.4179  134.0631  190.9457 C   0  0  0  0  0  0  0  0  0  0  0  0
  151.5566  133.6526  192.4008 C   0  0  0  0  0  0  0  0  0  0  0  0
  150.3291  133.8642  193.2393 C   0  0  0  0  0  0  0  0  0  0  0  0
  149.9062  132.5706  192.8504 O   0  0  0  0  0  0  0  0  0  0  0  0
  151.2448  132.2035  192.7024 C   0  0  0  0  0  0  0  0  0  0  0  0
  152.8109  134.1919  193.0165 C   0  0  0  0  0  0  0  0  0  0  0  0
  153.0419  135.5940  192.5602 C   0  0  0  0  0  0  0  0  0  0  0  0
  155.4478  138.7262  185.5339 N   0  0  0  0  0  0  0  0  0  0  0  0
  154.7202  138.5132  184.7689 H   0  0  0  0  0  0  0  0  0  0  0  0
  156.6270  139.4257  185.1530 C   0  0  0  0  0  0  0  0  0  0  0  0
  157.0969  139.5161  183.8826 N   0  0  0  0  0  0  0  0  0  0  0  0
  158.2146  140.2677  183.8454 C   0  0  0  0  0  0  0  0  0  0  0  0
  159.0769  140.6656  182.8532 C   0  0  0  0  0  0  0  0  0  0  0  0
  160.1720  141.4562  183.1481 C   0  0  0  0  0  0  0  0  0  0  0  0
  160.4090  141.8495  184.4270 C   0  0  0  0  0  0  0  0  0  0  0  0
  159.5255  141.4387  185.4289 C   0  0  0  0  0  0  0  0  0  0  0  0
  158.4252  140.6440  185.1501 C   0  0  0  0  0  0  0  0  0  0  0  0
  157.4476  140.1116  185.8809 O   0  0  0  0  0  0  0  0  0  0  0  0
  161.5250  142.7526  184.7572 C   0  0  0  0  0  0  0  0  0  0  0  0
  161.6991  142.8050  186.1668 F   0  0  0  0  0  0  0  0  0  0  0  0
  161.2577  144.0424  184.3039 F   0  0  0  0  0  0  0  0  0  0  0  0
  162.7046  142.3482  184.2598 F   0  0  0  0  0  0  0  0  0  0  0  0
  1  2  1  0  0  0
  2  3  2  0  0  0
  3  4  1  0  0  0
  4  5  2  0  0  0
  5  6  1  0  0  0
  6  7  2  0  0  0
  7 19  1  0  0  0
 19 21  1  0  0  0
 21 22  2  0  0  0
 22 23  1  0  0  0
 23 24  2  0  0  0
 24 25  1  0  0  0
 25 26  2  0  0  0
 26 27  1  0  0  0
 27 28  2  0  0  0
 28 29  1  0  0  0
 26 30  1  0  0  0
 30 31  1  0  0  0
 30 32  1  0  0  0
 30 33  1  0  0  0
  4  8  1  0  0  0
  8  9  2  0  0  0
  8 10  1  0  0  0
 10 11  1  0  0  0
 11 12  1  0  0  0
 12 13  1  0  0  0
 13 14  1  0  0  0
 14 15  1  0  0  0
 15 16  1  0  0  0
 13 17  1  0  0  0
 17 18  1  0  0  0
  7  2  1  0  0  0
 29 21  1  0  0  0
 18 10  1  0  0  0
 28 23  1  0  0  0
 16 13  1  0  0  0
 19 20  1  0  0  0
M  END
> <minimizedAffinity>
-8.30242

> <CNNscore>
0.2620883584

> <CNNaffinity>
5.8378190994

> <CNN_VS>
1.5300244093

> <CNNaffinity_variance>
0.0460769758

$$$$
[H]c1c([H])c(N([H])c2nc3c([H])c([H])c(C(F)(F)F)c([H])c3o2)c(F)c([H])c1C(=O)N1C([H])([H])C([H])([H])C2(C([H])([H])OC2([H])[H])C([H])([H])C1([H])[H]


 33 37  0  0  0  0  0  0  0  0999 V2000
  156.7853  138.0683  185.9689 F   0  0  0  0  0  0  0  0  0  0  0  0
  155.5673  138.1825  186.5638 C   0  0  0  0  0  0  0  0  0  0  0  0
  155.3897  138.0512  187.9287 C   0  0  0  0  0  0  0  0  0  0  0  0
  154.1321  138.1801  188.5508 C   0  0  0  0  0  0  0  0  0  0  0  0
  153.0870  138.4433  187.7214 C   0  0  0  0  0  0  0  0  0  0  0  0
  153.2412  138.5769  186.3328 C   0  0  0  0  0  0  0  0  0  0  0  0
  154.4595  138.4482  185.7366 C   0  0  0  0  0  0  0  0  0  0  0  0
  154.0309  137.8891  189.9342 C   0  0  0  0  0  0  0  0  0  0  0  0
  154.8649  138.6794  190.6692 O   0  0  0  0  0  0  0  0  0  0  0  0
  153.2634  136.9834  190.6866 N   0  0  0  0  0  0  0  0  0  0  0  0
  152.2228  136.1311  190.1973 C   0  0  0  0  0  0  0  0  0  0  0  0
  151.0615  136.1741  191.2262 C   0  0  0  0  0  0  0  0  0  0  0  0
  151.5255  135.6288  192.5649 C   0  0  0  0  0  0  0  0  0  0  0  0
  150.8138  136.1927  193.7607 C   0  0  0  0  0  0  0  0  0  0  0  0
  149.8525  135.1655  193.6055 O   0  0  0  0  0  0  0  0  0  0  0  0
  150.8379  134.3634  193.0275 C   0  0  0  0  0  0  0  0  0  0  0  0
  153.0183  135.6419  192.6867 C   0  0  0  0  0  0  0  0  0  0  0  0
  153.5667  136.9041  192.1088 C   0  0  0  0  0  0  0  0  0  0  0  0
  154.7526  138.6751  184.3803 N   0  0  0  0  0  0  0  0  0  0  0  0
  154.5535  137.8638  183.7007 H   0  0  0  0  0  0  0  0  0  0  0  0
  155.3264  139.8631  183.8469 C   0  0  0  0  0  0  0  0  0  0  0  0
  154.6258  140.9729  183.5004 N   0  0  0  0  0  0  0  0  0  0  0  0
  155.4567  141.9351  183.0540 C   0  0  0  0  0  0  0  0  0  0  0  0
  155.2869  143.2138  182.5824 C   0  0  0  0  0  0  0  0  0  0  0  0
  156.3755  143.9670  182.1838 C   0  0  0  0  0  0  0  0  0  0  0  0
  157.6299  143.4492  182.2535 C   0  0  0  0  0  0  0  0  0  0  0  0
  157.7913  142.1470  182.7346 C   0  0  0  0  0  0  0  0  0  0  0  0
  156.7104  141.3783  183.1352 C   0  0  0  0  0  0  0  0  0  0  0  0
  156.5676  140.1439  183.6138 O   0  0  0  0  0  0  0  0  0  0  0  0
  158.8128  144.2555  181.9062 C   0  0  0  0  0  0  0  0  0  0  0  0
  159.3249  143.8389  180.6476 F   0  0  0  0  0  0  0  0  0  0  0  0
  159.8138  144.0872  182.8602 F   0  0  0  0  0  0  0  0  0  0  0  0
  158.5470  145.5650  181.7752 F   0  0  0  0  0  0  0  0  0  0  0  0
  1  2  1  0  0  0
  2  3  2  0  0  0
  3  4  1  0  0  0
  4  5  2  0  0  0
  5  6  1  0  0  0
  6  7  2  0  0  0
  7 19  1  0  0  0
 19 21  1  0  0  0
 21 22  2  0  0  0
 22 23  1  0  0  0
 23 24  2  0  0  0
 24 25  1  0  0  0
 25 26  2  0  0  0
 26 27  1  0  0  0
 27 28  2  0  0  0
 28 29  1  0  0  0
 26 30  1  0  0  0
 30 31  1  0  0  0
 30 32  1  0  0  0
 30 33  1  0  0  0
  4  8  1  0  0  0
  8  9  2  0  0  0
  8 10  1  0  0  0
 10 11  1  0  0  0
 11 12  1  0  0  0
 12 13  1  0  0  0
 13 14  1  0  0  0
 14 15  1  0  0  0
 15 16  1  0  0  0
 13 17  1  0  0  0
 17 18  1  0  0  0
  7  2  1  0  0  0
 29 21  1  0  0  0
 18 10  1  0  0  0
 28 23  1  0  0  0
 16 13  1  0  0  0
 19 20  1  0  0  0
M  END
> <minimizedAffinity>
-9.34257

> <CNNscore>
0.2451723069

> <CNNaffinity>
5.8245363235

> <CNN_VS>
1.4280149937

> <CNNaffinity_variance>
0.0882868245

$$$$
[H]c1c([H])c(N([H])c2nc3c([H])c([H])c(C(F)(F)F)c([H])c3o2)c(F)c([H])c1C(=O)N1C([H])([H])C([H])([H])C2(C([H])([H])OC2([H])[H])C([H])([H])C1([H])[H]


 33 37  0  0  0  0  0  0  0  0999 V2000
  154.9201  138.7185  186.8057 F   0  0  0  0  0  0  0  0  0  0  0  0
  154.5500  137.6822  186.0060 C   0  0  0  0  0  0  0  0  0  0  0  0
  154.1464  136.4596  186.5100 C   0  0  0  0  0  0  0  0  0  0  0  0
  153.7511  135.3871  185.6862 C   0  0  0  0  0  0  0  0  0  0  0  0
  153.7908  135.6246  184.3477 C   0  0  0  0  0  0  0  0  0  0  0  0
  154.2007  136.8553  183.8120 C   0  0  0  0  0  0  0  0  0  0  0  0
  154.5847  137.8878  184.6137 C   0  0  0  0  0  0  0  0  0  0  0  0
  153.4903  134.1323  186.2913 C   0  0  0  0  0  0  0  0  0  0  0  0
  154.4763  133.2326  186.0115 O   0  0  0  0  0  0  0  0  0  0  0  0
  152.4564  133.6383  187.1053 N   0  0  0  0  0  0  0  0  0  0  0  0
  151.3701  134.3886  187.6581 C   0  0  0  0  0  0  0  0  0  0  0  0
  151.1762  133.9181  189.1245 C   0  0  0  0  0  0  0  0  0  0  0  0
  150.7978  132.4481  189.1585 C   0  0  0  0  0  0  0  0  0  0  0  0
  151.2201  131.7131  190.3978 C   0  0  0  0  0  0  0  0  0  0  0  0
  149.9933  132.1061  190.9840 O   0  0  0  0  0  0  0  0  0  0  0  0
  149.4233  132.1409  189.7103 C   0  0  0  0  0  0  0  0  0  0  0  0
  151.1613  131.7478  187.8855 C   0  0  0  0  0  0  0  0  0  0  0  0
  152.4965  132.2145  187.4091 C   0  0  0  0  0  0  0  0  0  0  0  0
  154.9003  139.1935  184.1984 N   0  0  0  0  0  0  0  0  0  0  0  0
  154.0816  139.8017  183.8525 H   0  0  0  0  0  0  0  0  0  0  0  0
  156.2077  139.7539  184.1577 C   0  0  0  0  0  0  0  0  0  0  0  0
  156.9782  139.8406  183.0434 N   0  0  0  0  0  0  0  0  0  0  0  0
  158.1490  140.4451  183.3253 C   0  0  0  0  0  0  0  0  0  0  0  0
  159.2649  140.7742  182.5954 C   0  0  0  0  0  0  0  0  0  0  0  0
  160.3379  141.4054  183.1967 C   0  0  0  0  0  0  0  0  0  0  0  0
  160.3011  141.7079  184.5210 C   0  0  0  0  0  0  0  0  0  0  0  0
  159.1609  141.3682  185.2543 C   0  0  0  0  0  0  0  0  0  0  0  0
  158.0786  140.7329  184.6671 C   0  0  0  0  0  0  0  0  0  0  0  0
  156.8996  140.2969  185.1065 O   0  0  0  0  0  0  0  0  0  0  0  0
  161.3983  142.4463  185.1697 C   0  0  0  0  0  0  0  0  0  0  0  0
  161.2836  142.3336  186.5818 F   0  0  0  0  0  0  0  0  0  0  0  0
  161.3402  143.7973  184.8352 F   0  0  0  0  0  0  0  0  0  0  0  0
  162.6161  141.9706  184.8646 F   0  0  0  0  0  0  0  0  0  0  0  0
  1  2  1  0  0  0
  2  3  2  0  0  0
  3  4  1  0  0  0
  4  5  2  0  0  0
  5  6  1  0  0  0
  6  7  2  0  0  0
  7 19  1  0  0  0
 19 21  1  0  0  0
 21 22  2  0  0  0
 22 23  1  0  0  0
 23 24  2  0  0  0
 24 25  1  0  0  0
 25 26  2  0  0  0
 26 27  1  0  0  0
 27 28  2  0  0  0
 28 29  1  0  0  0
 26 30  1  0  0  0
 30 31  1  0  0  0
 30 32  1  0  0  0
 30 33  1  0  0  0
  4  8  1  0  0  0
  8  9  2  0  0  0
  8 10  1  0  0  0
 10 11  1  0  0  0
 11 12  1  0  0  0
 12 13  1  0  0  0
 13 14  1  0  0  0
 14 15  1  0  0  0
 15 16  1  0  0  0
 13 17  1  0  0  0
 17 18  1  0  0  0
  7  2  1  0  0  0
 29 21  1  0  0  0
 18 10  1  0  0  0
 28 23  1  0  0  0
 16 13  1  0  0  0
 19 20  1  0  0  0
M  END
> <minimizedAffinity>
-6.85964

> <CNNscore>
0.2401770055

> <CNNaffinity>
5.8612618446

> <CNN_VS>
1.4077403545

> <CNNaffinity_variance>
0.1618204117

$$$$
[H]c1c([H])c(N([H])c2nc3c([H])c([H])c(C(F)(F)F)c([H])c3o2)c(F)c([H])c1C(=O)N1C([H])([H])C([H])([H])C2(C([H])([H])OC2([H])[H])C([H])([H])C1([H])[H]


 33 37  0  0  0  0  0  0  0  0999 V2000
  153.0418  138.8140  183.9345 F   0  0  0  0  0  0  0  0  0  0  0  0
  153.5849  138.3077  185.0744 C   0  0  0  0  0  0  0  0  0  0  0  0
  152.8489  137.5791  185.9904 C   0  0  0  0  0  0  0  0  0  0  0  0
  153.4095  137.0428  187.1665 C   0  0  0  0  0  0  0  0  0  0  0  0
  154.7342  137.2866  187.3539 C   0  0  0  0  0  0  0  0  0  0  0  0
  155.5014  138.0266  186.4409 C   0  0  0  0  0  0  0  0  0  0  0  0
  154.9529  138.5453  185.3067 C   0  0  0  0  0  0  0  0  0  0  0  0
  152.5441  136.4335  188.1092 C   0  0  0  0  0  0  0  0  0  0  0  0
  151.6715  135.5795  187.5014 O   0  0  0  0  0  0  0  0  0  0  0  0
  152.4077  136.5192  189.5054 N   0  0  0  0  0  0  0  0  0  0  0  0
  153.2630  137.2298  190.4066 C   0  0  0  0  0  0  0  0  0  0  0  0
  153.4863  136.3263  191.6488 C   0  0  0  0  0  0  0  0  0  0  0  0
  152.1673  136.0704  192.3557 C   0  0  0  0  0  0  0  0  0  0  0  0
  152.0878  134.7675  193.0977 C   0  0  0  0  0  0  0  0  0  0  0  0
  152.6309  135.4359  194.2209 O   0  0  0  0  0  0  0  0  0  0  0  0
  152.0614  136.6238  193.7595 C   0  0  0  0  0  0  0  0  0  0  0  0
  150.9942  136.3307  191.4616 C   0  0  0  0  0  0  0  0  0  0  0  0
  151.2740  135.8156  190.0890 C   0  0  0  0  0  0  0  0  0  0  0  0
  155.6426  139.1979  184.2697 N   0  0  0  0  0  0  0  0  0  0  0  0
  155.1987  139.1506  183.2897 H   0  0  0  0  0  0  0  0  0  0  0  0
  156.8894  139.8709  184.4026 C   0  0  0  0  0  0  0  0  0  0  0  0
  157.8289  139.9594  183.4267 N   0  0  0  0  0  0  0  0  0  0  0  0
  158.8831  140.6833  183.8510 C   0  0  0  0  0  0  0  0  0  0  0  0
  160.0774  141.0673  183.2919 C   0  0  0  0  0  0  0  0  0  0  0  0
  160.9791  141.8282  184.0123 C   0  0  0  0  0  0  0  0  0  0  0  0
  160.6938  142.2057  185.2862 C   0  0  0  0  0  0  0  0  0  0  0  0
  159.4760  141.8092  185.8455 C   0  0  0  0  0  0  0  0  0  0  0  0
  158.5630  141.0442  185.1377 C   0  0  0  0  0  0  0  0  0  0  0  0
  157.3647  140.5306  185.4088 O   0  0  0  0  0  0  0  0  0  0  0  0
  161.6028  143.0783  186.0492 C   0  0  0  0  0  0  0  0  0  0  0  0
  161.6368  144.3702  185.4579 F   0  0  0  0  0  0  0  0  0  0  0  0
  162.8963  142.5613  186.0392 F   0  0  0  0  0  0  0  0  0  0  0  0
  161.2168  143.2703  187.3207 F   0  0  0  0  0  0  0  0  0  0  0  0
  1  2  1  0  0  0
  2  3  2  0  0  0
  3  4  1  0  0  0
  4  5  2  0  0  0
  5  6  1  0  0  0
  6  7  2  0  0  0
  7 19  1  0  0  0
 19 21  1  0  0  0
 21 22  2  0  0  0
 22 23  1  0  0  0
 23 24  2  0  0  0
 24 25  1  0  0  0
 25 26  2  0  0  0
 26 27  1  0  0  0
 27 28  2  0  0  0
 28 29  1  0  0  0
 26 30  1  0  0  0
 30 31  1  0  0  0
 30 32  1  0  0  0
 30 33  1  0  0  0
  4  8  1  0  0  0
  8  9  2  0  0  0
  8 10  1  0  0  0
 10 11  1  0  0  0
 11 12  1  0  0  0
 12 13  1  0  0  0
 13 14  1  0  0  0
 14 15  1  0  0  0
 15 16  1  0  0  0
 13 17  1  0  0  0
 17 18  1  0  0  0
  7  2  1  0  0  0
 29 21  1  0  0  0
 18 10  1  0  0  0
 28 23  1  0  0  0
 16 13  1  0  0  0
 19 20  1  0  0  0
M  END
> <minimizedAffinity>
-9.16512

> <CNNscore>
0.2400446683

> <CNNaffinity>
5.8830776215

> <CNN_VS>
1.4122014046

> <CNNaffinity_variance>
0.0515851788

$$$$
[H]c1c([H])c(N([H])c2nc3c([H])c([H])c(C(F)(F)F)c([H])c3o2)c(F)c([H])c1C(=O)N1C([H])([H])C([H])([H])C2(C([H])([H])OC2([H])[H])C([H])([H])C1([H])[H]


 33 37  0  0  0  0  0  0  0  0999 V2000
  154.6505  135.9272  185.1371 F   0  0  0  0  0  0  0  0  0  0  0  0
  154.2562  136.7292  186.1626 C   0  0  0  0  0  0  0  0  0  0  0  0
  154.3076  136.3276  187.4846 C   0  0  0  0  0  0  0  0  0  0  0  0
  153.9114  137.1588  188.5510 C   0  0  0  0  0  0  0  0  0  0  0  0
  153.4675  138.3960  188.2021 C   0  0  0  0  0  0  0  0  0  0  0  0
  153.4021  138.8253  186.8675 C   0  0  0  0  0  0  0  0  0  0  0  0
  153.7840  138.0158  185.8403 C   0  0  0  0  0  0  0  0  0  0  0  0
  153.8681  136.6074  189.8559 C   0  0  0  0  0  0  0  0  0  0  0  0
  155.1021  136.6113  190.4368 O   0  0  0  0  0  0  0  0  0  0  0  0
  152.8419  136.0780  190.6573 N   0  0  0  0  0  0  0  0  0  0  0  0
  151.4423  136.0669  190.3582 C   0  0  0  0  0  0  0  0  0  0  0  0
  150.6835  136.4370  191.6606 C   0  0  0  0  0  0  0  0  0  0  0  0
  150.9433  135.3951  192.7339 C   0  0  0  0  0  0  0  0  0  0  0  0
  150.8701  135.9052  194.1441 C   0  0  0  0  0  0  0  0  0  0  0  0
  149.4837  135.6219  194.1176 O   0  0  0  0  0  0  0  0  0  0  0  0
  149.7324  134.6106  193.1882 C   0  0  0  0  0  0  0  0  0  0  0  0
  152.1719  134.5889  192.4444 C   0  0  0  0  0  0  0  0  0  0  0  0
  153.2517  135.4747  191.9179 C   0  0  0  0  0  0  0  0  0  0  0  0
  153.8724  138.3750  184.4838 N   0  0  0  0  0  0  0  0  0  0  0  0
  153.3708  137.7323  183.7801 H   0  0  0  0  0  0  0  0  0  0  0  0
  154.6011  139.4834  183.9687 C   0  0  0  0  0  0  0  0  0  0  0  0
  154.0458  140.6548  183.5658 N   0  0  0  0  0  0  0  0  0  0  0  0
  155.0003  141.5131  183.1560 C   0  0  0  0  0  0  0  0  0  0  0  0
  154.9972  142.7928  182.6573 C   0  0  0  0  0  0  0  0  0  0  0  0
  156.1820  143.4166  182.3134 C   0  0  0  0  0  0  0  0  0  0  0  0
  157.3669  142.7688  182.4646 C   0  0  0  0  0  0  0  0  0  0  0  0
  157.3585  141.4668  182.9725 C   0  0  0  0  0  0  0  0  0  0  0  0
  156.1795  140.8268  183.3191 C   0  0  0  0  0  0  0  0  0  0  0  0
  155.8767  139.6247  183.8056 O   0  0  0  0  0  0  0  0  0  0  0  0
  158.6481  143.4364  182.1767 C   0  0  0  0  0  0  0  0  0  0  0  0
  159.4576  142.5933  181.3681 F   0  0  0  0  0  0  0  0  0  0  0  0
  159.3373  143.6974  183.3587 F   0  0  0  0  0  0  0  0  0  0  0  0
  158.5114  144.5799  181.4866 F   0  0  0  0  0  0  0  0  0  0  0  0
  1  2  1  0  0  0
  2  3  2  0  0  0
  3  4  1  0  0  0
  4  5  2  0  0  0
  5  6  1  0  0  0
  6  7  2  0  0  0
  7 19  1  0  0  0
 19 21  1  0  0  0
 21 22  2  0  0  0
 22 23  1  0  0  0
 23 24  2  0  0  0
 24 25  1  0  0  0
 25 26  2  0  0  0
 26 27  1  0  0  0
 27 28  2  0  0  0
 28 29  1  0  0  0
 26 30  1  0  0  0
 30 31  1  0  0  0
 30 32  1  0  0  0
 30 33  1  0  0  0
  4  8  1  0  0  0
  8  9  2  0  0  0
  8 10  1  0  0  0
 10 11  1  0  0  0
 11 12  1  0  0  0
 12 13  1  0  0  0
 13 14  1  0  0  0
 14 15  1  0  0  0
 15 16  1  0  0  0
 13 17  1  0  0  0
 17 18  1  0  0  0
  7  2  1  0  0  0
 29 21  1  0  0  0
 18 10  1  0  0  0
 28 23  1  0  0  0
 16 13  1  0  0  0
 19 20  1  0  0  0
M  END
> <minimizedAffinity>
-8.59409

> <CNNscore>
0.2399068475

> <CNNaffinity>
5.7599735260

> <CNN_VS>
1.3818570375

> <CNNaffinity_variance>
0.0447986536

$$$$
[H]c1c([H])c(Br)c(C([H])([H])[H])c(-c2c([H])c([H])c(C([H])([H])N([H])C(=O)c3c([H])c(C4([H])C([H])([H])C([H])([H])C([H])([H])C([H])([H])C([H])([H])C4([H])[H])nn3C([H])([H])[H])c([H])c2[H])c1[H]


 32 35  0  0  0  0  0  0  0  0999 V2000
  153.9167  137.3784  186.9751 N   0  0  0  0  0  0  0  0  0  0  0  0
  154.5747  136.5830  187.9502 C   0  0  0  0  0  0  0  0  0  0  0  0
  155.3286  135.6720  187.5668 O   0  0  0  0  0  0  0  0  0  0  0  0
  153.2885  138.1370  187.3294 H   0  0  0  0  0  0  0  0  0  0  0  0
  154.3891  136.8068  189.3778 C   0  0  0  0  0  0  0  0  0  0  0  0
  153.3033  136.4066  190.1330 C   0  0  0  0  0  0  0  0  0  0  0  0
  153.5131  136.8100  191.4337 C   0  0  0  0  0  0  0  0  0  0  0  0
  154.6993  137.4363  191.4472 N   0  0  0  0  0  0  0  0  0  0  0  0
  155.2167  137.4332  190.2283 N   0  0  0  0  0  0  0  0  0  0  0  0
  156.4962  138.0131  189.8228 C   0  0  0  0  0  0  0  0  0  0  0  0
  152.5605  136.5592  192.5415 C   0  0  0  0  0  0  0  0  0  0  0  0
  151.1841  136.3634  191.9523 C   0  0  0  0  0  0  0  0  0  0  0  0
  150.1832  135.9380  193.0169 C   0  0  0  0  0  0  0  0  0  0  0  0
  150.3939  134.5138  193.4075 C   0  0  0  0  0  0  0  0  0  0  0  0
  151.1480  134.4653  194.7151 C   0  0  0  0  0  0  0  0  0  0  0  0
  152.4048  135.2857  194.6894 C   0  0  0  0  0  0  0  0  0  0  0  0
  153.0300  135.3380  193.3113 C   0  0  0  0  0  0  0  0  0  0  0  0
  154.0660  137.1998  185.5501 C   0  0  0  0  0  0  0  0  0  0  0  0
  155.6209  140.6372  183.5001 C   0  0  0  0  0  0  0  0  0  0  0  0
  154.4182  140.0312  183.1597 C   0  0  0  0  0  0  0  0  0  0  0  0
  153.9175  138.9276  183.8189 C   0  0  0  0  0  0  0  0  0  0  0  0
  154.6435  138.3909  184.8734 C   0  0  0  0  0  0  0  0  0  0  0  0
  155.8320  138.9717  185.2269 C   0  0  0  0  0  0  0  0  0  0  0  0
  156.3240  140.0913  184.5464 C   0  0  0  0  0  0  0  0  0  0  0  0
  157.9256  140.4406  181.7242 C   0  0  0  0  0  0  0  0  0  0  0  0
  157.2164  141.7238  181.9775 C   0  0  0  0  0  0  0  0  0  0  0  0
  157.6580  142.8972  181.3477 C   0  0  0  0  0  0  0  0  0  0  0  0
  159.1648  142.7750  180.2084 Br  0  0  0  0  0  0  0  0  0  0  0  0
  157.0084  144.0873  181.5606 C   0  0  0  0  0  0  0  0  0  0  0  0
  155.9155  144.1700  182.3886 C   0  0  0  0  0  0  0  0  0  0  0  0
  155.4697  143.0296  183.0139 C   0  0  0  0  0  0  0  0  0  0  0  0
  156.1224  141.8017  182.8082 C   0  0  0  0  0  0  0  0  0  0  0  0
 25 26  1  0  0  0
 26 27  2  0  0  0
 27 28  1  0  0  0
 27 29  1  0  0  0
 29 30  2  0  0  0
 30 31  1  0  0  0
 31 32  2  0  0  0
 32 19  1  0  0  0
 19 20  2  0  0  0
 20 21  1  0  0  0
 21 22  2  0  0  0
 22 18  1  0  0  0
 18  1  1  0  0  0
  1  2  1  0  0  0
  2  3  2  0  0  0
  2  5  1  0  0  0
  5  6  2  0  0  0
  6  7  1  0  0  0
  7  8  2  0  0  0
  8  9  1  0  0  0
  9 10  1  0  0  0
  7 11  1  0  0  0
 11 12  1  0  0  0
 12 13  1  0  0  0
 13 14  1  0  0  0
 14 15  1  0  0  0
 15 16  1  0  0  0
 16 17  1  0  0  0
 22 23  1  0  0  0
 23 24  2  0  0  0
 32 26  1  0  0  0
 24 19  1  0  0  0
  9  5  1  0  0  0
 17 11  1  0  0  0
  1  4  1  0  0  0
M  END
> <minimizedAffinity>
-9.05154

> <CNNscore>
0.3966965675

> <CNNaffinity>
5.9681043625

> <CNN_VS>
2.3675265312

> <CNNaffinity_variance>
0.0412212834

$$$$
[H]c1c([H])c(Br)c(C([H])([H])[H])c(-c2c([H])c([H])c(C([H])([H])N([H])C(=O)c3c([H])c(C4([H])C([H])([H])C([H])([H])C([H])([H])C([H])([H])C([H])([H])C4([H])[H])nn3C([H])([H])[H])c([H])c2[H])c1[H]


 32 35  0  0  0  0  0  0  0  0999 V2000
  153.2243  138.1656  187.2062 N   0  0  0  0  0  0  0  0  0  0  0  0
  153.5062  137.0172  187.9925 C   0  0  0  0  0  0  0  0  0  0  0  0
  153.7659  135.9477  187.4145 O   0  0  0  0  0  0  0  0  0  0  0  0
  153.0092  139.0505  187.7222 H   0  0  0  0  0  0  0  0  0  0  0  0
  153.4986  137.0614  189.4487 C   0  0  0  0  0  0  0  0  0  0  0  0
  152.5205  136.5441  190.2765 C   0  0  0  0  0  0  0  0  0  0  0  0
  152.8872  136.7924  191.5813 C   0  0  0  0  0  0  0  0  0  0  0  0
  154.0587  137.4435  191.5260 N   0  0  0  0  0  0  0  0  0  0  0  0
  154.4193  137.6018  190.2617 N   0  0  0  0  0  0  0  0  0  0  0  0
  155.6314  138.2601  189.7766 C   0  0  0  0  0  0  0  0  0  0  0  0
  152.0838  136.3841  192.7584 C   0  0  0  0  0  0  0  0  0  0  0  0
  150.6603  136.1567  192.3090 C   0  0  0  0  0  0  0  0  0  0  0  0
  149.8130  135.5759  193.4319 C   0  0  0  0  0  0  0  0  0  0  0  0
  150.1410  134.1382  193.6577 C   0  0  0  0  0  0  0  0  0  0  0  0
  151.0432  134.0195  194.8630 C   0  0  0  0  0  0  0  0  0  0  0  0
  152.2444  134.9156  194.7775 C   0  0  0  0  0  0  0  0  0  0  0  0
  152.7019  135.1304  193.3502 C   0  0  0  0  0  0  0  0  0  0  0  0
  153.2194  138.1765  185.7624 C   0  0  0  0  0  0  0  0  0  0  0  0
  156.5063  140.3034  183.9994 C   0  0  0  0  0  0  0  0  0  0  0  0
  155.1818  140.5252  183.6441 C   0  0  0  0  0  0  0  0  0  0  0  0
  154.1253  139.8431  184.2112 C   0  0  0  0  0  0  0  0  0  0  0  0
  154.3893  138.8882  185.1836 C   0  0  0  0  0  0  0  0  0  0  0  0
  155.6874  138.6526  185.5500 C   0  0  0  0  0  0  0  0  0  0  0  0
  156.7465  139.3548  184.9636 C   0  0  0  0  0  0  0  0  0  0  0  0
  158.4466  141.7012  185.6684 C   0  0  0  0  0  0  0  0  0  0  0  0
  158.5134  141.7115  184.1821 C   0  0  0  0  0  0  0  0  0  0  0  0
  159.5420  142.4158  183.5383 C   0  0  0  0  0  0  0  0  0  0  0  0
  160.7921  143.3386  184.6195 Br  0  0  0  0  0  0  0  0  0  0  0  0
  159.6258  142.4263  182.1684 C   0  0  0  0  0  0  0  0  0  0  0  0
  158.7156  141.7550  181.3889 C   0  0  0  0  0  0  0  0  0  0  0  0
  157.7012  141.0599  182.0037 C   0  0  0  0  0  0  0  0  0  0  0  0
  157.5991  141.0380  183.4055 C   0  0  0  0  0  0  0  0  0  0  0  0
 25 26  1  0  0  0
 26 27  2  0  0  0
 27 28  1  0  0  0
 27 29  1  0  0  0
 29 30  2  0  0  0
 30 31  1  0  0  0
 31 32  2  0  0  0
 32 19  1  0  0  0
 19 20  2  0  0  0
 20 21  1  0  0  0
 21 22  2  0  0  0
 22 18  1  0  0  0
 18  1  1  0  0  0
  1  2  1  0  0  0
  2  3  2  0  0  0
  2  5  1  0  0  0
  5  6  2  0  0  0
  6  7  1  0  0  0
  7  8  2  0  0  0
  8  9  1  0  0  0
  9 10  1  0  0  0
  7 11  1  0  0  0
 11 12  1  0  0  0
 12 13  1  0  0  0
 13 14  1  0  0  0
 14 15  1  0  0  0
 15 16  1  0  0  0
 16 17  1  0  0  0
 22 23  1  0  0  0
 23 24  2  0  0  0
 32 26  1  0  0  0
 24 19  1  0  0  0
  9  5  1  0  0  0
 17 11  1  0  0  0
  1  4  1  0  0  0
M  END
> <minimizedAffinity>
-9.05812

> <CNNscore>
0.3502086103

> <CNNaffinity>
6.0923328400

> <CNN_VS>
2.1335873604

> <CNNaffinity_variance>
0.0244875718

$$$$
[H]c1c([H])c(Br)c(C([H])([H])[H])c(-c2c([H])c([H])c(C([H])([H])N([H])C(=O)c3c([H])c(C4([H])C([H])([H])C([H])([H])C([H])([H])C([H])([H])C([H])([H])C4([H])[H])nn3C([H])([H])[H])c([H])c2[H])c1[H]


 32 35  0  0  0  0  0  0  0  0999 V2000
  153.4605  139.3445  185.0873 N   0  0  0  0  0  0  0  0  0  0  0  0
  153.1038  139.1585  186.4492 C   0  0  0  0  0  0  0  0  0  0  0  0
  152.5186  140.0802  187.0436 O   0  0  0  0  0  0  0  0  0  0  0  0
  153.9523  138.5504  184.6149 H   0  0  0  0  0  0  0  0  0  0  0  0
  153.4046  137.9235  187.1611 C   0  0  0  0  0  0  0  0  0  0  0  0
  152.7794  136.7042  186.9816 C   0  0  0  0  0  0  0  0  0  0  0  0
  153.3540  135.7962  187.8441 C   0  0  0  0  0  0  0  0  0  0  0  0
  154.3001  136.4653  188.5200 N   0  0  0  0  0  0  0  0  0  0  0  0
  154.3285  137.7254  188.1138 N   0  0  0  0  0  0  0  0  0  0  0  0
  155.2173  138.7789  188.6016 C   0  0  0  0  0  0  0  0  0  0  0  0
  152.9454  134.3745  187.9413 C   0  0  0  0  0  0  0  0  0  0  0  0
  152.4352  133.9312  186.5911 C   0  0  0  0  0  0  0  0  0  0  0  0
  152.1516  132.4361  186.5716 C   0  0  0  0  0  0  0  0  0  0  0  0
  153.4210  131.6537  186.5276 C   0  0  0  0  0  0  0  0  0  0  0  0
  153.7324  131.1367  187.9120 C   0  0  0  0  0  0  0  0  0  0  0  0
  153.7160  132.2193  188.9516 C   0  0  0  0  0  0  0  0  0  0  0  0
  154.1440  133.5602  188.3931 C   0  0  0  0  0  0  0  0  0  0  0  0
  153.1857  140.5462  184.3356 C   0  0  0  0  0  0  0  0  0  0  0  0
  156.8212  142.4076  183.0109 C   0  0  0  0  0  0  0  0  0  0  0  0
  156.7813  141.4570  184.0230 C   0  0  0  0  0  0  0  0  0  0  0  0
  155.6137  140.8576  184.4481 C   0  0  0  0  0  0  0  0  0  0  0  0
  154.4177  141.2156  183.8411 C   0  0  0  0  0  0  0  0  0  0  0  0
  154.4326  142.1507  182.8410 C   0  0  0  0  0  0  0  0  0  0  0  0
  155.6272  142.7480  182.4229 C   0  0  0  0  0  0  0  0  0  0  0  0
  157.1435  143.2933  180.2513 C   0  0  0  0  0  0  0  0  0  0  0  0
  158.2236  143.4243  181.2661 C   0  0  0  0  0  0  0  0  0  0  0  0
  159.4533  143.9929  180.9017 C   0  0  0  0  0  0  0  0  0  0  0  0
  159.6708  144.5521  179.1063 Br  0  0  0  0  0  0  0  0  0  0  0  0
  160.4566  144.1324  181.8279 C   0  0  0  0  0  0  0  0  0  0  0  0
  160.2931  143.7245  183.1293 C   0  0  0  0  0  0  0  0  0  0  0  0
  159.0943  143.1650  183.5032 C   0  0  0  0  0  0  0  0  0  0  0  0
  158.0553  143.0138  182.5684 C   0  0  0  0  0  0  0  0  0  0  0  0
 25 26  1  0  0  0
 26 27  2  0  0  0
 27 28  1  0  0  0
 27 29  1  0  0  0
 29 30  2  0  0  0
 30 31  1  0  0  0
 31 32  2  0  0  0
 32 19  1  0  0  0
 19 20  2  0  0  0
 20 21  1  0  0  0
 21 22  2  0  0  0
 22 18  1  0  0  0
 18  1  1  0  0  0
  1  2  1  0  0  0
  2  3  2  0  0  0
  2  5  1  0  0  0
  5  6  2  0  0  0
  6  7  1  0  0  0
  7  8  2  0  0  0
  8  9  1  0  0  0
  9 10  1  0  0  0
  7 11  1  0  0  0
 11 12  1  0  0  0
 12 13  1  0  0  0
 13 14  1  0  0  0
 14 15  1  0  0  0
 15 16  1  0  0  0
 16 17  1  0  0  0
 22 23  1  0  0  0
 23 24  2  0  0  0
 32 26  1  0  0  0
 24 19  1  0  0  0
  9  5  1  0  0  0
 17 11  1  0  0  0
  1  4  1  0  0  0
M  END
> <minimizedAffinity>
2.33867

> <CNNscore>
0.3184646070

> <CNNaffinity>
6.1089348793

> <CNN_VS>
1.9454795122

> <CNNaffinity_variance>
1.6736543179

$$$$
[H]c1c([H])c(Br)c(C([H])([H])[H])c(-c2c([H])c([H])c(C([H])([H])N([H])C(=O)c3c([H])c(C4([H])C([H])([H])C([H])([H])C([H])([H])C([H])([H])C([H])([H])C4([H])[H])nn3C([H])([H])[H])c([H])c2[H])c1[H]


 32 35  0  0  0  0  0  0  0  0999 V2000
  152.3019  137.8320  184.5732 N   0  0  0  0  0  0  0  0  0  0  0  0
  152.9404  137.9951  183.3154 C   0  0  0  0  0  0  0  0  0  0  0  0
  152.9736  137.0291  182.5336 O   0  0  0  0  0  0  0  0  0  0  0  0
  152.2909  138.6635  185.2090 H   0  0  0  0  0  0  0  0  0  0  0  0
  153.5528  139.2571  182.9217 C   0  0  0  0  0  0  0  0  0  0  0  0
  154.6647  139.8405  183.4986 C   0  0  0  0  0  0  0  0  0  0  0  0
  154.9200  141.0229  182.8389 C   0  0  0  0  0  0  0  0  0  0  0  0
  153.9777  141.1364  181.8908 N   0  0  0  0  0  0  0  0  0  0  0  0
  153.1688  140.0892  181.9415 N   0  0  0  0  0  0  0  0  0  0  0  0
  152.0167  139.8348  181.0779 C   0  0  0  0  0  0  0  0  0  0  0  0
  156.0402  141.9334  183.1762 C   0  0  0  0  0  0  0  0  0  0  0  0
  157.1623  141.1118  183.7645 C   0  0  0  0  0  0  0  0  0  0  0  0
  158.4094  141.9564  183.9825 C   0  0  0  0  0  0  0  0  0  0  0  0
  159.0879  142.2489  182.6865 C   0  0  0  0  0  0  0  0  0  0  0  0
  158.7406  143.6529  182.2516 C   0  0  0  0  0  0  0  0  0  0  0  0
  157.2611  143.9058  182.2390 C   0  0  0  0  0  0  0  0  0  0  0  0
  156.4666  142.6587  181.9128 C   0  0  0  0  0  0  0  0  0  0  0  0
  151.6797  136.6052  185.0119 C   0  0  0  0  0  0  0  0  0  0  0  0
  152.2582  136.0043  189.2238 C   0  0  0  0  0  0  0  0  0  0  0  0
  152.4945  137.2185  188.5917 C   0  0  0  0  0  0  0  0  0  0  0  0
  152.3075  137.4125  187.2387 C   0  0  0  0  0  0  0  0  0  0  0  0
  151.8623  136.3494  186.4650 C   0  0  0  0  0  0  0  0  0  0  0  0
  151.6227  135.1429  187.0665 C   0  0  0  0  0  0  0  0  0  0  0  0
  151.8179  134.9650  188.4408 C   0  0  0  0  0  0  0  0  0  0  0  0
  149.9672  135.7930  191.0156 C   0  0  0  0  0  0  0  0  0  0  0  0
  151.3723  135.7350  191.5014 C   0  0  0  0  0  0  0  0  0  0  0  0
  151.6271  135.5733  192.8716 C   0  0  0  0  0  0  0  0  0  0  0  0
  150.1413  135.4538  194.0385 Br  0  0  0  0  0  0  0  0  0  0  0  0
  152.9169  135.5059  193.3358 C   0  0  0  0  0  0  0  0  0  0  0  0
  153.9912  135.5935  192.4843 C   0  0  0  0  0  0  0  0  0  0  0  0
  153.7593  135.7523  191.1385 C   0  0  0  0  0  0  0  0  0  0  0  0
  152.4451  135.8237  190.6447 C   0  0  0  0  0  0  0  0  0  0  0  0
 25 26  1  0  0  0
 26 27  2  0  0  0
 27 28  1  0  0  0
 27 29  1  0  0  0
 29 30  2  0  0  0
 30 31  1  0  0  0
 31 32  2  0  0  0
 32 19  1  0  0  0
 19 20  2  0  0  0
 20 21  1  0  0  0
 21 22  2  0  0  0
 22 18  1  0  0  0
 18  1  1  0  0  0
  1  2  1  0  0  0
  2  3  2  0  0  0
  2  5  1  0  0  0
  5  6  2  0  0  0
  6  7  1  0  0  0
  7  8  2  0  0  0
  8  9  1  0  0  0
  9 10  1  0  0  0
  7 11  1  0  0  0
 11 12  1  0  0  0
 12 13  1  0  0  0
 13 14  1  0  0  0
 14 15  1  0  0  0
 15 16  1  0  0  0
 16 17  1  0  0  0
 22 23  1  0  0  0
 23 24  2  0  0  0
 32 26  1  0  0  0
 24 19  1  0  0  0
  9  5  1  0  0  0
 17 11  1  0  0  0
  1  4  1  0  0  0
M  END
> <minimizedAffinity>
-7.72081

> <CNNscore>
0.3095946908

> <CNNaffinity>
5.9889769554

> <CNN_VS>
1.8541554213

> <CNNaffinity_variance>
0.0951282308

$$$$
[H]c1c([H])c(Br)c(C([H])([H])[H])c(-c2c([H])c([H])c(C([H])([H])N([H])C(=O)c3c([H])c(C4([H])C([H])([H])C([H])([H])C([H])([H])C([H])([H])C([H])([H])C4([H])[H])nn3C([H])([H])[H])c([H])c2[H])c1[H]


 32 35  0  0  0  0  0  0  0  0999 V2000
  154.9528  138.6580  185.6024 N   0  0  0  0  0  0  0  0  0  0  0  0
  155.1896  139.3126  184.3647 C   0  0  0  0  0  0  0  0  0  0  0  0
  156.3426  139.6978  184.1047 O   0  0  0  0  0  0  0  0  0  0  0  0
  153.9718  138.3460  185.7920 H   0  0  0  0  0  0  0  0  0  0  0  0
  154.1225  139.5419  183.3996 C   0  0  0  0  0  0  0  0  0  0  0  0
  153.1921  138.6128  182.9745 C   0  0  0  0  0  0  0  0  0  0  0  0
  152.3606  139.2247  182.0620 C   0  0  0  0  0  0  0  0  0  0  0  0
  152.7907  140.4904  181.9499 N   0  0  0  0  0  0  0  0  0  0  0  0
  153.8346  140.6763  182.7432 N   0  0  0  0  0  0  0  0  0  0  0  0
  154.5917  141.9157  182.9119 C   0  0  0  0  0  0  0  0  0  0  0  0
  151.2330  138.5427  181.3830 C   0  0  0  0  0  0  0  0  0  0  0  0
  150.2551  138.0754  182.4343 C   0  0  0  0  0  0  0  0  0  0  0  0
  148.9912  137.5117  181.8011 C   0  0  0  0  0  0  0  0  0  0  0  0
  148.1333  138.6054  181.2597 C   0  0  0  0  0  0  0  0  0  0  0  0
  148.3242  138.6902  179.7639 C   0  0  0  0  0  0  0  0  0  0  0  0
  149.7690  138.7930  179.3697 C   0  0  0  0  0  0  0  0  0  0  0  0
  150.5988  139.5182  180.4081 C   0  0  0  0  0  0  0  0  0  0  0  0
  155.9731  138.4051  186.5922 C   0  0  0  0  0  0  0  0  0  0  0  0
  154.4646  135.9358  189.7645 C   0  0  0  0  0  0  0  0  0  0  0  0
  153.6549  136.4745  188.7726 C   0  0  0  0  0  0  0  0  0  0  0  0
  154.1393  137.2667  187.7523 C   0  0  0  0  0  0  0  0  0  0  0  0
  155.4988  137.5438  187.7074 C   0  0  0  0  0  0  0  0  0  0  0  0
  156.3164  137.0236  188.6747 C   0  0  0  0  0  0  0  0  0  0  0  0
  155.8069  136.2215  189.7021 C   0  0  0  0  0  0  0  0  0  0  0  0
  153.1189  137.1006  192.0747 C   0  0  0  0  0  0  0  0  0  0  0  0
  153.3163  135.6342  191.9175 C   0  0  0  0  0  0  0  0  0  0  0  0
  152.8445  134.7601  192.9083 C   0  0  0  0  0  0  0  0  0  0  0  0
  151.9866  135.5154  194.4173 Br  0  0  0  0  0  0  0  0  0  0  0  0
  153.0074  133.4040  192.7740 C   0  0  0  0  0  0  0  0  0  0  0  0
  153.6310  132.8616  191.6768 C   0  0  0  0  0  0  0  0  0  0  0  0
  154.0994  133.7040  190.6965 C   0  0  0  0  0  0  0  0  0  0  0  0
  153.9420  135.0957  190.8169 C   0  0  0  0  0  0  0  0  0  0  0  0
 25 26  1  0  0  0
 26 27  2  0  0  0
 27 28  1  0  0  0
 27 29  1  0  0  0
 29 30  2  0  0  0
 30 31  1  0  0  0
 31 32  2  0  0  0
 32 19  1  0  0  0
 19 20  2  0  0  0
 20 21  1  0  0  0
 21 22  2  0  0  0
 22 18  1  0  0  0
 18  1  1  0  0  0
  1  2  1  0  0  0
  2  3  2  0  0  0
  2  5  1  0  0  0
  5  6  2  0  0  0
  6  7  1  0  0  0
  7  8  2  0  0  0
  8  9  1  0  0  0
  9 10  1  0  0  0
  7 11  1  0  0  0
 11 12  1  0  0  0
 12 13  1  0  0  0
 13 14  1  0  0  0
 14 15  1  0  0  0
 15 16  1  0  0  0
 16 17  1  0  0  0
 22 23  1  0  0  0
 23 24  2  0  0  0
 32 26  1  0  0  0
 24 19  1  0  0  0
  9  5  1  0  0  0
 17 11  1  0  0  0
  1  4  1  0  0  0
M  END
> <minimizedAffinity>
-7.46485

> <CNNscore>
0.2748328447

> <CNNaffinity>
5.6049318314

> <CNN_VS>
1.5404193401

> <CNNaffinity_variance>
0.0309422910

$$$$
[H]c1c([H])c(Br)c(C([H])([H])[H])c(-c2c([H])c([H])c(C([H])([H])N([H])C(=O)c3c([H])c(C4([H])C([H])([H])C([H])([H])C([H])([H])C([H])([H])C([H])([H])C4([H])[H])nn3C([H])([H])[H])c([H])c2[H])c1[H]


 32 35  0  0  0  0  0  0  0  0999 V2000
  153.5286  137.1084  183.8045 N   0  0  0  0  0  0  0  0  0  0  0  0
  152.8501  138.1429  183.1073 C   0  0  0  0  0  0  0  0  0  0  0  0
  151.6616  137.9671  182.7882 O   0  0  0  0  0  0  0  0  0  0  0  0
  154.5282  137.2865  184.0588 H   0  0  0  0  0  0  0  0  0  0  0  0
  153.5079  139.3956  182.7597 C   0  0  0  0  0  0  0  0  0  0  0  0
  154.5912  139.9568  183.4087 C   0  0  0  0  0  0  0  0  0  0  0  0
  154.9081  141.1373  182.7727 C   0  0  0  0  0  0  0  0  0  0  0  0
  154.0296  141.2714  181.7677 N   0  0  0  0  0  0  0  0  0  0  0  0
  153.2011  140.2384  181.7617 N   0  0  0  0  0  0  0  0  0  0  0  0
  152.1016  140.0081  180.8258 C   0  0  0  0  0  0  0  0  0  0  0  0
  156.0204  142.0264  183.1848 C   0  0  0  0  0  0  0  0  0  0  0  0
  157.1616  141.1673  183.6744 C   0  0  0  0  0  0  0  0  0  0  0  0
  158.4001  142.0046  183.9596 C   0  0  0  0  0  0  0  0  0  0  0  0
  159.0564  142.4344  182.6908 C   0  0  0  0  0  0  0  0  0  0  0  0
  158.6841  143.8692  182.4019 C   0  0  0  0  0  0  0  0  0  0  0  0
  157.2012  144.1001  182.4331 C   0  0  0  0  0  0  0  0  0  0  0  0
  156.4193  142.8798  181.9946 C   0  0  0  0  0  0  0  0  0  0  0  0
  152.9243  135.8501  184.1736 C   0  0  0  0  0  0  0  0  0  0  0  0
  151.4578  135.7143  188.2069 C   0  0  0  0  0  0  0  0  0  0  0  0
  152.3332  134.7696  187.6862 C   0  0  0  0  0  0  0  0  0  0  0  0
  152.8057  134.8136  186.3908 C   0  0  0  0  0  0  0  0  0  0  0  0
  152.3920  135.8472  185.5617 C   0  0  0  0  0  0  0  0  0  0  0  0
  151.5293  136.7901  186.0533 C   0  0  0  0  0  0  0  0  0  0  0  0
  151.0606  136.7292  187.3706 C   0  0  0  0  0  0  0  0  0  0  0  0
  152.9536  136.9975  190.3563 C   0  0  0  0  0  0  0  0  0  0  0  0
  151.6884  136.2517  190.5949 C   0  0  0  0  0  0  0  0  0  0  0  0
  151.1780  136.1494  191.8978 C   0  0  0  0  0  0  0  0  0  0  0  0
  152.1569  136.9665  193.2969 Br  0  0  0  0  0  0  0  0  0  0  0  0
  150.0061  135.4754  192.1344 C   0  0  0  0  0  0  0  0  0  0  0  0
  149.3002  134.8842  191.1151 C   0  0  0  0  0  0  0  0  0  0  0  0
  149.7864  134.9748  189.8323 C   0  0  0  0  0  0  0  0  0  0  0  0
  150.9851  135.6608  189.5707 C   0  0  0  0  0  0  0  0  0  0  0  0
 25 26  1  0  0  0
 26 27  2  0  0  0
 27 28  1  0  0  0
 27 29  1  0  0  0
 29 30  2  0  0  0
 30 31  1  0  0  0
 31 32  2  0  0  0
 32 19  1  0  0  0
 19 20  2  0  0  0
 20 21  1  0  0  0
 21 22  2  0  0  0
 22 18  1  0  0  0
 18  1  1  0  0  0
  1  2  1  0  0  0
  2  3  2  0  0  0
  2  5  1  0  0  0
  5  6  2  0  0  0
  6  7  1  0  0  0
  7  8  2  0  0  0
  8  9  1  0  0  0
  9 10  1  0  0  0
  7 11  1  0  0  0
 11 12  1  0  0  0
 12 13  1  0  0  0
 13 14  1  0  0  0
 14 15  1  0  0  0
 15 16  1  0  0  0
 16 17  1  0  0  0
 22 23  1  0  0  0
 23 24  2  0  0  0
 32 26  1  0  0  0
 24 19  1  0  0  0
  9  5  1  0  0  0
 17 11  1  0  0  0
  1  4  1  0  0  0
M  END
> <minimizedAffinity>
-7.62880

> <CNNscore>
0.2735659778

> <CNNaffinity>
5.9627966881

> <CNN_VS>
1.6312183142

> <CNNaffinity_variance>
0.0594601743

$$$$
[H]c1c([H])c(Br)c(C([H])([H])[H])c(-c2c([H])c([H])c(C([H])([H])N([H])C(=O)c3c([H])c(C4([H])C([H])([H])C([H])([H])C([H])([H])C([H])([H])C([H])([H])C4([H])[H])nn3C([H])([H])[H])c([H])c2[H])c1[H]


 32 35  0  0  0  0  0  0  0  0999 V2000
  154.2492  138.2992  186.9011 N   0  0  0  0  0  0  0  0  0  0  0  0
  154.7975  137.1944  187.6049 C   0  0  0  0  0  0  0  0  0  0  0  0
  155.5510  136.4146  186.9973 O   0  0  0  0  0  0  0  0  0  0  0  0
  153.6184  138.9372  187.4402 H   0  0  0  0  0  0  0  0  0  0  0  0
  154.5008  136.9547  189.0111 C   0  0  0  0  0  0  0  0  0  0  0  0
  153.4550  136.2004  189.5081 C   0  0  0  0  0  0  0  0  0  0  0  0
  153.5255  136.2231  190.8840 C   0  0  0  0  0  0  0  0  0  0  0  0
  154.5917  136.9758  191.1942 N   0  0  0  0  0  0  0  0  0  0  0  0
  155.1682  137.4081  190.0832 N   0  0  0  0  0  0  0  0  0  0  0  0
  156.3566  138.2547  189.9901 C   0  0  0  0  0  0  0  0  0  0  0  0
  152.5676  135.5235  191.7731 C   0  0  0  0  0  0  0  0  0  0  0  0
  153.2993  135.1010  193.0246 C   0  0  0  0  0  0  0  0  0  0  0  0
  152.3411  134.5221  194.0555 C   0  0  0  0  0  0  0  0  0  0  0  0
  151.5348  135.6003  194.6980 C   0  0  0  0  0  0  0  0  0  0  0  0
  150.1597  135.6289  194.0742 C   0  0  0  0  0  0  0  0  0  0  0  0
  150.2052  135.7084  192.5759 C   0  0  0  0  0  0  0  0  0  0  0  0
  151.4172  136.4662  192.0762 C   0  0  0  0  0  0  0  0  0  0  0  0
  154.5110  138.5828  185.5098 C   0  0  0  0  0  0  0  0  0  0  0  0
  151.3487  137.4870  182.8199 C   0  0  0  0  0  0  0  0  0  0  0  0
  152.3779  138.3511  182.4682 C   0  0  0  0  0  0  0  0  0  0  0  0
  153.3949  138.7025  183.3316 C   0  0  0  0  0  0  0  0  0  0  0  0
  153.3976  138.1720  184.6144 C   0  0  0  0  0  0  0  0  0  0  0  0
  152.3931  137.3177  184.9835 C   0  0  0  0  0  0  0  0  0  0  0  0
  151.3696  136.9726  184.0936 C   0  0  0  0  0  0  0  0  0  0  0  0
  149.1406  139.3091  182.2652 C   0  0  0  0  0  0  0  0  0  0  0  0
  149.2469  137.9645  181.6372 C   0  0  0  0  0  0  0  0  0  0  0  0
  148.2561  137.5367  180.7406 C   0  0  0  0  0  0  0  0  0  0  0  0
  146.8126  138.7109  180.3928 Br  0  0  0  0  0  0  0  0  0  0  0  0
  148.3444  136.3042  180.1431 C   0  0  0  0  0  0  0  0  0  0  0  0
  149.3942  135.4563  180.3995 C   0  0  0  0  0  0  0  0  0  0  0  0
  150.3736  135.8598  181.2759 C   0  0  0  0  0  0  0  0  0  0  0  0
  150.3000  137.1184  181.8976 C   0  0  0  0  0  0  0  0  0  0  0  0
 25 26  1  0  0  0
 26 27  2  0  0  0
 27 28  1  0  0  0
 27 29  1  0  0  0
 29 30  2  0  0  0
 30 31  1  0  0  0
 31 32  2  0  0  0
 32 19  1  0  0  0
 19 20  2  0  0  0
 20 21  1  0  0  0
 21 22  2  0  0  0
 22 18  1  0  0  0
 18  1  1  0  0  0
  1  2  1  0  0  0
  2  3  2  0  0  0
  2  5  1  0  0  0
  5  6  2  0  0  0
  6  7  1  0  0  0
  7  8  2  0  0  0
  8  9  1  0  0  0
  9 10  1  0  0  0
  7 11  1  0  0  0
 11 12  1  0  0  0
 12 13  1  0  0  0
 13 14  1  0  0  0
 14 15  1  0  0  0
 15 16  1  0  0  0
 16 17  1  0  0  0
 22 23  1  0  0  0
 23 24  2  0  0  0
 32 26  1  0  0  0
 24 19  1  0  0  0
  9  5  1  0  0  0
 17 11  1  0  0  0
  1  4  1  0  0  0
M  END
> <minimizedAffinity>
-6.66727

> <CNNscore>
0.2712468505

> <CNNaffinity>
5.5554227829

> <CNN_VS>
1.5068908930

> <CNNaffinity_variance>
0.0127667589

$$$$
[H]c1c([H])c(Br)c(C([H])([H])[H])c(-c2c([H])c([H])c(C([H])([H])N([H])C(=O)c3c([H])c(C4([H])C([H])([H])C([H])([H])C([H])([H])C([H])([H])C([H])([H])C4([H])[H])nn3C([H])([H])[H])c([H])c2[H])c1[H]


 32 35  0  0  0  0  0  0  0  0999 V2000
  154.7091  138.2236  187.0853 N   0  0  0  0  0  0  0  0  0  0  0  0
  155.2651  137.1852  187.8785 C   0  0  0  0  0  0  0  0  0  0  0  0
  156.1104  136.4311  187.3665 O   0  0  0  0  0  0  0  0  0  0  0  0
  154.0000  138.8413  187.5449 H   0  0  0  0  0  0  0  0  0  0  0  0
  154.8721  136.9836  189.2669 C   0  0  0  0  0  0  0  0  0  0  0  0
  153.7214  136.3580  189.7074 C   0  0  0  0  0  0  0  0  0  0  0  0
  153.7249  136.3740  191.0852 C   0  0  0  0  0  0  0  0  0  0  0  0
  154.8551  136.9967  191.4519 N   0  0  0  0  0  0  0  0  0  0  0  0
  155.5334  137.3570  190.3731 N   0  0  0  0  0  0  0  0  0  0  0  0
  156.8161  138.0581  190.3436 C   0  0  0  0  0  0  0  0  0  0  0  0
  152.6481  135.7927  191.9221 C   0  0  0  0  0  0  0  0  0  0  0  0
  151.4469  136.7052  191.8555 C   0  0  0  0  0  0  0  0  0  0  0  0
  150.2458  136.0890  192.5583 C   0  0  0  0  0  0  0  0  0  0  0  0
  149.6566  134.9892  191.7404 C   0  0  0  0  0  0  0  0  0  0  0  0
  150.1143  133.6607  192.2939 C   0  0  0  0  0  0  0  0  0  0  0  0
  151.6055  133.5796  192.4458 C   0  0  0  0  0  0  0  0  0  0  0  0
  152.3357  134.4006  191.4039 C   0  0  0  0  0  0  0  0  0  0  0  0
  155.0636  138.4673  185.7071 C   0  0  0  0  0  0  0  0  0  0  0  0
  151.8261  138.0466  182.9182 C   0  0  0  0  0  0  0  0  0  0  0  0
  152.9508  138.8210  182.6631 C   0  0  0  0  0  0  0  0  0  0  0  0
  153.9918  138.9554  183.5582 C   0  0  0  0  0  0  0  0  0  0  0  0
  153.9203  138.2887  184.7737 C   0  0  0  0  0  0  0  0  0  0  0  0
  152.8211  137.5193  185.0471 C   0  0  0  0  0  0  0  0  0  0  0  0
  151.7745  137.3948  184.1264 C   0  0  0  0  0  0  0  0  0  0  0  0
  151.0859  135.4232  181.8819 C   0  0  0  0  0  0  0  0  0  0  0  0
  150.4020  136.6745  181.4573 C   0  0  0  0  0  0  0  0  0  0  0  0
  149.3580  136.6121  180.5222 C   0  0  0  0  0  0  0  0  0  0  0  0
  148.8879  134.9121  179.8349 Br  0  0  0  0  0  0  0  0  0  0  0  0
  148.7082  137.7551  180.1281 C   0  0  0  0  0  0  0  0  0  0  0  0
  149.0539  138.9860  180.6302 C   0  0  0  0  0  0  0  0  0  0  0  0
  150.0750  139.0651  181.5473 C   0  0  0  0  0  0  0  0  0  0  0  0
  150.7522  137.9053  181.9626 C   0  0  0  0  0  0  0  0  0  0  0  0
 25 26  1  0  0  0
 26 27  2  0  0  0
 27 28  1  0  0  0
 27 29  1  0  0  0
 29 30  2  0  0  0
 30 31  1  0  0  0
 31 32  2  0  0  0
 32 19  1  0  0  0
 19 20  2  0  0  0
 20 21  1  0  0  0
 21 22  2  0  0  0
 22 18  1  0  0  0
 18  1  1  0  0  0
  1  2  1  0  0  0
  2  3  2  0  0  0
  2  5  1  0  0  0
  5  6  2  0  0  0
  6  7  1  0  0  0
  7  8  2  0  0  0
  8  9  1  0  0  0
  9 10  1  0  0  0
  7 11  1  0  0  0
 11 12  1  0  0  0
 12 13  1  0  0  0
 13 14  1  0  0  0
 14 15  1  0  0  0
 15 16  1  0  0  0
 16 17  1  0  0  0
 22 23  1  0  0  0
 23 24  2  0  0  0
 32 26  1  0  0  0
 24 19  1  0  0  0
  9  5  1  0  0  0
 17 11  1  0  0  0
  1  4  1  0  0  0
M  END
> <minimizedAffinity>
-6.54442

> <CNNscore>
0.2596249282

> <CNNaffinity>
5.5980882645

> <CNN_VS>
1.4534032345

> <CNNaffinity_variance>
0.0365407877

$$$$
[H]c1c([H])c(Br)c(C([H])([H])[H])c(-c2c([H])c([H])c(C([H])([H])N([H])C(=O)c3c([H])c(C4([H])C([H])([H])C([H])([H])C([H])([H])C([H])([H])C([H])([H])C4([H])[H])nn3C([H])([H])[H])c([H])c2[H])c1[H]


 32 35  0  0  0  0  0  0  0  0999 V2000
  153.7956  139.1831  185.7540 N   0  0  0  0  0  0  0  0  0  0  0  0
  154.0614  138.8650  184.3958 C   0  0  0  0  0  0  0  0  0  0  0  0
  153.7004  137.7578  183.9608 O   0  0  0  0  0  0  0  0  0  0  0  0
  154.1121  140.1225  186.0900 H   0  0  0  0  0  0  0  0  0  0  0  0
  154.7414  139.7974  183.5064 C   0  0  0  0  0  0  0  0  0  0  0  0
  156.0520  140.2218  183.6154 C   0  0  0  0  0  0  0  0  0  0  0  0
  156.3065  141.0981  182.5831 C   0  0  0  0  0  0  0  0  0  0  0  0
  155.1691  141.1900  181.8778 N   0  0  0  0  0  0  0  0  0  0  0  0
  154.2432  140.4186  182.4264 N   0  0  0  0  0  0  0  0  0  0  0  0
  152.8694  140.2385  181.9592 C   0  0  0  0  0  0  0  0  0  0  0  0
  157.6126  141.7654  182.3674 C   0  0  0  0  0  0  0  0  0  0  0  0
  157.4519  142.7833  181.2637 C   0  0  0  0  0  0  0  0  0  0  0  0
  158.7104  143.6231  181.0996 C   0  0  0  0  0  0  0  0  0  0  0  0
  158.8406  144.6106  182.2101 C   0  0  0  0  0  0  0  0  0  0  0  0
  159.8396  144.0937  183.2179 C   0  0  0  0  0  0  0  0  0  0  0  0
  159.5326  142.6968  183.6734 C   0  0  0  0  0  0  0  0  0  0  0  0
  158.0468  142.4049  183.6738 C   0  0  0  0  0  0  0  0  0  0  0  0
  153.1254  138.2973  186.6763 C   0  0  0  0  0  0  0  0  0  0  0  0
  155.8947  135.6813  188.6573 C   0  0  0  0  0  0  0  0  0  0  0  0
  156.0585  137.0598  188.6052 C   0  0  0  0  0  0  0  0  0  0  0  0
  155.1683  137.9008  187.9700 C   0  0  0  0  0  0  0  0  0  0  0  0
  154.0535  137.3520  187.3512 C   0  0  0  0  0  0  0  0  0  0  0  0
  153.8712  135.9955  187.3896 C   0  0  0  0  0  0  0  0  0  0  0  0
  154.7851  135.1580  188.0390 C   0  0  0  0  0  0  0  0  0  0  0  0
  157.7346  133.9896  187.1550 C   0  0  0  0  0  0  0  0  0  0  0  0
  157.6937  134.0057  188.6422 C   0  0  0  0  0  0  0  0  0  0  0  0
  158.5658  133.1817  189.3696 C   0  0  0  0  0  0  0  0  0  0  0  0
  159.7486  132.0696  188.3961 Br  0  0  0  0  0  0  0  0  0  0  0  0
  158.5500  133.1926  190.7420 C   0  0  0  0  0  0  0  0  0  0  0  0
  157.6892  134.0016  191.4430 C   0  0  0  0  0  0  0  0  0  0  0  0
  156.8278  134.8151  190.7457 C   0  0  0  0  0  0  0  0  0  0  0  0
  156.8294  134.8174  189.3400 C   0  0  0  0  0  0  0  0  0  0  0  0
 25 26  1  0  0  0
 26 27  2  0  0  0
 27 28  1  0  0  0
 27 29  1  0  0  0
 29 30  2  0  0  0
 30 31  1  0  0  0
 31 32  2  0  0  0
 32 19  1  0  0  0
 19 20  2  0  0  0
 20 21  1  0  0  0
 21 22  2  0  0  0
 22 18  1  0  0  0
 18  1  1  0  0  0
  1  2  1  0  0  0
  2  3  2  0  0  0
  2  5  1  0  0  0
  5  6  2  0  0  0
  6  7  1  0  0  0
  7  8  2  0  0  0
  8  9  1  0  0  0
  9 10  1  0  0  0
  7 11  1  0  0  0
 11 12  1  0  0  0
 12 13  1  0  0  0
 13 14  1  0  0  0
 14 15  1  0  0  0
 15 16  1  0  0  0
 16 17  1  0  0  0
 22 23  1  0  0  0
 23 24  2  0  0  0
 32 26  1  0  0  0
 24 19  1  0  0  0
  9  5  1  0  0  0
 17 11  1  0  0  0
  1  4  1  0  0  0
M  END
> <minimizedAffinity>
-8.32670

> <CNNscore>
0.2399475574

> <CNNaffinity>
6.1243133545

> <CNN_VS>
1.4695140123

> <CNNaffinity_variance>
0.0604960248

$$$$
[H]c1nc([H])c2c([H])c([H])c([H])c(N([H])C(=O)N([H])c3c([H])c(C(C([H])([H])[H])(C([H])([H])[H])C([H])([H])[H])c([H])c([H])c3C([H])([H])[H])c2c1[H]


 27 29  0  0  0  0  0  0  0  0999 V2000
  155.1199  139.2370  184.6496 N   0  0  0  0  0  0  0  0  0  0  0  0
  155.8885  138.6221  185.6888 C   0  0  0  0  0  0  0  0  0  0  0  0
  157.0465  138.9752  185.8806 O   0  0  0  0  0  0  0  0  0  0  0  0
  155.3102  137.6024  186.4986 N   0  0  0  0  0  0  0  0  0  0  0  0
  154.1063  138.8769  184.5321 H   0  0  0  0  0  0  0  0  0  0  0  0
  154.3030  137.3953  186.2169 H   0  0  0  0  0  0  0  0  0  0  0  0
  155.8922  136.8903  187.5433 C   0  0  0  0  0  0  0  0  0  0  0  0
  156.6687  135.7642  187.4079 C   0  0  0  0  0  0  0  0  0  0  0  0
  157.1908  135.1076  188.5061 C   0  0  0  0  0  0  0  0  0  0  0  0
  156.9698  135.5314  189.7630 C   0  0  0  0  0  0  0  0  0  0  0  0
  156.1885  136.6685  189.9468 C   0  0  0  0  0  0  0  0  0  0  0  0
  155.9591  137.1136  191.2529 C   0  0  0  0  0  0  0  0  0  0  0  0
  155.2260  138.1911  191.4845 N   0  0  0  0  0  0  0  0  0  0  0  0
  154.7041  138.8546  190.4553 C   0  0  0  0  0  0  0  0  0  0  0  0
  154.9110  138.4410  189.1400 C   0  0  0  0  0  0  0  0  0  0  0  0
  155.6616  137.3329  188.8583 C   0  0  0  0  0  0  0  0  0  0  0  0
  153.2180  140.0838  182.7840 C   0  0  0  0  0  0  0  0  0  0  0  0
  154.5874  140.6758  182.8394 C   0  0  0  0  0  0  0  0  0  0  0  0
  154.9206  141.6552  181.9593 C   0  0  0  0  0  0  0  0  0  0  0  0
  156.1711  142.2368  181.9668 C   0  0  0  0  0  0  0  0  0  0  0  0
  157.1283  141.8489  182.8640 C   0  0  0  0  0  0  0  0  0  0  0  0
  156.7918  140.8449  183.7690 C   0  0  0  0  0  0  0  0  0  0  0  0
  155.5393  140.2441  183.7808 C   0  0  0  0  0  0  0  0  0  0  0  0
  158.4756  142.4245  182.9300 C   0  0  0  0  0  0  0  0  0  0  0  0
  159.3381  141.6481  181.9399 C   0  0  0  0  0  0  0  0  0  0  0  0
  159.0994  142.3104  184.2855 C   0  0  0  0  0  0  0  0  0  0  0  0
  158.5116  143.8801  182.5254 C   0  0  0  0  0  0  0  0  0  0  0  0
 17 18  1  0  0  0
 18 19  2  0  0  0
 19 20  1  0  0  0
 20 21  2  0  0  0
 21 22  1  0  0  0
 22 23  2  0  0  0
 23  1  1  0  0  0
  1  2  1  0  0  0
  2  3  2  0  0  0
  2  4  1  0  0  0
  4  7  1  0  0  0
  7  8  2  0  0  0
  8  9  1  0  0  0
  9 10  2  0  0  0
 10 11  1  0  0  0
 11 12  2  0  0  0
 12 13  1  0  0  0
 13 14  2  0  0  0
 14 15  1  0  0  0
 15 16  2  0  0  0
 21 24  1  0  0  0
 24 25  1  0  0  0
 24 26  1  0  0  0
 24 27  1  0  0  0
 23 18  1  0  0  0
 16  7  1  0  0  0
 16 11  1  0  0  0
  1  5  1  0  0  0
  4  6  1  0  0  0
M  END
> <minimizedAffinity>
-7.60078

> <CNNscore>
0.4955863059

> <CNNaffinity>
5.8780474663

> <CNN_VS>
2.9130797386

> <CNNaffinity_variance>
0.0605150685

$$$$
[H]c1nc([H])c2c([H])c([H])c([H])c(N([H])C(=O)N([H])c3c([H])c(C(C([H])([H])[H])(C([H])([H])[H])C([H])([H])[H])c([H])c([H])c3C([H])([H])[H])c2c1[H]


 27 29  0  0  0  0  0  0  0  0999 V2000
  153.2874  140.8384  182.5045 N   0  0  0  0  0  0  0  0  0  0  0  0
  152.5295  140.0384  181.5910 C   0  0  0  0  0  0  0  0  0  0  0  0
  153.0858  139.1560  180.9474 O   0  0  0  0  0  0  0  0  0  0  0  0
  151.1324  140.2662  181.4296 N   0  0  0  0  0  0  0  0  0  0  0  0
  152.7358  141.6011  183.0383 H   0  0  0  0  0  0  0  0  0  0  0  0
  150.7864  141.0642  182.0462 H   0  0  0  0  0  0  0  0  0  0  0  0
  150.2361  139.6031  180.5964 C   0  0  0  0  0  0  0  0  0  0  0  0
  150.3572  139.4749  179.2332 C   0  0  0  0  0  0  0  0  0  0  0  0
  149.4052  138.8144  178.4800 C   0  0  0  0  0  0  0  0  0  0  0  0
  148.3122  138.2623  179.0358 C   0  0  0  0  0  0  0  0  0  0  0  0
  148.1491  138.3683  180.4139 C   0  0  0  0  0  0  0  0  0  0  0  0
  147.0147  137.7925  180.9954 C   0  0  0  0  0  0  0  0  0  0  0  0
  146.8117  137.8611  182.3017 N   0  0  0  0  0  0  0  0  0  0  0  0
  147.7040  138.4878  183.0651 C   0  0  0  0  0  0  0  0  0  0  0  0
  148.8464  139.0735  182.5213 C   0  0  0  0  0  0  0  0  0  0  0  0
  149.0926  139.0252  181.1768 C   0  0  0  0  0  0  0  0  0  0  0  0
  153.9662  139.1853  184.6542 C   0  0  0  0  0  0  0  0  0  0  0  0
  155.0011  139.9060  183.8552 C   0  0  0  0  0  0  0  0  0  0  0  0
  156.3112  139.7547  184.1799 C   0  0  0  0  0  0  0  0  0  0  0  0
  157.3078  140.3967  183.4752 C   0  0  0  0  0  0  0  0  0  0  0  0
  157.0151  141.2139  182.4177 C   0  0  0  0  0  0  0  0  0  0  0  0
  155.6730  141.3725  182.0804 C   0  0  0  0  0  0  0  0  0  0  0  0
  154.6518  140.7366  182.7751 C   0  0  0  0  0  0  0  0  0  0  0  0
  158.0226  141.9249  181.6239 C   0  0  0  0  0  0  0  0  0  0  0  0
  157.6308  143.3992  181.6286 C   0  0  0  0  0  0  0  0  0  0  0  0
  158.0874  141.4614  180.2024 C   0  0  0  0  0  0  0  0  0  0  0  0
  159.4119  141.8184  182.2088 C   0  0  0  0  0  0  0  0  0  0  0  0
 17 18  1  0  0  0
 18 19  2  0  0  0
 19 20  1  0  0  0
 20 21  2  0  0  0
 21 22  1  0  0  0
 22 23  2  0  0  0
 23  1  1  0  0  0
  1  2  1  0  0  0
  2  3  2  0  0  0
  2  4  1  0  0  0
  4  7  1  0  0  0
  7  8  2  0  0  0
  8  9  1  0  0  0
  9 10  2  0  0  0
 10 11  1  0  0  0
 11 12  2  0  0  0
 12 13  1  0  0  0
 13 14  2  0  0  0
 14 15  1  0  0  0
 15 16  2  0  0  0
 21 24  1  0  0  0
 24 25  1  0  0  0
 24 26  1  0  0  0
 24 27  1  0  0  0
 23 18  1  0  0  0
 16  7  1  0  0  0
 16 11  1  0  0  0
  1  5  1  0  0  0
  4  6  1  0  0  0
M  END
> <minimizedAffinity>
-8.23749

> <CNNscore>
0.4321862459

> <CNNaffinity>
5.7757463455

> <CNN_VS>
2.4961981773

> <CNNaffinity_variance>
0.0349854045

$$$$
[H]c1nc([H])c2c([H])c([H])c([H])c(N([H])C(=O)N([H])c3c([H])c(C(C([H])([H])[H])(C([H])([H])[H])C([H])([H])[H])c([H])c([H])c3C([H])([H])[H])c2c1[H]


 27 29  0  0  0  0  0  0  0  0999 V2000
  153.5656  137.6216  184.6119 N   0  0  0  0  0  0  0  0  0  0  0  0
  153.1956  137.7364  185.9898 C   0  0  0  0  0  0  0  0  0  0  0  0
  152.4730  138.6578  186.3521 O   0  0  0  0  0  0  0  0  0  0  0  0
  153.6653  136.7829  186.9386 N   0  0  0  0  0  0  0  0  0  0  0  0
  154.2073  136.7875  184.3603 H   0  0  0  0  0  0  0  0  0  0  0  0
  154.2852  136.0436  186.4847 H   0  0  0  0  0  0  0  0  0  0  0  0
  153.4210  136.7289  188.3077 C   0  0  0  0  0  0  0  0  0  0  0  0
  152.2603  136.2852  188.8955 C   0  0  0  0  0  0  0  0  0  0  0  0
  152.0968  136.2859  190.2678 C   0  0  0  0  0  0  0  0  0  0  0  0
  153.0593  136.7184  191.1012 C   0  0  0  0  0  0  0  0  0  0  0  0
  154.2517  137.1768  190.5488 C   0  0  0  0  0  0  0  0  0  0  0  0
  155.2561  137.6247  191.4133 C   0  0  0  0  0  0  0  0  0  0  0  0
  156.4106  138.0681  190.9416 N   0  0  0  0  0  0  0  0  0  0  0  0
  156.6108  138.0843  189.6258 C   0  0  0  0  0  0  0  0  0  0  0  0
  155.6334  137.6460  188.7334 C   0  0  0  0  0  0  0  0  0  0  0  0
  154.4272  137.1811  189.1803 C   0  0  0  0  0  0  0  0  0  0  0  0
  155.2272  139.8300  184.1914 C   0  0  0  0  0  0  0  0  0  0  0  0
  154.0188  139.5802  183.3512 C   0  0  0  0  0  0  0  0  0  0  0  0
  153.7166  140.4493  182.3522 C   0  0  0  0  0  0  0  0  0  0  0  0
  152.6128  140.2661  181.5459 C   0  0  0  0  0  0  0  0  0  0  0  0
  151.7760  139.1980  181.7211 C   0  0  0  0  0  0  0  0  0  0  0  0
  152.0813  138.3035  182.7442 C   0  0  0  0  0  0  0  0  0  0  0  0
  153.1870  138.4669  183.5691 C   0  0  0  0  0  0  0  0  0  0  0  0
  150.5878  138.9405  180.9008 C   0  0  0  0  0  0  0  0  0  0  0  0
  150.4643  137.4263  180.7631 C   0  0  0  0  0  0  0  0  0  0  0  0
  150.6801  139.5303  179.5285 C   0  0  0  0  0  0  0  0  0  0  0  0
  149.3147  139.4477  181.5376 C   0  0  0  0  0  0  0  0  0  0  0  0
 17 18  1  0  0  0
 18 19  2  0  0  0
 19 20  1  0  0  0
 20 21  2  0  0  0
 21 22  1  0  0  0
 22 23  2  0  0  0
 23  1  1  0  0  0
  1  2  1  0  0  0
  2  3  2  0  0  0
  2  4  1  0  0  0
  4  7  1  0  0  0
  7  8  2  0  0  0
  8  9  1  0  0  0
  9 10  2  0  0  0
 10 11  1  0  0  0
 11 12  2  0  0  0
 12 13  1  0  0  0
 13 14  2  0  0  0
 14 15  1  0  0  0
 15 16  2  0  0  0
 21 24  1  0  0  0
 24 25  1  0  0  0
 24 26  1  0  0  0
 24 27  1  0  0  0
 23 18  1  0  0  0
 16  7  1  0  0  0
 16 11  1  0  0  0
  1  5  1  0  0  0
  4  6  1  0  0  0
M  END
> <minimizedAffinity>
-7.34030

> <CNNscore>
0.3322061896

> <CNNaffinity>
5.1721787453

> <CNN_VS>
1.7182297707

> <CNNaffinity_variance>
0.0932163447

$$$$
[H]c1nc([H])c2c([H])c([H])c([H])c(N([H])C(=O)N([H])c3c([H])c(C(C([H])([H])[H])(C([H])([H])[H])C([H])([H])[H])c([H])c([H])c3C([H])([H])[H])c2c1[H]


 27 29  0  0  0  0  0  0  0  0999 V2000
  153.8227  140.7537  181.8069 N   0  0  0  0  0  0  0  0  0  0  0  0
  153.0834  139.7144  182.4566 C   0  0  0  0  0  0  0  0  0  0  0  0
  153.4820  139.2575  183.5218 O   0  0  0  0  0  0  0  0  0  0  0  0
  151.8874  139.2117  181.8676 N   0  0  0  0  0  0  0  0  0  0  0  0
  153.4174  141.1098  180.8689 H   0  0  0  0  0  0  0  0  0  0  0  0
  151.6655  139.6965  180.9444 H   0  0  0  0  0  0  0  0  0  0  0  0
  151.0422  138.2117  182.3396 C   0  0  0  0  0  0  0  0  0  0  0  0
  151.4422  137.0663  182.9858 C   0  0  0  0  0  0  0  0  0  0  0  0
  150.5316  136.1142  183.4034 C   0  0  0  0  0  0  0  0  0  0  0  0
  149.2094  136.2542  183.2022 C   0  0  0  0  0  0  0  0  0  0  0  0
  148.7599  137.3994  182.5515 C   0  0  0  0  0  0  0  0  0  0  0  0
  147.3848  137.5493  182.3433 C   0  0  0  0  0  0  0  0  0  0  0  0
  146.9029  138.6203  181.7325 N   0  0  0  0  0  0  0  0  0  0  0  0
  147.7447  139.5627  181.3142 C   0  0  0  0  0  0  0  0  0  0  0  0
  149.1212  139.4480  181.5038 C   0  0  0  0  0  0  0  0  0  0  0  0
  149.6590  138.3573  182.1298 C   0  0  0  0  0  0  0  0  0  0  0  0
  153.5840  143.4113  182.6409 C   0  0  0  0  0  0  0  0  0  0  0  0
  154.8889  142.6869  182.6768 C   0  0  0  0  0  0  0  0  0  0  0  0
  155.9933  143.3359  183.1283 C   0  0  0  0  0  0  0  0  0  0  0  0
  157.2233  142.7143  183.1829 C   0  0  0  0  0  0  0  0  0  0  0  0
  157.3799  141.4153  182.7833 C   0  0  0  0  0  0  0  0  0  0  0  0
  156.2504  140.7450  182.3194 C   0  0  0  0  0  0  0  0  0  0  0  0
  155.0014  141.3497  182.2549 C   0  0  0  0  0  0  0  0  0  0  0  0
  158.6555  140.6924  182.8163 C   0  0  0  0  0  0  0  0  0  0  0  0
  158.7216  139.8523  181.5448 C   0  0  0  0  0  0  0  0  0  0  0  0
  158.7827  139.7750  183.9917 C   0  0  0  0  0  0  0  0  0  0  0  0
  159.8522  141.6151  182.8182 C   0  0  0  0  0  0  0  0  0  0  0  0
 17 18  1  0  0  0
 18 19  2  0  0  0
 19 20  1  0  0  0
 20 21  2  0  0  0
 21 22  1  0  0  0
 22 23  2  0  0  0
 23  1  1  0  0  0
  1  2  1  0  0  0
  2  3  2  0  0  0
  2  4  1  0  0  0
  4  7  1  0  0  0
  7  8  2  0  0  0
  8  9  1  0  0  0
  9 10  2  0  0  0
 10 11  1  0  0  0
 11 12  2  0  0  0
 12 13  1  0  0  0
 13 14  2  0  0  0
 14 15  1  0  0  0
 15 16  2  0  0  0
 21 24  1  0  0  0
 24 25  1  0  0  0
 24 26  1  0  0  0
 24 27  1  0  0  0
 23 18  1  0  0  0
 16  7  1  0  0  0
 16 11  1  0  0  0
  1  5  1  0  0  0
  4  6  1  0  0  0
M  END
> <minimizedAffinity>
-7.83414

> <CNNscore>
0.2970842719

> <CNNaffinity>
5.7159786224

> <CNN_VS>
1.6981273890

> <CNNaffinity_variance>
0.0477464572

$$$$
[H]c1nc([H])c2c([H])c([H])c([H])c(N([H])C(=O)N([H])c3c([H])c(C(C([H])([H])[H])(C([H])([H])[H])C([H])([H])[H])c([H])c([H])c3C([H])([H])[H])c2c1[H]


 27 29  0  0  0  0  0  0  0  0999 V2000
  155.0348  140.2143  183.5318 N   0  0  0  0  0  0  0  0  0  0  0  0
  154.1437  140.2570  182.4124 C   0  0  0  0  0  0  0  0  0  0  0  0
  154.4328  140.9286  181.4287 O   0  0  0  0  0  0  0  0  0  0  0  0
  152.9240  139.5212  182.4405 N   0  0  0  0  0  0  0  0  0  0  0  0
  154.7180  139.6050  184.3680 H   0  0  0  0  0  0  0  0  0  0  0  0
  152.8023  138.9892  183.3564 H   0  0  0  0  0  0  0  0  0  0  0  0
  151.9370  139.4408  181.4624 C   0  0  0  0  0  0  0  0  0  0  0  0
  151.9743  140.0613  180.2365 C   0  0  0  0  0  0  0  0  0  0  0  0
  150.9363  139.9420  179.3319 C   0  0  0  0  0  0  0  0  0  0  0  0
  149.8367  139.2155  179.5989 C   0  0  0  0  0  0  0  0  0  0  0  0
  149.7567  138.5697  180.8292 C   0  0  0  0  0  0  0  0  0  0  0  0
  148.6154  137.8108  181.1087 C   0  0  0  0  0  0  0  0  0  0  0  0
  148.4889  137.1736  182.2620 N   0  0  0  0  0  0  0  0  0  0  0  0
  149.4655  137.2608  183.1622 C   0  0  0  0  0  0  0  0  0  0  0  0
  150.6175  138.0076  182.9191 C   0  0  0  0  0  0  0  0  0  0  0  0
  150.7865  138.6810  181.7407 C   0  0  0  0  0  0  0  0  0  0  0  0
  156.7576  139.1920  185.4816 C   0  0  0  0  0  0  0  0  0  0  0  0
  157.1314  140.3621  184.6331 C   0  0  0  0  0  0  0  0  0  0  0  0
  158.3438  140.9479  184.8114 C   0  0  0  0  0  0  0  0  0  0  0  0
  158.7398  142.0309  184.0549 C   0  0  0  0  0  0  0  0  0  0  0  0
  157.9245  142.5596  183.0919 C   0  0  0  0  0  0  0  0  0  0  0  0
  156.6800  141.9625  182.9048 C   0  0  0  0  0  0  0  0  0  0  0  0
  156.2589  140.8713  183.6543 C   0  0  0  0  0  0  0  0  0  0  0  0
  158.2814  143.7066  182.2506 C   0  0  0  0  0  0  0  0  0  0  0  0
  157.0262  144.5625  182.1128 C   0  0  0  0  0  0  0  0  0  0  0  0
  158.7339  143.3135  180.8794 C   0  0  0  0  0  0  0  0  0  0  0  0
  159.3594  144.5702  182.8635 C   0  0  0  0  0  0  0  0  0  0  0  0
 17 18  1  0  0  0
 18 19  2  0  0  0
 19 20  1  0  0  0
 20 21  2  0  0  0
 21 22  1  0  0  0
 22 23  2  0  0  0
 23  1  1  0  0  0
  1  2  1  0  0  0
  2  3  2  0  0  0
  2  4  1  0  0  0
  4  7  1  0  0  0
  7  8  2  0  0  0
  8  9  1  0  0  0
  9 10  2  0  0  0
 10 11  1  0  0  0
 11 12  2  0  0  0
 12 13  1  0  0  0
 13 14  2  0  0  0
 14 15  1  0  0  0
 15 16  2  0  0  0
 21 24  1  0  0  0
 24 25  1  0  0  0
 24 26  1  0  0  0
 24 27  1  0  0  0
 23 18  1  0  0  0
 16  7  1  0  0  0
 16 11  1  0  0  0
  1  5  1  0  0  0
  4  6  1  0  0  0
M  END
> <minimizedAffinity>
-8.78145

> <CNNscore>
0.2937748432

> <CNNaffinity>
5.7904357910

> <CNN_VS>
1.7010843754

> <CNNaffinity_variance>
0.0814728886

$$$$
[H]c1nc([H])c2c([H])c([H])c([H])c(N([H])C(=O)N([H])c3c([H])c(C(C([H])([H])[H])(C([H])([H])[H])C([H])([H])[H])c([H])c([H])c3C([H])([H])[H])c2c1[H]


 27 29  0  0  0  0  0  0  0  0999 V2000
  153.6237  140.8587  182.7008 N   0  0  0  0  0  0  0  0  0  0  0  0
  152.8240  140.2197  181.7003 C   0  0  0  0  0  0  0  0  0  0  0  0
  153.1691  140.2630  180.5249 O   0  0  0  0  0  0  0  0  0  0  0  0
  151.6300  139.5349  182.0684 N   0  0  0  0  0  0  0  0  0  0  0  0
  153.2607  140.7849  183.7175 H   0  0  0  0  0  0  0  0  0  0  0  0
  151.4527  139.5828  183.1186 H   0  0  0  0  0  0  0  0  0  0  0  0
  150.7275  138.8636  181.2487 C   0  0  0  0  0  0  0  0  0  0  0  0
  149.9093  139.4498  180.3125 C   0  0  0  0  0  0  0  0  0  0  0  0
  149.0259  138.7051  179.5543 C   0  0  0  0  0  0  0  0  0  0  0  0
  148.9176  137.3715  179.6890 C   0  0  0  0  0  0  0  0  0  0  0  0
  149.7274  136.7363  180.6258 C   0  0  0  0  0  0  0  0  0  0  0  0
  149.6192  135.3488  180.7663 C   0  0  0  0  0  0  0  0  0  0  0  0
  150.3676  134.6939  181.6398 N   0  0  0  0  0  0  0  0  0  0  0  0
  151.2326  135.3720  182.3905 C   0  0  0  0  0  0  0  0  0  0  0  0
  151.3683  136.7551  182.2786 C   0  0  0  0  0  0  0  0  0  0  0  0
  150.6135  137.4687  181.3888 C   0  0  0  0  0  0  0  0  0  0  0  0
  153.4116  143.6432  182.8300 C   0  0  0  0  0  0  0  0  0  0  0  0
  154.7136  142.9621  182.5658 C   0  0  0  0  0  0  0  0  0  0  0  0
  155.8290  143.7155  182.3836 C   0  0  0  0  0  0  0  0  0  0  0  0
  157.0570  143.1381  182.1370 C   0  0  0  0  0  0  0  0  0  0  0  0
  157.2005  141.7794  182.0660 C   0  0  0  0  0  0  0  0  0  0  0  0
  156.0597  141.0021  182.2522 C   0  0  0  0  0  0  0  0  0  0  0  0
  154.8124  141.5604  182.5016 C   0  0  0  0  0  0  0  0  0  0  0  0
  158.4741  141.0989  181.8098 C   0  0  0  0  0  0  0  0  0  0  0  0
  158.7248  141.1791  180.3072 C   0  0  0  0  0  0  0  0  0  0  0  0
  158.4615  139.6561  182.2069 C   0  0  0  0  0  0  0  0  0  0  0  0
  159.6420  141.7597  182.5048 C   0  0  0  0  0  0  0  0  0  0  0  0
 17 18  1  0  0  0
 18 19  2  0  0  0
 19 20  1  0  0  0
 20 21  2  0  0  0
 21 22  1  0  0  0
 22 23  2  0  0  0
 23  1  1  0  0  0
  1  2  1  0  0  0
  2  3  2  0  0  0
  2  4  1  0  0  0
  4  7  1  0  0  0
  7  8  2  0  0  0
  8  9  1  0  0  0
  9 10  2  0  0  0
 10 11  1  0  0  0
 11 12  2  0  0  0
 12 13  1  0  0  0
 13 14  2  0  0  0
 14 15  1  0  0  0
 15 16  2  0  0  0
 21 24  1  0  0  0
 24 25  1  0  0  0
 24 26  1  0  0  0
 24 27  1  0  0  0
 23 18  1  0  0  0
 16  7  1  0  0  0
 16 11  1  0  0  0
  1  5  1  0  0  0
  4  6  1  0  0  0
M  END
> <minimizedAffinity>
-8.36194

> <CNNscore>
0.2679850757

> <CNNaffinity>
5.5657615662

> <CNN_VS>
1.4915410280

> <CNNaffinity_variance>
0.0835244805

$$$$
[H]c1nc([H])c2c([H])c([H])c([H])c(N([H])C(=O)N([H])c3c([H])c(C(C([H])([H])[H])(C([H])([H])[H])C([H])([H])[H])c([H])c([H])c3C([H])([H])[H])c2c1[H]


 27 29  0  0  0  0  0  0  0  0999 V2000
  155.2303  137.7212  187.0255 N   0  0  0  0  0  0  0  0  0  0  0  0
  154.4547  137.1712  185.9555 C   0  0  0  0  0  0  0  0  0  0  0  0
  154.3609  135.9552  185.8333 O   0  0  0  0  0  0  0  0  0  0  0  0
  153.7933  138.0338  185.0344 N   0  0  0  0  0  0  0  0  0  0  0  0
  155.2739  138.8013  187.0740 H   0  0  0  0  0  0  0  0  0  0  0  0
  153.9661  139.0616  185.2589 H   0  0  0  0  0  0  0  0  0  0  0  0
  153.0057  137.6924  183.9388 C   0  0  0  0  0  0  0  0  0  0  0  0
  152.3042  136.5192  183.7934 C   0  0  0  0  0  0  0  0  0  0  0  0
  151.5615  136.2549  182.6583 C   0  0  0  0  0  0  0  0  0  0  0  0
  151.4836  137.1263  181.6371 C   0  0  0  0  0  0  0  0  0  0  0  0
  152.1786  138.3276  181.7420 C   0  0  0  0  0  0  0  0  0  0  0  0
  152.0972  139.2375  180.6827 C   0  0  0  0  0  0  0  0  0  0  0  0
  152.7356  140.3960  180.7316 N   0  0  0  0  0  0  0  0  0  0  0  0
  153.4623  140.6917  181.8068 C   0  0  0  0  0  0  0  0  0  0  0  0
  153.5670  139.8101  182.8819 C   0  0  0  0  0  0  0  0  0  0  0  0
  152.9235  138.6033  182.8702 C   0  0  0  0  0  0  0  0  0  0  0  0
  154.6678  138.4475  189.6657 C   0  0  0  0  0  0  0  0  0  0  0  0
  155.6509  137.3738  189.3348 C   0  0  0  0  0  0  0  0  0  0  0  0
  156.2910  136.7292  190.3445 C   0  0  0  0  0  0  0  0  0  0  0  0
  157.2081  135.7297  190.0952 C   0  0  0  0  0  0  0  0  0  0  0  0
  157.5100  135.3468  188.8170 C   0  0  0  0  0  0  0  0  0  0  0  0
  156.8562  136.0046  187.7777 C   0  0  0  0  0  0  0  0  0  0  0  0
  155.9291  137.0142  188.0037 C   0  0  0  0  0  0  0  0  0  0  0  0
  158.4715  134.2921  188.4794 C   0  0  0  0  0  0  0  0  0  0  0  0
  158.7004  133.4784  189.7493 C   0  0  0  0  0  0  0  0  0  0  0  0
  159.7923  134.8242  188.0189 C   0  0  0  0  0  0  0  0  0  0  0  0
  157.9574  133.3483  187.4172 C   0  0  0  0  0  0  0  0  0  0  0  0
 17 18  1  0  0  0
 18 19  2  0  0  0
 19 20  1  0  0  0
 20 21  2  0  0  0
 21 22  1  0  0  0
 22 23  2  0  0  0
 23  1  1  0  0  0
  1  2  1  0  0  0
  2  3  2  0  0  0
  2  4  1  0  0  0
  4  7  1  0  0  0
  7  8  2  0  0  0
  8  9  1  0  0  0
  9 10  2  0  0  0
 10 11  1  0  0  0
 11 12  2  0  0  0
 12 13  1  0  0  0
 13 14  2  0  0  0
 14 15  1  0  0  0
 15 16  2  0  0  0
 21 24  1  0  0  0
 24 25  1  0  0  0
 24 26  1  0  0  0
 24 27  1  0  0  0
 23 18  1  0  0  0
 16  7  1  0  0  0
 16 11  1  0  0  0
  1  5  1  0  0  0
  4  6  1  0  0  0
M  END
> <minimizedAffinity>
-6.99493

> <CNNscore>
0.2639296651

> <CNNaffinity>
5.2255373001

> <CNN_VS>
1.3791743517

> <CNNaffinity_variance>
0.0974311978

$$$$
[H]c1nc([H])c2c([H])c([H])c([H])c(N([H])C(=O)N([H])c3c([H])c(C(C([H])([H])[H])(C([H])([H])[H])C([H])([H])[H])c([H])c([H])c3C([H])([H])[H])c2c1[H]


 27 29  0  0  0  0  0  0  0  0999 V2000
  154.6265  138.1579  185.4713 N   0  0  0  0  0  0  0  0  0  0  0  0
  155.7245  138.9840  185.0703 C   0  0  0  0  0  0  0  0  0  0  0  0
  156.4533  139.4835  185.9199 O   0  0  0  0  0  0  0  0  0  0  0  0
  155.9705  139.2257  183.6879 N   0  0  0  0  0  0  0  0  0  0  0  0
  154.0215  137.7509  184.6717 H   0  0  0  0  0  0  0  0  0  0  0  0
  155.2577  138.7339  183.0660 H   0  0  0  0  0  0  0  0  0  0  0  0
  156.9741  139.9956  183.1074 C   0  0  0  0  0  0  0  0  0  0  0  0
  158.2428  139.5601  182.8071 C   0  0  0  0  0  0  0  0  0  0  0  0
  159.1849  140.4026  182.2481 C   0  0  0  0  0  0  0  0  0  0  0  0
  158.9147  141.6897  181.9676 C   0  0  0  0  0  0  0  0  0  0  0  0
  157.6417  142.1732  182.2554 C   0  0  0  0  0  0  0  0  0  0  0  0
  157.3566  143.5109  181.9621 C   0  0  0  0  0  0  0  0  0  0  0  0
  156.1613  144.0215  182.2125 N   0  0  0  0  0  0  0  0  0  0  0  0
  155.2235  143.2449  182.7503 C   0  0  0  0  0  0  0  0  0  0  0  0
  155.4708  141.9073  183.0562 C   0  0  0  0  0  0  0  0  0  0  0  0
  156.6924  141.3420  182.8135 C   0  0  0  0  0  0  0  0  0  0  0  0
  152.0671  137.0711  185.7601 C   0  0  0  0  0  0  0  0  0  0  0  0
  152.9732  137.2781  186.9284 C   0  0  0  0  0  0  0  0  0  0  0  0
  152.5438  136.9279  188.1684 C   0  0  0  0  0  0  0  0  0  0  0  0
  153.3399  137.0971  189.2819 C   0  0  0  0  0  0  0  0  0  0  0  0
  154.5976  137.6259  189.1808 C   0  0  0  0  0  0  0  0  0  0  0  0
  155.0430  137.9866  187.9113 C   0  0  0  0  0  0  0  0  0  0  0  0
  154.2597  137.8260  186.7753 C   0  0  0  0  0  0  0  0  0  0  0  0
  155.4977  137.8316  190.3203 C   0  0  0  0  0  0  0  0  0  0  0  0
  156.8691  138.1721  189.7458 C   0  0  0  0  0  0  0  0  0  0  0  0
  155.6395  136.6187  191.1855 C   0  0  0  0  0  0  0  0  0  0  0  0
  155.0724  138.9821  191.2030 C   0  0  0  0  0  0  0  0  0  0  0  0
 17 18  1  0  0  0
 18 19  2  0  0  0
 19 20  1  0  0  0
 20 21  2  0  0  0
 21 22  1  0  0  0
 22 23  2  0  0  0
 23  1  1  0  0  0
  1  2  1  0  0  0
  2  3  2  0  0  0
  2  4  1  0  0  0
  4  7  1  0  0  0
  7  8  2  0  0  0
  8  9  1  0  0  0
  9 10  2  0  0  0
 10 11  1  0  0  0
 11 12  2  0  0  0
 12 13  1  0  0  0
 13 14  2  0  0  0
 14 15  1  0  0  0
 15 16  2  0  0  0
 21 24  1  0  0  0
 24 25  1  0  0  0
 24 26  1  0  0  0
 24 27  1  0  0  0
 23 18  1  0  0  0
 16  7  1  0  0  0
 16 11  1  0  0  0
  1  5  1  0  0  0
  4  6  1  0  0  0
M  END
> <minimizedAffinity>
-7.80832

> <CNNscore>
0.2595572472

> <CNNaffinity>
5.7502508163

> <CNN_VS>
1.4925192595

> <CNNaffinity_variance>
0.0958061516

$$$$
[H]c1nc([H])c2c([H])c([H])c([H])c(N([H])C(=O)N([H])c3c([H])c(C(C([H])([H])[H])(C([H])([H])[H])C([H])([H])[H])c([H])c([H])c3C([H])([H])[H])c2c1[H]


 27 29  0  0  0  0  0  0  0  0999 V2000
  153.9394  137.9703  184.7084 N   0  0  0  0  0  0  0  0  0  0  0  0
  153.5681  138.0401  186.0891 C   0  0  0  0  0  0  0  0  0  0  0  0
  153.1007  139.0785  186.5426 O   0  0  0  0  0  0  0  0  0  0  0  0
  153.7409  136.9065  186.9346 N   0  0  0  0  0  0  0  0  0  0  0  0
  154.3481  137.0260  184.3737 H   0  0  0  0  0  0  0  0  0  0  0  0
  154.1599  136.0791  186.4086 H   0  0  0  0  0  0  0  0  0  0  0  0
  153.4469  136.7822  188.2893 C   0  0  0  0  0  0  0  0  0  0  0  0
  152.2544  136.3403  188.8110 C   0  0  0  0  0  0  0  0  0  0  0  0
  152.0424  136.2679  190.1747 C   0  0  0  0  0  0  0  0  0  0  0  0
  152.9865  136.6239  191.0638 C   0  0  0  0  0  0  0  0  0  0  0  0
  154.2099  137.0774  190.5793 C   0  0  0  0  0  0  0  0  0  0  0  0
  155.1949  137.4457  191.5016 C   0  0  0  0  0  0  0  0  0  0  0  0
  156.3772  137.8809  191.0955 N   0  0  0  0  0  0  0  0  0  0  0  0
  156.6242  137.9659  189.7903 C   0  0  0  0  0  0  0  0  0  0  0  0
  155.6672  137.6079  188.8417 C   0  0  0  0  0  0  0  0  0  0  0  0
  154.4337  137.1542  189.2200 C   0  0  0  0  0  0  0  0  0  0  0  0
  151.8389  137.6877  182.8856 C   0  0  0  0  0  0  0  0  0  0  0  0
  152.7741  138.8503  182.8381 C   0  0  0  0  0  0  0  0  0  0  0  0
  152.6005  139.8000  181.8828 C   0  0  0  0  0  0  0  0  0  0  0  0
  153.4350  140.8945  181.7937 C   0  0  0  0  0  0  0  0  0  0  0  0
  154.4738  141.0673  182.6670 C   0  0  0  0  0  0  0  0  0  0  0  0
  154.6562  140.0963  183.6488 C   0  0  0  0  0  0  0  0  0  0  0  0
  153.8293  138.9855  183.7585 C   0  0  0  0  0  0  0  0  0  0  0  0
  155.3973  142.2061  182.6321 C   0  0  0  0  0  0  0  0  0  0  0  0
  156.1096  142.2403  183.9806 C   0  0  0  0  0  0  0  0  0  0  0  0
  154.7068  143.5188  182.4328 C   0  0  0  0  0  0  0  0  0  0  0  0
  156.4534  142.0715  181.5597 C   0  0  0  0  0  0  0  0  0  0  0  0
 17 18  1  0  0  0
 18 19  2  0  0  0
 19 20  1  0  0  0
 20 21  2  0  0  0
 21 22  1  0  0  0
 22 23  2  0  0  0
 23  1  1  0  0  0
  1  2  1  0  0  0
  2  3  2  0  0  0
  2  4  1  0  0  0
  4  7  1  0  0  0
  7  8  2  0  0  0
  8  9  1  0  0  0
  9 10  2  0  0  0
 10 11  1  0  0  0
 11 12  2  0  0  0
 12 13  1  0  0  0
 13 14  2  0  0  0
 14 15  1  0  0  0
 15 16  2  0  0  0
 21 24  1  0  0  0
 24 25  1  0  0  0
 24 26  1  0  0  0
 24 27  1  0  0  0
 23 18  1  0  0  0
 16  7  1  0  0  0
 16 11  1  0  0  0
  1  5  1  0  0  0
  4  6  1  0  0  0
M  END
> <minimizedAffinity>
-7.88974

> <CNNscore>
0.2488856912

> <CNNaffinity>
5.3366651535

> <CNN_VS>
1.3282196522

> <CNNaffinity_variance>
0.0704982355

$$$$
[H]c1c(C(F)(F)F)nc(N2C([H])([H])C([H])([H])C([H])(C([H])([H])[H])C([H])([H])C2([H])[H])c(C([H])([H])N([H])C(=O)N([H])c2c([H])c([H])c(C(C([H])([H])[H])(C([H])([H])[H])C([H])([H])[H])c([H])c2[H])c1[H]


 34 36  0  0  0  0  0  0  0  0999 V2000
  152.4531  135.2271  190.0494 C   0  0  0  0  0  0  0  0  0  0  0  0
  152.1278  135.5611  191.3217 N   0  0  0  0  0  0  0  0  0  0  0  0
  150.9544  135.2246  191.8456 C   0  0  0  0  0  0  0  0  0  0  0  0
  150.0619  134.5218  191.0735 C   0  0  0  0  0  0  0  0  0  0  0  0
  150.3691  134.1550  189.7530 C   0  0  0  0  0  0  0  0  0  0  0  0
  151.5982  134.5137  189.2309 C   0  0  0  0  0  0  0  0  0  0  0  0
  156.8775  138.2894  190.1932 C   0  0  0  0  0  0  0  0  0  0  0  0
  155.6871  137.3475  190.2124 C   0  0  0  0  0  0  0  0  0  0  0  0
  156.0441  136.0896  189.4830 C   0  0  0  0  0  0  0  0  0  0  0  0
  154.8527  135.1021  189.4808 C   0  0  0  0  0  0  0  0  0  0  0  0
  153.6299  135.8059  189.4787 N   0  0  0  0  0  0  0  0  0  0  0  0
  153.4728  137.1863  188.9999 C   0  0  0  0  0  0  0  0  0  0  0  0
  154.6349  138.0551  189.3842 C   0  0  0  0  0  0  0  0  0  0  0  0
  150.5916  135.6613  193.2479 C   0  0  0  0  0  0  0  0  0  0  0  0
  150.7827  137.0275  193.3469 F   0  0  0  0  0  0  0  0  0  0  0  0
  149.2352  135.4428  193.4359 F   0  0  0  0  0  0  0  0  0  0  0  0
  151.2905  135.0006  194.2122 F   0  0  0  0  0  0  0  0  0  0  0  0
  152.0202  134.0127  187.8696 C   0  0  0  0  0  0  0  0  0  0  0  0
  151.5364  134.8216  186.8954 N   0  0  0  0  0  0  0  0  0  0  0  0
  151.2531  135.8676  185.9804 C   0  0  0  0  0  0  0  0  0  0  0  0
  151.9907  136.9205  185.9803 O   0  0  0  0  0  0  0  0  0  0  0  0
  150.1903  135.7621  185.0597 N   0  0  0  0  0  0  0  0  0  0  0  0
  152.5173  135.7444  187.4071 H   0  0  0  0  0  0  0  0  0  0  0  0
  149.4411  135.0575  185.1731 H   0  0  0  0  0  0  0  0  0  0  0  0
  150.1761  136.7014  183.9697 C   0  0  0  0  0  0  0  0  0  0  0  0
  149.1524  137.6138  183.8475 C   0  0  0  0  0  0  0  0  0  0  0  0
  148.9690  138.2849  182.6632 C   0  0  0  0  0  0  0  0  0  0  0  0
  149.8033  138.0724  181.5479 C   0  0  0  0  0  0  0  0  0  0  0  0
  150.8117  137.1823  181.6906 C   0  0  0  0  0  0  0  0  0  0  0  0
  151.0164  136.4790  182.9125 C   0  0  0  0  0  0  0  0  0  0  0  0
  149.4074  138.6167  180.2299 C   0  0  0  0  0  0  0  0  0  0  0  0
  148.1745  139.5651  180.6216 C   0  0  0  0  0  0  0  0  0  0  0  0
  150.3933  139.5217  179.5942 C   0  0  0  0  0  0  0  0  0  0  0  0
  148.7818  137.6818  179.2690 C   0  0  0  0  0  0  0  0  0  0  0  0
  7  8  1  0  0  0
  8  9  1  0  0  0
  9 10  1  0  0  0
 10 11  1  0  0  0
 11 12  1  0  0  0
 12 13  1  0  0  0
 11  1  1  0  0  0
  1  2  2  0  0  0
  2  3  1  0  0  0
  3  4  2  0  0  0
  4  5  1  0  0  0
  5  6  2  0  0  0
  6 18  1  0  0  0
 18 19  1  0  0  0
 19 20  1  0  0  0
 20 21  2  0  0  0
 20 22  1  0  0  0
 22 25  1  0  0  0
 25 26  2  0  0  0
 26 27  1  0  0  0
 27 28  2  0  0  0
 28 29  1  0  0  0
 29 30  2  0  0  0
 28 31  1  0  0  0
 31 32  1  0  0  0
 31 33  1  0  0  0
 31 34  1  0  0  0
  3 14  1  0  0  0
 14 15  1  0  0  0
 14 16  1  0  0  0
 14 17  1  0  0  0
 13  8  1  0  0  0
  6  1  1  0  0  0
 30 25  1  0  0  0
 19 23  1  0  0  0
 22 24  1  0  0  0
M  END
> <minimizedAffinity>
-5.93349

> <CNNscore>
0.5702278018

> <CNNaffinity>
6.0644202232

> <CNN_VS>
3.4581010342

> <CNNaffinity_variance>
0.3636624813

$$$$
[H]c1c(C(F)(F)F)nc(N2C([H])([H])C([H])([H])C([H])(C([H])([H])[H])C([H])([H])C2([H])[H])c(C([H])([H])N([H])C(=O)N([H])c2c([H])c([H])c(C(C([H])([H])[H])(C([H])([H])[H])C([H])([H])[H])c([H])c2[H])c1[H]


 34 36  0  0  0  0  0  0  0  0999 V2000
  156.7411  134.5026  188.7512 C   0  0  0  0  0  0  0  0  0  0  0  0
  157.9917  133.9815  188.7248 N   0  0  0  0  0  0  0  0  0  0  0  0
  158.4184  133.2620  187.6930 C   0  0  0  0  0  0  0  0  0  0  0  0
  157.5670  133.0506  186.6361 C   0  0  0  0  0  0  0  0  0  0  0  0
  156.2663  133.5807  186.6287 C   0  0  0  0  0  0  0  0  0  0  0  0
  155.8461  134.3292  187.7127 C   0  0  0  0  0  0  0  0  0  0  0  0
  153.1579  137.1361  191.7843 C   0  0  0  0  0  0  0  0  0  0  0  0
  154.1009  136.3019  190.9361 C   0  0  0  0  0  0  0  0  0  0  0  0
  154.6187  135.1603  191.7550 C   0  0  0  0  0  0  0  0  0  0  0  0
  155.5860  134.2851  190.9227 C   0  0  0  0  0  0  0  0  0  0  0  0
  156.2728  135.0740  189.9760 N   0  0  0  0  0  0  0  0  0  0  0  0
  156.4794  136.5233  190.1033 C   0  0  0  0  0  0  0  0  0  0  0  0
  155.2747  137.2200  190.6659 C   0  0  0  0  0  0  0  0  0  0  0  0
  159.7978  132.6410  187.7143 C   0  0  0  0  0  0  0  0  0  0  0  0
  159.8713  131.6968  186.7064 F   0  0  0  0  0  0  0  0  0  0  0  0
  160.7237  133.6232  187.3968 F   0  0  0  0  0  0  0  0  0  0  0  0
  160.1198  132.0933  188.9191 F   0  0  0  0  0  0  0  0  0  0  0  0
  154.5107  135.0347  187.6761 C   0  0  0  0  0  0  0  0  0  0  0  0
  154.6082  136.1996  186.9897 N   0  0  0  0  0  0  0  0  0  0  0  0
  154.7790  137.5392  186.5563 C   0  0  0  0  0  0  0  0  0  0  0  0
  155.1525  138.4316  187.4029 O   0  0  0  0  0  0  0  0  0  0  0  0
  154.5655  137.9022  185.2106 N   0  0  0  0  0  0  0  0  0  0  0  0
  154.8698  136.7518  188.2944 H   0  0  0  0  0  0  0  0  0  0  0  0
  154.0505  137.2873  184.5570 H   0  0  0  0  0  0  0  0  0  0  0  0
  155.0691  139.1839  184.7931 C   0  0  0  0  0  0  0  0  0  0  0  0
  154.2517  140.0744  184.1342 C   0  0  0  0  0  0  0  0  0  0  0  0
  154.7984  141.1434  183.4670 C   0  0  0  0  0  0  0  0  0  0  0  0
  156.1887  141.3687  183.4304 C   0  0  0  0  0  0  0  0  0  0  0  0
  156.9750  140.4911  184.0944 C   0  0  0  0  0  0  0  0  0  0  0  0
  156.4240  139.3781  184.7923 C   0  0  0  0  0  0  0  0  0  0  0  0
  156.7380  142.3708  182.4900 C   0  0  0  0  0  0  0  0  0  0  0  0
  158.1332  142.7465  183.1863 C   0  0  0  0  0  0  0  0  0  0  0  0
  157.1104  141.8506  181.1536 C   0  0  0  0  0  0  0  0  0  0  0  0
  156.0626  143.6856  182.4276 C   0  0  0  0  0  0  0  0  0  0  0  0
  7  8  1  0  0  0
  8  9  1  0  0  0
  9 10  1  0  0  0
 10 11  1  0  0  0
 11 12  1  0  0  0
 12 13  1  0  0  0
 11  1  1  0  0  0
  1  2  2  0  0  0
  2  3  1  0  0  0
  3  4  2  0  0  0
  4  5  1  0  0  0
  5  6  2  0  0  0
  6 18  1  0  0  0
 18 19  1  0  0  0
 19 20  1  0  0  0
 20 21  2  0  0  0
 20 22  1  0  0  0
 22 25  1  0  0  0
 25 26  2  0  0  0
 26 27  1  0  0  0
 27 28  2  0  0  0
 28 29  1  0  0  0
 29 30  2  0  0  0
 28 31  1  0  0  0
 31 32  1  0  0  0
 31 33  1  0  0  0
 31 34  1  0  0  0
  3 14  1  0  0  0
 14 15  1  0  0  0
 14 16  1  0  0  0
 14 17  1  0  0  0
 13  8  1  0  0  0
  6  1  1  0  0  0
 30 25  1  0  0  0
 19 23  1  0  0  0
 22 24  1  0  0  0
M  END
> <minimizedAffinity>
-7.33556

> <CNNscore>
0.5538637042

> <CNNaffinity>
6.3605108261

> <CNN_VS>
3.5228559971

> <CNNaffinity_variance>
0.0733005852

$$$$
[H]c1c(C(F)(F)F)nc(N2C([H])([H])C([H])([H])C([H])(C([H])([H])[H])C([H])([H])C2([H])[H])c(C([H])([H])N([H])C(=O)N([H])c2c([H])c([H])c(C(C([H])([H])[H])(C([H])([H])[H])C([H])([H])[H])c([H])c2[H])c1[H]


 34 36  0  0  0  0  0  0  0  0999 V2000
  155.1683  135.0187  188.8759 C   0  0  0  0  0  0  0  0  0  0  0  0
  155.8543  135.8842  189.6611 N   0  0  0  0  0  0  0  0  0  0  0  0
  155.3301  137.0485  190.0273 C   0  0  0  0  0  0  0  0  0  0  0  0
  154.0658  137.3698  189.5975 C   0  0  0  0  0  0  0  0  0  0  0  0
  153.3252  136.4936  188.7873 C   0  0  0  0  0  0  0  0  0  0  0  0
  153.8907  135.2859  188.4219 C   0  0  0  0  0  0  0  0  0  0  0  0
  159.5617  132.0239  188.0374 C   0  0  0  0  0  0  0  0  0  0  0  0
  158.3197  132.8268  188.3798 C   0  0  0  0  0  0  0  0  0  0  0  0
  157.1963  131.8862  188.6885 C   0  0  0  0  0  0  0  0  0  0  0  0
  155.9095  132.6693  189.0430 C   0  0  0  0  0  0  0  0  0  0  0  0
  155.8680  133.8920  188.3404 N   0  0  0  0  0  0  0  0  0  0  0  0
  156.5930  134.1498  187.0884 C   0  0  0  0  0  0  0  0  0  0  0  0
  157.9619  133.5340  187.0893 C   0  0  0  0  0  0  0  0  0  0  0  0
  156.1395  138.0230  190.8545 C   0  0  0  0  0  0  0  0  0  0  0  0
  156.6283  137.3584  191.9645 F   0  0  0  0  0  0  0  0  0  0  0  0
  157.2457  138.4108  190.1137 F   0  0  0  0  0  0  0  0  0  0  0  0
  155.4343  139.1292  191.2207 F   0  0  0  0  0  0  0  0  0  0  0  0
  153.0718  134.2591  187.6753 C   0  0  0  0  0  0  0  0  0  0  0  0
  152.4427  134.8307  186.6194 N   0  0  0  0  0  0  0  0  0  0  0  0
  151.5992  135.5549  185.7386 C   0  0  0  0  0  0  0  0  0  0  0  0
  150.6850  136.3157  186.2264 O   0  0  0  0  0  0  0  0  0  0  0  0
  151.7606  135.4690  184.3404 N   0  0  0  0  0  0  0  0  0  0  0  0
  151.5730  135.3600  187.6387 H   0  0  0  0  0  0  0  0  0  0  0  0
  152.3119  134.7107  183.9026 H   0  0  0  0  0  0  0  0  0  0  0  0
  151.0964  136.4671  183.5447 C   0  0  0  0  0  0  0  0  0  0  0  0
  149.9071  136.1793  182.9137 C   0  0  0  0  0  0  0  0  0  0  0  0
  149.4412  137.0035  181.9185 C   0  0  0  0  0  0  0  0  0  0  0  0
  150.1457  138.1537  181.5110 C   0  0  0  0  0  0  0  0  0  0  0  0
  151.3052  138.4278  182.1513 C   0  0  0  0  0  0  0  0  0  0  0  0
  151.8016  137.5841  183.1863 C   0  0  0  0  0  0  0  0  0  0  0  0
  149.7405  138.8528  180.2713 C   0  0  0  0  0  0  0  0  0  0  0  0
  148.5498  139.7908  180.7957 C   0  0  0  0  0  0  0  0  0  0  0  0
  150.7431  139.7907  179.7142 C   0  0  0  0  0  0  0  0  0  0  0  0
  149.0626  138.0504  179.2294 C   0  0  0  0  0  0  0  0  0  0  0  0
  7  8  1  0  0  0
  8  9  1  0  0  0
  9 10  1  0  0  0
 10 11  1  0  0  0
 11 12  1  0  0  0
 12 13  1  0  0  0
 11  1  1  0  0  0
  1  2  2  0  0  0
  2  3  1  0  0  0
  3  4  2  0  0  0
  4  5  1  0  0  0
  5  6  2  0  0  0
  6 18  1  0  0  0
 18 19  1  0  0  0
 19 20  1  0  0  0
 20 21  2  0  0  0
 20 22  1  0  0  0
 22 25  1  0  0  0
 25 26  2  0  0  0
 26 27  1  0  0  0
 27 28  2  0  0  0
 28 29  1  0  0  0
 29 30  2  0  0  0
 28 31  1  0  0  0
 31 32  1  0  0  0
 31 33  1  0  0  0
 31 34  1  0  0  0
  3 14  1  0  0  0
 14 15  1  0  0  0
 14 16  1  0  0  0
 14 17  1  0  0  0
 13  8  1  0  0  0
  6  1  1  0  0  0
 30 25  1  0  0  0
 19 23  1  0  0  0
 22 24  1  0  0  0
M  END
> <minimizedAffinity>
-6.23946

> <CNNscore>
0.4780417383

> <CNNaffinity>
5.8328728676

> <CNN_VS>
2.7883567810

> <CNNaffinity_variance>
0.2680625021

$$$$
[H]c1c(C(F)(F)F)nc(N2C([H])([H])C([H])([H])C([H])(C([H])([H])[H])C([H])([H])C2([H])[H])c(C([H])([H])N([H])C(=O)N([H])c2c([H])c([H])c(C(C([H])([H])[H])(C([H])([H])[H])C([H])([H])[H])c([H])c2[H])c1[H]


 34 36  0  0  0  0  0  0  0  0999 V2000
  153.1315  139.4326  182.5511 C   0  0  0  0  0  0  0  0  0  0  0  0
  153.3711  140.7452  182.3143 N   0  0  0  0  0  0  0  0  0  0  0  0
  154.1947  141.4468  183.0849 C   0  0  0  0  0  0  0  0  0  0  0  0
  154.8122  140.8181  184.1384 C   0  0  0  0  0  0  0  0  0  0  0  0
  154.5904  139.4579  184.4089 C   0  0  0  0  0  0  0  0  0  0  0  0
  153.7314  138.7476  183.5906 C   0  0  0  0  0  0  0  0  0  0  0  0
  148.1861  139.2137  180.4374 C   0  0  0  0  0  0  0  0  0  0  0  0
  149.6100  139.3439  180.9472 C   0  0  0  0  0  0  0  0  0  0  0  0
  150.5493  138.7662  179.9342 C   0  0  0  0  0  0  0  0  0  0  0  0
  152.0142  138.8805  180.4195 C   0  0  0  0  0  0  0  0  0  0  0  0
  152.0747  138.7971  181.8266 N   0  0  0  0  0  0  0  0  0  0  0  0
  151.0461  138.1603  182.6608 C   0  0  0  0  0  0  0  0  0  0  0  0
  149.6585  138.4395  182.1610 C   0  0  0  0  0  0  0  0  0  0  0  0
  154.3988  142.9250  182.8357 C   0  0  0  0  0  0  0  0  0  0  0  0
  153.1760  143.4924  182.5266 F   0  0  0  0  0  0  0  0  0  0  0  0
  154.8136  143.5142  184.0205 F   0  0  0  0  0  0  0  0  0  0  0  0
  155.3153  143.1824  181.8616 F   0  0  0  0  0  0  0  0  0  0  0  0
  153.5816  137.2541  183.7615 C   0  0  0  0  0  0  0  0  0  0  0  0
  153.1974  136.9575  185.0272 N   0  0  0  0  0  0  0  0  0  0  0  0
  152.9477  136.3750  186.2961 C   0  0  0  0  0  0  0  0  0  0  0  0
  153.4603  135.2295  186.5743 O   0  0  0  0  0  0  0  0  0  0  0  0
  152.1647  137.0405  187.2617 N   0  0  0  0  0  0  0  0  0  0  0  0
  153.8477  135.7019  184.7514 H   0  0  0  0  0  0  0  0  0  0  0  0
  151.5512  137.8349  187.0103 H   0  0  0  0  0  0  0  0  0  0  0  0
  152.2322  136.5443  188.6106 C   0  0  0  0  0  0  0  0  0  0  0  0
  151.2053  135.7874  189.1284 C   0  0  0  0  0  0  0  0  0  0  0  0
  151.1188  135.5838  190.4840 C   0  0  0  0  0  0  0  0  0  0  0  0
  152.0576  136.1290  191.3821 C   0  0  0  0  0  0  0  0  0  0  0  0
  153.0668  136.8586  190.8543 C   0  0  0  0  0  0  0  0  0  0  0  0
  153.1718  137.0780  189.4506 C   0  0  0  0  0  0  0  0  0  0  0  0
  151.7746  136.1020  192.8344 C   0  0  0  0  0  0  0  0  0  0  0  0
  152.0750  137.6197  193.2573 C   0  0  0  0  0  0  0  0  0  0  0  0
  150.3562  135.8810  193.2012 C   0  0  0  0  0  0  0  0  0  0  0  0
  152.7149  135.3518  193.6959 C   0  0  0  0  0  0  0  0  0  0  0  0
  7  8  1  0  0  0
  8  9  1  0  0  0
  9 10  1  0  0  0
 10 11  1  0  0  0
 11 12  1  0  0  0
 12 13  1  0  0  0
 11  1  1  0  0  0
  1  2  2  0  0  0
  2  3  1  0  0  0
  3  4  2  0  0  0
  4  5  1  0  0  0
  5  6  2  0  0  0
  6 18  1  0  0  0
 18 19  1  0  0  0
 19 20  1  0  0  0
 20 21  2  0  0  0
 20 22  1  0  0  0
 22 25  1  0  0  0
 25 26  2  0  0  0
 26 27  1  0  0  0
 27 28  2  0  0  0
 28 29  1  0  0  0
 29 30  2  0  0  0
 28 31  1  0  0  0
 31 32  1  0  0  0
 31 33  1  0  0  0
 31 34  1  0  0  0
  3 14  1  0  0  0
 14 15  1  0  0  0
 14 16  1  0  0  0
 14 17  1  0  0  0
 13  8  1  0  0  0
  6  1  1  0  0  0
 30 25  1  0  0  0
 19 23  1  0  0  0
 22 24  1  0  0  0
M  END
> <minimizedAffinity>
-8.26162

> <CNNscore>
0.4174378812

> <CNNaffinity>
6.0146431923

> <CNN_VS>
2.5107398033

> <CNNaffinity_variance>
0.1541522890

$$$$
[H]c1c(C(F)(F)F)nc(N2C([H])([H])C([H])([H])C([H])(C([H])([H])[H])C([H])([H])C2([H])[H])c(C([H])([H])N([H])C(=O)N([H])c2c([H])c([H])c(C(C([H])([H])[H])(C([H])([H])[H])C([H])([H])[H])c([H])c2[H])c1[H]


 34 36  0  0  0  0  0  0  0  0999 V2000
  152.9660  135.0186  189.5208 C   0  0  0  0  0  0  0  0  0  0  0  0
  153.1929  135.6919  190.6746 N   0  0  0  0  0  0  0  0  0  0  0  0
  152.1912  136.1792  191.3982 C   0  0  0  0  0  0  0  0  0  0  0  0
  150.9037  135.9885  190.9595 C   0  0  0  0  0  0  0  0  0  0  0  0
  150.6328  135.2908  189.7710 C   0  0  0  0  0  0  0  0  0  0  0  0
  151.6920  134.7899  189.0367 C   0  0  0  0  0  0  0  0  0  0  0  0
  158.2041  135.0332  188.2815 C   0  0  0  0  0  0  0  0  0  0  0  0
  156.7490  134.9453  188.7050 C   0  0  0  0  0  0  0  0  0  0  0  0
  156.2150  133.5921  188.3506 C   0  0  0  0  0  0  0  0  0  0  0  0
  154.7303  133.4640  188.7676 C   0  0  0  0  0  0  0  0  0  0  0  0
  154.0855  134.7160  188.6836 N   0  0  0  0  0  0  0  0  0  0  0  0
  154.5426  135.8246  187.8342 C   0  0  0  0  0  0  0  0  0  0  0  0
  156.0385  135.9467  187.8183 C   0  0  0  0  0  0  0  0  0  0  0  0
  152.4736  136.9790  192.6510 C   0  0  0  0  0  0  0  0  0  0  0  0
  152.8633  136.1072  193.6514 F   0  0  0  0  0  0  0  0  0  0  0  0
  153.5616  137.8033  192.4066 F   0  0  0  0  0  0  0  0  0  0  0  0
  151.4162  137.7383  193.0513 F   0  0  0  0  0  0  0  0  0  0  0  0
  151.4344  133.9119  187.8346 C   0  0  0  0  0  0  0  0  0  0  0  0
  151.2574  134.6684  186.7237 N   0  0  0  0  0  0  0  0  0  0  0  0
  151.3339  135.3116  185.4620 C   0  0  0  0  0  0  0  0  0  0  0  0
  152.2513  134.9619  184.6321 O   0  0  0  0  0  0  0  0  0  0  0  0
  150.4094  136.3118  185.0970 N   0  0  0  0  0  0  0  0  0  0  0  0
  152.4759  134.0285  186.2979 H   0  0  0  0  0  0  0  0  0  0  0  0
  149.8131  136.7830  185.7991 H   0  0  0  0  0  0  0  0  0  0  0  0
  150.3540  136.6720  183.7049 C   0  0  0  0  0  0  0  0  0  0  0  0
  151.1492  137.6825  183.2131 C   0  0  0  0  0  0  0  0  0  0  0  0
  150.8778  138.2328  181.9842 C   0  0  0  0  0  0  0  0  0  0  0  0
  149.7977  137.7951  181.1923 C   0  0  0  0  0  0  0  0  0  0  0  0
  149.0356  136.7925  181.6859 C   0  0  0  0  0  0  0  0  0  0  0  0
  149.3044  136.2101  182.9579 C   0  0  0  0  0  0  0  0  0  0  0  0
  149.3943  138.5892  180.0105 C   0  0  0  0  0  0  0  0  0  0  0  0
  148.3734  139.6450  180.6554 C   0  0  0  0  0  0  0  0  0  0  0  0
  150.4639  139.4179  179.4068 C   0  0  0  0  0  0  0  0  0  0  0  0
  148.5457  137.9201  179.0000 C   0  0  0  0  0  0  0  0  0  0  0  0
  7  8  1  0  0  0
  8  9  1  0  0  0
  9 10  1  0  0  0
 10 11  1  0  0  0
 11 12  1  0  0  0
 12 13  1  0  0  0
 11  1  1  0  0  0
  1  2  2  0  0  0
  2  3  1  0  0  0
  3  4  2  0  0  0
  4  5  1  0  0  0
  5  6  2  0  0  0
  6 18  1  0  0  0
 18 19  1  0  0  0
 19 20  1  0  0  0
 20 21  2  0  0  0
 20 22  1  0  0  0
 22 25  1  0  0  0
 25 26  2  0  0  0
 26 27  1  0  0  0
 27 28  2  0  0  0
 28 29  1  0  0  0
 29 30  2  0  0  0
 28 31  1  0  0  0
 31 32  1  0  0  0
 31 33  1  0  0  0
 31 34  1  0  0  0
  3 14  1  0  0  0
 14 15  1  0  0  0
 14 16  1  0  0  0
 14 17  1  0  0  0
 13  8  1  0  0  0
  6  1  1  0  0  0
 30 25  1  0  0  0
 19 23  1  0  0  0
 22 24  1  0  0  0
M  END
> <minimizedAffinity>
-5.66509

> <CNNscore>
0.4092051983

> <CNNaffinity>
5.8837509155

> <CNN_VS>
2.4076614380

> <CNNaffinity_variance>
0.4172039032

$$$$
[H]c1c(C(F)(F)F)nc(N2C([H])([H])C([H])([H])C([H])(C([H])([H])[H])C([H])([H])C2([H])[H])c(C([H])([H])N([H])C(=O)N([H])c2c([H])c([H])c(C(C([H])([H])[H])(C([H])([H])[H])C([H])([H])[H])c([H])c2[H])c1[H]


 34 36  0  0  0  0  0  0  0  0999 V2000
  152.8456  139.5720  182.2077 C   0  0  0  0  0  0  0  0  0  0  0  0
  153.1006  140.9020  182.1582 N   0  0  0  0  0  0  0  0  0  0  0  0
  153.9984  141.4632  182.9603 C   0  0  0  0  0  0  0  0  0  0  0  0
  154.6776  140.6693  183.8519 C   0  0  0  0  0  0  0  0  0  0  0  0
  154.4416  139.2867  183.9257 C   0  0  0  0  0  0  0  0  0  0  0  0
  153.5046  138.7249  183.0781 C   0  0  0  0  0  0  0  0  0  0  0  0
  147.6785  139.6002  180.6996 C   0  0  0  0  0  0  0  0  0  0  0  0
  149.1521  139.6807  181.0550 C   0  0  0  0  0  0  0  0  0  0  0  0
  149.9686  139.4120  179.8290 C   0  0  0  0  0  0  0  0  0  0  0  0
  151.4802  139.4851  180.1521 C   0  0  0  0  0  0  0  0  0  0  0  0
  151.7205  139.0722  181.4796 N   0  0  0  0  0  0  0  0  0  0  0  0
  150.8210  138.2011  182.2488 C   0  0  0  0  0  0  0  0  0  0  0  0
  149.3752  138.5171  181.9983 C   0  0  0  0  0  0  0  0  0  0  0  0
  154.2215  142.9592  182.9272 C   0  0  0  0  0  0  0  0  0  0  0  0
  154.7377  143.3546  184.1478 F   0  0  0  0  0  0  0  0  0  0  0  0
  155.1991  143.2339  181.9829 F   0  0  0  0  0  0  0  0  0  0  0  0
  153.0948  143.6621  182.6242 F   0  0  0  0  0  0  0  0  0  0  0  0
  153.3294  137.2252  183.0275 C   0  0  0  0  0  0  0  0  0  0  0  0
  153.6365  136.6710  184.2258 N   0  0  0  0  0  0  0  0  0  0  0  0
  153.9388  136.3901  185.5828 C   0  0  0  0  0  0  0  0  0  0  0  0
  153.9095  137.3437  186.4444 O   0  0  0  0  0  0  0  0  0  0  0  0
  154.2505  135.0808  186.0037 N   0  0  0  0  0  0  0  0  0  0  0  0
  153.5985  138.0381  184.6787 H   0  0  0  0  0  0  0  0  0  0  0  0
  154.5114  134.3408  185.3292 H   0  0  0  0  0  0  0  0  0  0  0  0
  154.2207  134.8266  187.4197 C   0  0  0  0  0  0  0  0  0  0  0  0
  155.3414  134.3599  188.0690 C   0  0  0  0  0  0  0  0  0  0  0  0
  155.2315  133.8250  189.3294 C   0  0  0  0  0  0  0  0  0  0  0  0
  153.9937  133.7342  189.9963 C   0  0  0  0  0  0  0  0  0  0  0  0
  152.9058  134.2099  189.3484 C   0  0  0  0  0  0  0  0  0  0  0  0
  153.0029  134.7688  188.0417 C   0  0  0  0  0  0  0  0  0  0  0  0
  153.8896  132.9197  191.2275 C   0  0  0  0  0  0  0  0  0  0  0  0
  152.9568  131.7080  190.7435 C   0  0  0  0  0  0  0  0  0  0  0  0
  155.1477  132.2745  191.6705 C   0  0  0  0  0  0  0  0  0  0  0  0
  153.1053  133.4812  192.3493 C   0  0  0  0  0  0  0  0  0  0  0  0
  7  8  1  0  0  0
  8  9  1  0  0  0
  9 10  1  0  0  0
 10 11  1  0  0  0
 11 12  1  0  0  0
 12 13  1  0  0  0
 11  1  1  0  0  0
  1  2  2  0  0  0
  2  3  1  0  0  0
  3  4  2  0  0  0
  4  5  1  0  0  0
  5  6  2  0  0  0
  6 18  1  0  0  0
 18 19  1  0  0  0
 19 20  1  0  0  0
 20 21  2  0  0  0
 20 22  1  0  0  0
 22 25  1  0  0  0
 25 26  2  0  0  0
 26 27  1  0  0  0
 27 28  2  0  0  0
 28 29  1  0  0  0
 29 30  2  0  0  0
 28 31  1  0  0  0
 31 32  1  0  0  0
 31 33  1  0  0  0
 31 34  1  0  0  0
  3 14  1  0  0  0
 14 15  1  0  0  0
 14 16  1  0  0  0
 14 17  1  0  0  0
 13  8  1  0  0  0
  6  1  1  0  0  0
 30 25  1  0  0  0
 19 23  1  0  0  0
 22 24  1  0  0  0
M  END
> <minimizedAffinity>
-6.41187

> <CNNscore>
0.3665682375

> <CNNaffinity>
5.9835762978

> <CNN_VS>
2.1933889389

> <CNNaffinity_variance>
0.3122132421

$$$$
[H]c1c(C(F)(F)F)nc(N2C([H])([H])C([H])([H])C([H])(C([H])([H])[H])C([H])([H])C2([H])[H])c(C([H])([H])N([H])C(=O)N([H])c2c([H])c([H])c(C(C([H])([H])[H])(C([H])([H])[H])C([H])([H])[H])c([H])c2[H])c1[H]


 34 36  0  0  0  0  0  0  0  0999 V2000
  154.8646  140.3431  182.8453 C   0  0  0  0  0  0  0  0  0  0  0  0
  153.9537  140.5303  181.8597 N   0  0  0  0  0  0  0  0  0  0  0  0
  152.9169  139.7130  181.7132 C   0  0  0  0  0  0  0  0  0  0  0  0
  152.7742  138.6618  182.5856 C   0  0  0  0  0  0  0  0  0  0  0  0
  153.6969  138.4419  183.6215 C   0  0  0  0  0  0  0  0  0  0  0  0
  154.7662  139.3083  183.7559 C   0  0  0  0  0  0  0  0  0  0  0  0
  158.6665  143.2409  180.3711 C   0  0  0  0  0  0  0  0  0  0  0  0
  157.5256  142.5143  181.0602 C   0  0  0  0  0  0  0  0  0  0  0  0
  157.1956  143.2190  182.3394 C   0  0  0  0  0  0  0  0  0  0  0  0
  156.0344  142.5057  183.0725 C   0  0  0  0  0  0  0  0  0  0  0  0
  156.0654  141.1195  182.8121 N   0  0  0  0  0  0  0  0  0  0  0  0
  157.2686  140.3837  182.3997 C   0  0  0  0  0  0  0  0  0  0  0  0
  158.1098  141.1682  181.4353 C   0  0  0  0  0  0  0  0  0  0  0  0
  151.9473  139.9083  180.5684 C   0  0  0  0  0  0  0  0  0  0  0  0
  152.6276  139.7227  179.3786 F   0  0  0  0  0  0  0  0  0  0  0  0
  150.9907  138.9064  180.6308 F   0  0  0  0  0  0  0  0  0  0  0  0
  151.3288  141.1215  180.5916 F   0  0  0  0  0  0  0  0  0  0  0  0
  155.6946  139.1900  184.9418 C   0  0  0  0  0  0  0  0  0  0  0  0
  155.0672  138.5788  185.9764 N   0  0  0  0  0  0  0  0  0  0  0  0
  154.6592  137.7427  187.0470 C   0  0  0  0  0  0  0  0  0  0  0  0
  155.4314  136.7892  187.4303 O   0  0  0  0  0  0  0  0  0  0  0  0
  153.4319  137.9534  187.7086 N   0  0  0  0  0  0  0  0  0  0  0  0
  156.1725  137.6593  185.8843 H   0  0  0  0  0  0  0  0  0  0  0  0
  152.6872  138.5426  187.2978 H   0  0  0  0  0  0  0  0  0  0  0  0
  153.2477  137.2849  188.9695 C   0  0  0  0  0  0  0  0  0  0  0  0
  152.2212  136.3832  189.1384 C   0  0  0  0  0  0  0  0  0  0  0  0
  151.8539  135.9902  190.4023 C   0  0  0  0  0  0  0  0  0  0  0  0
  152.4990  136.4826  191.5540 C   0  0  0  0  0  0  0  0  0  0  0  0
  153.5138  137.3573  191.3681 C   0  0  0  0  0  0  0  0  0  0  0  0
  153.9080  137.7740  190.0641 C   0  0  0  0  0  0  0  0  0  0  0  0
  151.9001  136.2347  192.8844 C   0  0  0  0  0  0  0  0  0  0  0  0
  152.0385  137.6725  193.5816 C   0  0  0  0  0  0  0  0  0  0  0  0
  150.4454  135.9534  192.8837 C   0  0  0  0  0  0  0  0  0  0  0  0
  152.6530  135.3678  193.8174 C   0  0  0  0  0  0  0  0  0  0  0  0
  7  8  1  0  0  0
  8  9  1  0  0  0
  9 10  1  0  0  0
 10 11  1  0  0  0
 11 12  1  0  0  0
 12 13  1  0  0  0
 11  1  1  0  0  0
  1  2  2  0  0  0
  2  3  1  0  0  0
  3  4  2  0  0  0
  4  5  1  0  0  0
  5  6  2  0  0  0
  6 18  1  0  0  0
 18 19  1  0  0  0
 19 20  1  0  0  0
 20 21  2  0  0  0
 20 22  1  0  0  0
 22 25  1  0  0  0
 25 26  2  0  0  0
 26 27  1  0  0  0
 27 28  2  0  0  0
 28 29  1  0  0  0
 29 30  2  0  0  0
 28 31  1  0  0  0
 31 32  1  0  0  0
 31 33  1  0  0  0
 31 34  1  0  0  0
  3 14  1  0  0  0
 14 15  1  0  0  0
 14 16  1  0  0  0
 14 17  1  0  0  0
 13  8  1  0  0  0
  6  1  1  0  0  0
 30 25  1  0  0  0
 19 23  1  0  0  0
 22 24  1  0  0  0
M  END
> <minimizedAffinity>
-9.07549

> <CNNscore>
0.3621233106

> <CNNaffinity>
6.1823191643

> <CNN_VS>
2.2387619019

> <CNNaffinity_variance>
0.0827729553

$$$$
[H]c1c(C(F)(F)F)nc(N2C([H])([H])C([H])([H])C([H])(C([H])([H])[H])C([H])([H])C2([H])[H])c(C([H])([H])N([H])C(=O)N([H])c2c([H])c([H])c(C(C([H])([H])[H])(C([H])([H])[H])C([H])([H])[H])c([H])c2[H])c1[H]


 34 36  0  0  0  0  0  0  0  0999 V2000
  156.3107  135.5886  189.4066 C   0  0  0  0  0  0  0  0  0  0  0  0
  157.5922  135.1488  189.4288 N   0  0  0  0  0  0  0  0  0  0  0  0
  158.1584  134.6166  188.3515 C   0  0  0  0  0  0  0  0  0  0  0  0
  157.4212  134.5176  187.1968 C   0  0  0  0  0  0  0  0  0  0  0  0
  156.0924  134.9685  187.1377 C   0  0  0  0  0  0  0  0  0  0  0  0
  155.5259  135.5219  188.2712 C   0  0  0  0  0  0  0  0  0  0  0  0
  152.2139  137.3172  192.4401 C   0  0  0  0  0  0  0  0  0  0  0  0
  153.3159  136.7292  191.5774 C   0  0  0  0  0  0  0  0  0  0  0  0
  153.9546  135.5879  192.3065 C   0  0  0  0  0  0  0  0  0  0  0  0
  155.0860  134.9613  191.4569 C   0  0  0  0  0  0  0  0  0  0  0  0
  155.6964  135.9434  190.6487 N   0  0  0  0  0  0  0  0  0  0  0  0
  155.6755  137.3833  190.9414 C   0  0  0  0  0  0  0  0  0  0  0  0
  154.3512  137.8311  191.4880 C   0  0  0  0  0  0  0  0  0  0  0  0
  159.5707  134.0783  188.4190 C   0  0  0  0  0  0  0  0  0  0  0  0
  159.6887  133.0371  187.5164 F   0  0  0  0  0  0  0  0  0  0  0  0
  160.4372  135.0703  187.9854 F   0  0  0  0  0  0  0  0  0  0  0  0
  159.9332  133.6814  189.6705 F   0  0  0  0  0  0  0  0  0  0  0  0
  154.1528  136.1484  188.2051 C   0  0  0  0  0  0  0  0  0  0  0  0
  153.7850  136.3503  186.9161 N   0  0  0  0  0  0  0  0  0  0  0  0
  153.1196  136.6335  185.6960 C   0  0  0  0  0  0  0  0  0  0  0  0
  151.9063  137.0572  185.7246 O   0  0  0  0  0  0  0  0  0  0  0  0
  153.7734  136.4771  184.4564 N   0  0  0  0  0  0  0  0  0  0  0  0
  152.4983  136.6266  187.5023 H   0  0  0  0  0  0  0  0  0  0  0  0
  154.6470  135.9297  184.3681 H   0  0  0  0  0  0  0  0  0  0  0  0
  153.1530  137.0872  183.3104 C   0  0  0  0  0  0  0  0  0  0  0  0
  153.1863  138.4533  183.1430 C   0  0  0  0  0  0  0  0  0  0  0  0
  152.3429  139.0550  182.2411 C   0  0  0  0  0  0  0  0  0  0  0  0
  151.4284  138.3149  181.4658 C   0  0  0  0  0  0  0  0  0  0  0  0
  151.4191  136.9729  181.6341 C   0  0  0  0  0  0  0  0  0  0  0  0
  152.2882  136.3332  182.5642 C   0  0  0  0  0  0  0  0  0  0  0  0
  150.3724  139.0264  180.7117 C   0  0  0  0  0  0  0  0  0  0  0  0
  149.7131  137.8352  179.8637 C   0  0  0  0  0  0  0  0  0  0  0  0
  149.2620  139.5671  181.5302 C   0  0  0  0  0  0  0  0  0  0  0  0
  150.8076  139.9565  179.6467 C   0  0  0  0  0  0  0  0  0  0  0  0
  7  8  1  0  0  0
  8  9  1  0  0  0
  9 10  1  0  0  0
 10 11  1  0  0  0
 11 12  1  0  0  0
 12 13  1  0  0  0
 11  1  1  0  0  0
  1  2  2  0  0  0
  2  3  1  0  0  0
  3  4  2  0  0  0
  4  5  1  0  0  0
  5  6  2  0  0  0
  6 18  1  0  0  0
 18 19  1  0  0  0
 19 20  1  0  0  0
 20 21  2  0  0  0
 20 22  1  0  0  0
 22 25  1  0  0  0
 25 26  2  0  0  0
 26 27  1  0  0  0
 27 28  2  0  0  0
 28 29  1  0  0  0
 29 30  2  0  0  0
 28 31  1  0  0  0
 31 32  1  0  0  0
 31 33  1  0  0  0
 31 34  1  0  0  0
  3 14  1  0  0  0
 14 15  1  0  0  0
 14 16  1  0  0  0
 14 17  1  0  0  0
 13  8  1  0  0  0
  6  1  1  0  0  0
 30 25  1  0  0  0
 19 23  1  0  0  0
 22 24  1  0  0  0
M  END
> <minimizedAffinity>
-7.21868

> <CNNscore>
0.3460272551

> <CNNaffinity>
5.7654905319

> <CNN_VS>
1.9950168133

> <CNNaffinity_variance>
0.0312936604

$$$$
[H]c1c(C(F)(F)F)nc(N2C([H])([H])C([H])([H])C([H])(C([H])([H])[H])C([H])([H])C2([H])[H])c(C([H])([H])N([H])C(=O)N([H])c2c([H])c([H])c(C(C([H])([H])[H])(C([H])([H])[H])C([H])([H])[H])c([H])c2[H])c1[H]


 34 36  0  0  0  0  0  0  0  0999 V2000
  152.2725  139.9736  181.7484 C   0  0  0  0  0  0  0  0  0  0  0  0
  152.8437  141.1939  181.8931 N   0  0  0  0  0  0  0  0  0  0  0  0
  153.9176  141.3676  182.6554 C   0  0  0  0  0  0  0  0  0  0  0  0
  154.4525  140.2810  183.3032 C   0  0  0  0  0  0  0  0  0  0  0  0
  153.8887  139.0014  183.1709 C   0  0  0  0  0  0  0  0  0  0  0  0
  152.7730  138.8449  182.3691 C   0  0  0  0  0  0  0  0  0  0  0  0
  148.4613  137.4622  178.8952 C   0  0  0  0  0  0  0  0  0  0  0  0
  149.5032  138.1090  179.7899 C   0  0  0  0  0  0  0  0  0  0  0  0
  148.8120  138.8602  180.8853 C   0  0  0  0  0  0  0  0  0  0  0  0
  149.8436  139.5353  181.8204 C   0  0  0  0  0  0  0  0  0  0  0  0
  151.0009  139.8955  181.0984 N   0  0  0  0  0  0  0  0  0  0  0  0
  151.0316  140.1197  179.6464 C   0  0  0  0  0  0  0  0  0  0  0  0
  150.1733  139.1378  178.9033 C   0  0  0  0  0  0  0  0  0  0  0  0
  154.5004  142.7504  182.8484 C   0  0  0  0  0  0  0  0  0  0  0  0
  155.5312  142.9240  181.9427 F   0  0  0  0  0  0  0  0  0  0  0  0
  153.5295  143.6835  182.5176 F   0  0  0  0  0  0  0  0  0  0  0  0
  154.9272  142.9788  184.1215 F   0  0  0  0  0  0  0  0  0  0  0  0
  152.2282  137.4642  182.0875 C   0  0  0  0  0  0  0  0  0  0  0  0
  151.9287  136.8271  183.2459 N   0  0  0  0  0  0  0  0  0  0  0  0
  151.8813  136.2984  184.5611 C   0  0  0  0  0  0  0  0  0  0  0  0
  152.7718  136.6571  185.4160 O   0  0  0  0  0  0  0  0  0  0  0  0
  150.8634  135.4034  184.9501 N   0  0  0  0  0  0  0  0  0  0  0  0
  153.1650  137.4158  183.6937 H   0  0  0  0  0  0  0  0  0  0  0  0
  150.2757  134.9130  184.2539 H   0  0  0  0  0  0  0  0  0  0  0  0
  150.6985  135.1770  186.3616 C   0  0  0  0  0  0  0  0  0  0  0  0
  151.0605  133.9731  186.9226 C   0  0  0  0  0  0  0  0  0  0  0  0
  150.6211  133.6428  188.1814 C   0  0  0  0  0  0  0  0  0  0  0  0
  149.7995  134.5043  188.9351 C   0  0  0  0  0  0  0  0  0  0  0  0
  149.4650  135.6882  188.3732 C   0  0  0  0  0  0  0  0  0  0  0  0
  149.9134  136.0465  187.0694 C   0  0  0  0  0  0  0  0  0  0  0  0
  149.1450  133.9958  190.1611 C   0  0  0  0  0  0  0  0  0  0  0  0
  149.5203  135.1309  191.2304 C   0  0  0  0  0  0  0  0  0  0  0  0
  147.6637  133.9803  190.1306 C   0  0  0  0  0  0  0  0  0  0  0  0
  149.7200  132.7841  190.7856 C   0  0  0  0  0  0  0  0  0  0  0  0
  7  8  1  0  0  0
  8  9  1  0  0  0
  9 10  1  0  0  0
 10 11  1  0  0  0
 11 12  1  0  0  0
 12 13  1  0  0  0
 11  1  1  0  0  0
  1  2  2  0  0  0
  2  3  1  0  0  0
  3  4  2  0  0  0
  4  5  1  0  0  0
  5  6  2  0  0  0
  6 18  1  0  0  0
 18 19  1  0  0  0
 19 20  1  0  0  0
 20 21  2  0  0  0
 20 22  1  0  0  0
 22 25  1  0  0  0
 25 26  2  0  0  0
 26 27  1  0  0  0
 27 28  2  0  0  0
 28 29  1  0  0  0
 29 30  2  0  0  0
 28 31  1  0  0  0
 31 32  1  0  0  0
 31 33  1  0  0  0
 31 34  1  0  0  0
  3 14  1  0  0  0
 14 15  1  0  0  0
 14 16  1  0  0  0
 14 17  1  0  0  0
 13  8  1  0  0  0
  6  1  1  0  0  0
 30 25  1  0  0  0
 19 23  1  0  0  0
 22 24  1  0  0  0
M  END
> <minimizedAffinity>
-6.29990

> <CNNscore>
0.3390718997

> <CNNaffinity>
6.0631389618

> <CNN_VS>
2.0558400154

> <CNNaffinity_variance>
0.1884085536

$$$$
[H]c1c(-c2c([H])c([H])c([H])c3nc([H])n([H])c23)c([H])c2sc(N([H])C(=O)C([H])([H])[H])nc2c1[H]


 24 27  0  0  0  0  0  0  0  0999 V2000
  153.2941  136.0468  187.1933 C   0  0  0  0  0  0  0  0  0  0  0  0
  153.7908  135.7526  186.0175 N   0  0  0  0  0  0  0  0  0  0  0  0
  153.1602  136.0933  184.9214 C   0  0  0  0  0  0  0  0  0  0  0  0
  153.5911  135.8344  183.6081 C   0  0  0  0  0  0  0  0  0  0  0  0
  152.8187  136.2554  182.5574 C   0  0  0  0  0  0  0  0  0  0  0  0
  151.6197  136.9311  182.6695 C   0  0  0  0  0  0  0  0  0  0  0  0
  151.2061  137.1798  183.9663 C   0  0  0  0  0  0  0  0  0  0  0  0
  151.9802  136.7585  185.0589 C   0  0  0  0  0  0  0  0  0  0  0  0
  151.8356  136.8613  186.7590 S   0  0  0  0  0  0  0  0  0  0  0  0
  150.8389  137.3423  181.5403 C   0  0  0  0  0  0  0  0  0  0  0  0
  149.6539  136.6670  181.2317 C   0  0  0  0  0  0  0  0  0  0  0  0
  148.8982  137.0650  180.1585 C   0  0  0  0  0  0  0  0  0  0  0  0
  149.2976  138.1182  179.3893 C   0  0  0  0  0  0  0  0  0  0  0  0
  150.4793  138.8026  179.6848 C   0  0  0  0  0  0  0  0  0  0  0  0
  151.0986  139.8478  179.1078 N   0  0  0  0  0  0  0  0  0  0  0  0
  152.2168  140.0933  179.8087 C   0  0  0  0  0  0  0  0  0  0  0  0
  152.3308  139.2250  180.8288 N   0  0  0  0  0  0  0  0  0  0  0  0
  151.2548  138.4192  180.7597 C   0  0  0  0  0  0  0  0  0  0  0  0
  153.0884  139.1564  181.5479 H   0  0  0  0  0  0  0  0  0  0  0  0
  154.8289  138.1070  188.6622 C   0  0  0  0  0  0  0  0  0  0  0  0
  154.5284  136.7528  189.1919 C   0  0  0  0  0  0  0  0  0  0  0  0
  154.9826  136.5060  190.3627 O   0  0  0  0  0  0  0  0  0  0  0  0
  153.8076  135.7747  188.5111 N   0  0  0  0  0  0  0  0  0  0  0  0
  153.6294  134.8484  188.9310 H   0  0  0  0  0  0  0  0  0  0  0  0
 20 21  1  0  0  0
 21 22  2  0  0  0
 21 23  1  0  0  0
 23  1  1  0  0  0
  1  2  2  0  0  0
  2  3  1  0  0  0
  3  4  2  0  0  0
  4  5  1  0  0  0
  5  6  2  0  0  0
  6  7  1  0  0  0
  7  8  2  0  0  0
  8  9  1  0  0  0
  6 10  1  0  0  0
 10 11  2  0  0  0
 11 12  1  0  0  0
 12 13  2  0  0  0
 13 14  1  0  0  0
 14 15  1  0  0  0
 15 16  2  0  0  0
 16 17  1  0  0  0
 17 18  1  0  0  0
  9  1  1  0  0  0
 18 10  1  0  0  0
  8  3  1  0  0  0
 18 14  2  0  0  0
 23 24  1  0  0  0
 17 19  1  0  0  0
M  END
> <minimizedAffinity>
-4.91937

> <CNNscore>
0.3206965327

> <CNNaffinity>
5.0614295006

> <CNN_VS>
1.6231828928

> <CNNaffinity_variance>
0.1232934743

$$$$
[H]c1c(-c2c([H])c([H])c([H])c3nc([H])n([H])c23)c([H])c2sc(N([H])C(=O)C([H])([H])[H])nc2c1[H]


 24 27  0  0  0  0  0  0  0  0999 V2000
  154.5315  138.1581  185.9079 C   0  0  0  0  0  0  0  0  0  0  0  0
  155.7924  138.4996  186.0036 N   0  0  0  0  0  0  0  0  0  0  0  0
  156.3547  139.2444  185.0846 C   0  0  0  0  0  0  0  0  0  0  0  0
  157.6936  139.6741  185.0773 C   0  0  0  0  0  0  0  0  0  0  0  0
  158.1384  140.4536  184.0416 C   0  0  0  0  0  0  0  0  0  0  0  0
  157.3723  140.8701  182.9710 C   0  0  0  0  0  0  0  0  0  0  0  0
  156.0570  140.4410  182.9893 C   0  0  0  0  0  0  0  0  0  0  0  0
  155.5781  139.6419  184.0393 C   0  0  0  0  0  0  0  0  0  0  0  0
  154.0766  138.9244  184.4297 S   0  0  0  0  0  0  0  0  0  0  0  0
  157.8843  141.6766  181.9028 C   0  0  0  0  0  0  0  0  0  0  0  0
  157.8320  141.2034  180.5879 C   0  0  0  0  0  0  0  0  0  0  0  0
  158.3107  141.9773  179.5617 C   0  0  0  0  0  0  0  0  0  0  0  0
  158.8387  143.2086  179.8179 C   0  0  0  0  0  0  0  0  0  0  0  0
  158.8982  143.6950  181.1263 C   0  0  0  0  0  0  0  0  0  0  0  0
  159.3587  144.8432  181.6543 N   0  0  0  0  0  0  0  0  0  0  0  0
  159.1700  144.7828  182.9818 C   0  0  0  0  0  0  0  0  0  0  0  0
  158.5954  143.6156  183.3211 N   0  0  0  0  0  0  0  0  0  0  0  0
  158.4224  142.9333  182.1737 C   0  0  0  0  0  0  0  0  0  0  0  0
  158.3259  143.2712  184.2722 H   0  0  0  0  0  0  0  0  0  0  0  0
  154.4108  138.7587  188.8032 C   0  0  0  0  0  0  0  0  0  0  0  0
  153.6702  137.6512  188.1479 C   0  0  0  0  0  0  0  0  0  0  0  0
  152.9462  136.9372  188.9250 O   0  0  0  0  0  0  0  0  0  0  0  0
  153.7184  137.3581  186.7872 N   0  0  0  0  0  0  0  0  0  0  0  0
  153.1802  136.5730  186.3871 H   0  0  0  0  0  0  0  0  0  0  0  0
 20 21  1  0  0  0
 21 22  2  0  0  0
 21 23  1  0  0  0
 23  1  1  0  0  0
  1  2  2  0  0  0
  2  3  1  0  0  0
  3  4  2  0  0  0
  4  5  1  0  0  0
  5  6  2  0  0  0
  6  7  1  0  0  0
  7  8  2  0  0  0
  8  9  1  0  0  0
  6 10  1  0  0  0
 10 11  2  0  0  0
 11 12  1  0  0  0
 12 13  2  0  0  0
 13 14  1  0  0  0
 14 15  1  0  0  0
 15 16  2  0  0  0
 16 17  1  0  0  0
 17 18  1  0  0  0
  9  1  1  0  0  0
 18 10  1  0  0  0
  8  3  1  0  0  0
 18 14  2  0  0  0
 23 24  1  0  0  0
 17 19  1  0  0  0
M  END
> <minimizedAffinity>
-7.34490

> <CNNscore>
0.3154649436

> <CNNaffinity>
5.9215788841

> <CNN_VS>
1.8680505753

> <CNNaffinity_variance>
0.0293771476

$$$$
[H]c1c(-c2c([H])c([H])c([H])c3nc([H])n([H])c23)c([H])c2sc(N([H])C(=O)C([H])([H])[H])nc2c1[H]


 24 27  0  0  0  0  0  0  0  0999 V2000
  153.5601  135.1258  182.9128 C   0  0  0  0  0  0  0  0  0  0  0  0
  153.5810  136.3810  183.2866 N   0  0  0  0  0  0  0  0  0  0  0  0
  153.9130  136.7083  184.5105 C   0  0  0  0  0  0  0  0  0  0  0  0
  153.9717  138.0148  185.0273 C   0  0  0  0  0  0  0  0  0  0  0  0
  154.3379  138.1992  186.3349 C   0  0  0  0  0  0  0  0  0  0  0  0
  154.6650  137.1920  187.2209 C   0  0  0  0  0  0  0  0  0  0  0  0
  154.6034  135.9111  186.7011 C   0  0  0  0  0  0  0  0  0  0  0  0
  154.2310  135.6969  185.3647 C   0  0  0  0  0  0  0  0  0  0  0  0
  154.0368  134.3241  184.3651 S   0  0  0  0  0  0  0  0  0  0  0  0
  155.0315  137.4318  188.5855 C   0  0  0  0  0  0  0  0  0  0  0  0
  156.3132  137.9019  188.8887 C   0  0  0  0  0  0  0  0  0  0  0  0
  156.6637  138.1433  190.1926 C   0  0  0  0  0  0  0  0  0  0  0  0
  155.7665  137.9267  191.1968 C   0  0  0  0  0  0  0  0  0  0  0  0
  154.4824  137.4570  190.9098 C   0  0  0  0  0  0  0  0  0  0  0  0
  153.4237  137.1597  191.6844 N   0  0  0  0  0  0  0  0  0  0  0  0
  152.4361  136.7416  190.8773 C   0  0  0  0  0  0  0  0  0  0  0  0
  152.8378  136.7635  189.5945 N   0  0  0  0  0  0  0  0  0  0  0  0
  154.1086  137.2074  189.6053 C   0  0  0  0  0  0  0  0  0  0  0  0
  152.3019  136.4948  188.7364 H   0  0  0  0  0  0  0  0  0  0  0  0
  155.6647  133.8951  181.2352 C   0  0  0  0  0  0  0  0  0  0  0  0
  154.2307  133.9677  180.8571 C   0  0  0  0  0  0  0  0  0  0  0  0
  153.9329  133.4519  179.7244 O   0  0  0  0  0  0  0  0  0  0  0  0
  153.2309  134.5438  181.6372 N   0  0  0  0  0  0  0  0  0  0  0  0
  152.2481  134.5651  181.3214 H   0  0  0  0  0  0  0  0  0  0  0  0
 20 21  1  0  0  0
 21 22  2  0  0  0
 21 23  1  0  0  0
 23  1  1  0  0  0
  1  2  2  0  0  0
  2  3  1  0  0  0
  3  4  2  0  0  0
  4  5  1  0  0  0
  5  6  2  0  0  0
  6  7  1  0  0  0
  7  8  2  0  0  0
  8  9  1  0  0  0
  6 10  1  0  0  0
 10 11  2  0  0  0
 11 12  1  0  0  0
 12 13  2  0  0  0
 13 14  1  0  0  0
 14 15  1  0  0  0
 15 16  2  0  0  0
 16 17  1  0  0  0
 17 18  1  0  0  0
  9  1  1  0  0  0
 18 10  1  0  0  0
  8  3  1  0  0  0
 18 14  2  0  0  0
 23 24  1  0  0  0
 17 19  1  0  0  0
M  END
> <minimizedAffinity>
-5.61632

> <CNNscore>
0.2585869730

> <CNNaffinity>
4.9013714790

> <CNN_VS>
1.2674307823

> <CNNaffinity_variance>
0.1468821913

$$$$
[H]c1c(-c2c([H])c([H])c([H])c3nc([H])n([H])c23)c([H])c2sc(N([H])C(=O)C([H])([H])[H])nc2c1[H]


 24 27  0  0  0  0  0  0  0  0999 V2000
  151.9262  137.5338  183.1364 C   0  0  0  0  0  0  0  0  0  0  0  0
  151.3419  137.3080  184.2868 N   0  0  0  0  0  0  0  0  0  0  0  0
  152.0290  137.3328  185.4016 C   0  0  0  0  0  0  0  0  0  0  0  0
  151.5159  137.1073  186.6912 C   0  0  0  0  0  0  0  0  0  0  0  0
  152.3636  137.1671  187.7663 C   0  0  0  0  0  0  0  0  0  0  0  0
  153.7163  137.4365  187.7011 C   0  0  0  0  0  0  0  0  0  0  0  0
  154.2094  137.6564  186.4271 C   0  0  0  0  0  0  0  0  0  0  0  0
  153.3608  137.6004  185.3103 C   0  0  0  0  0  0  0  0  0  0  0  0
  153.5596  137.8035  183.6248 S   0  0  0  0  0  0  0  0  0  0  0  0
  154.5676  137.4774  188.8533 C   0  0  0  0  0  0  0  0  0  0  0  0
  154.5540  138.5993  189.6880 C   0  0  0  0  0  0  0  0  0  0  0  0
  155.3590  138.6371  190.7979 C   0  0  0  0  0  0  0  0  0  0  0  0
  156.1743  137.5839  191.0919 C   0  0  0  0  0  0  0  0  0  0  0  0
  156.1992  136.4563  190.2673 C   0  0  0  0  0  0  0  0  0  0  0  0
  156.8919  135.3043  190.3152 N   0  0  0  0  0  0  0  0  0  0  0  0
  156.5245  134.5665  189.2559 C   0  0  0  0  0  0  0  0  0  0  0  0
  155.6062  135.2214  188.5242 N   0  0  0  0  0  0  0  0  0  0  0  0
  155.3977  136.3970  189.1459 C   0  0  0  0  0  0  0  0  0  0  0  0
  155.1307  134.9139  187.6438 H   0  0  0  0  0  0  0  0  0  0  0  0
  152.1175  139.9742  181.4734 C   0  0  0  0  0  0  0  0  0  0  0  0
  151.4723  138.7115  181.0332 C   0  0  0  0  0  0  0  0  0  0  0  0
  150.9815  138.7266  179.8513 O   0  0  0  0  0  0  0  0  0  0  0  0
  151.3758  137.5566  181.8058 N   0  0  0  0  0  0  0  0  0  0  0  0
  150.9144  136.7060  181.4455 H   0  0  0  0  0  0  0  0  0  0  0  0
 20 21  1  0  0  0
 21 22  2  0  0  0
 21 23  1  0  0  0
 23  1  1  0  0  0
  1  2  2  0  0  0
  2  3  1  0  0  0
  3  4  2  0  0  0
  4  5  1  0  0  0
  5  6  2  0  0  0
  6  7  1  0  0  0
  7  8  2  0  0  0
  8  9  1  0  0  0
  6 10  1  0  0  0
 10 11  2  0  0  0
 11 12  1  0  0  0
 12 13  2  0  0  0
 13 14  1  0  0  0
 14 15  1  0  0  0
 15 16  2  0  0  0
 16 17  1  0  0  0
 17 18  1  0  0  0
  9  1  1  0  0  0
 18 10  1  0  0  0
  8  3  1  0  0  0
 18 14  2  0  0  0
 23 24  1  0  0  0
 17 19  1  0  0  0
M  END
> <minimizedAffinity>
-5.95530

> <CNNscore>
0.2375313491

> <CNNaffinity>
4.9402508736

> <CNN_VS>
1.1734644175

> <CNNaffinity_variance>
0.0996220559

$$$$
[H]c1c(-c2c([H])c([H])c([H])c3nc([H])n([H])c23)c([H])c2sc(N([H])C(=O)C([H])([H])[H])nc2c1[H]


 24 27  0  0  0  0  0  0  0  0999 V2000
  154.0850  137.3386  186.8862 C   0  0  0  0  0  0  0  0  0  0  0  0
  153.5942  138.1062  185.9451 N   0  0  0  0  0  0  0  0  0  0  0  0
  154.3791  138.8770  185.2344 C   0  0  0  0  0  0  0  0  0  0  0  0
  153.9716  139.7406  184.2021 C   0  0  0  0  0  0  0  0  0  0  0  0
  154.9148  140.4881  183.5465 C   0  0  0  0  0  0  0  0  0  0  0  0
  156.2698  140.4729  183.8117 C   0  0  0  0  0  0  0  0  0  0  0  0
  156.6584  139.6197  184.8293 C   0  0  0  0  0  0  0  0  0  0  0  0
  155.7109  138.8439  185.5155 C   0  0  0  0  0  0  0  0  0  0  0  0
  155.7688  137.7051  186.7889 S   0  0  0  0  0  0  0  0  0  0  0  0
  157.2193  141.2821  183.1065 C   0  0  0  0  0  0  0  0  0  0  0  0
  157.0343  141.5440  181.7453 C   0  0  0  0  0  0  0  0  0  0  0  0
  157.9350  142.3274  181.0698 C   0  0  0  0  0  0  0  0  0  0  0  0
  159.0123  142.8533  181.7204 C   0  0  0  0  0  0  0  0  0  0  0  0
  159.2109  142.6003  183.0800 C   0  0  0  0  0  0  0  0  0  0  0  0
  160.1644  142.9784  183.9501 N   0  0  0  0  0  0  0  0  0  0  0  0
  159.8617  142.4399  185.1418 C   0  0  0  0  0  0  0  0  0  0  0  0
  158.7291  141.7205  185.0572 N   0  0  0  0  0  0  0  0  0  0  0  0
  158.3174  141.8150  183.7791 C   0  0  0  0  0  0  0  0  0  0  0  0
  158.2392  141.1808  185.8085 H   0  0  0  0  0  0  0  0  0  0  0  0
  154.0222  137.8586  189.7989 C   0  0  0  0  0  0  0  0  0  0  0  0
  153.3969  136.6804  189.1467 C   0  0  0  0  0  0  0  0  0  0  0  0
  152.8040  135.8647  189.9348 O   0  0  0  0  0  0  0  0  0  0  0  0
  153.4193  136.4243  187.7779 N   0  0  0  0  0  0  0  0  0  0  0  0
  152.9659  135.5860  187.3805 H   0  0  0  0  0  0  0  0  0  0  0  0
 20 21  1  0  0  0
 21 22  2  0  0  0
 21 23  1  0  0  0
 23  1  1  0  0  0
  1  2  2  0  0  0
  2  3  1  0  0  0
  3  4  2  0  0  0
  4  5  1  0  0  0
  5  6  2  0  0  0
  6  7  1  0  0  0
  7  8  2  0  0  0
  8  9  1  0  0  0
  6 10  1  0  0  0
 10 11  2  0  0  0
 11 12  1  0  0  0
 12 13  2  0  0  0
 13 14  1  0  0  0
 14 15  1  0  0  0
 15 16  2  0  0  0
 16 17  1  0  0  0
 17 18  1  0  0  0
  9  1  1  0  0  0
 18 10  1  0  0  0
  8  3  1  0  0  0
 18 14  2  0  0  0
 23 24  1  0  0  0
 17 19  1  0  0  0
M  END
> <minimizedAffinity>
-6.95340

> <CNNscore>
0.2358636558

> <CNNaffinity>
5.7381372452

> <CNN_VS>
1.3534179926

> <CNNaffinity_variance>
0.1702786982

$$$$
[H]c1c(-c2c([H])c([H])c([H])c3nc([H])n([H])c23)c([H])c2sc(N([H])C(=O)C([H])([H])[H])nc2c1[H]


 24 27  0  0  0  0  0  0  0  0999 V2000
  157.6511  141.4429  184.5080 C   0  0  0  0  0  0  0  0  0  0  0  0
  156.7431  142.0477  183.7831 N   0  0  0  0  0  0  0  0  0  0  0  0
  155.6714  141.4088  183.3849 C   0  0  0  0  0  0  0  0  0  0  0  0
  154.6318  141.9481  182.6066 C   0  0  0  0  0  0  0  0  0  0  0  0
  153.5699  141.1510  182.2676 C   0  0  0  0  0  0  0  0  0  0  0  0
  153.4192  139.8270  182.6292 C   0  0  0  0  0  0  0  0  0  0  0  0
  154.4484  139.3076  183.3945 C   0  0  0  0  0  0  0  0  0  0  0  0
  155.5466  140.1044  183.7545 C   0  0  0  0  0  0  0  0  0  0  0  0
  156.9776  139.8607  184.6571 S   0  0  0  0  0  0  0  0  0  0  0  0
  152.2950  139.0276  182.2410 C   0  0  0  0  0  0  0  0  0  0  0  0
  151.8415  138.0092  183.0853 C   0  0  0  0  0  0  0  0  0  0  0  0
  150.7587  137.2496  182.7221 C   0  0  0  0  0  0  0  0  0  0  0  0
  150.1209  137.4831  181.5393 C   0  0  0  0  0  0  0  0  0  0  0  0
  150.5624  138.4967  180.6850 C   0  0  0  0  0  0  0  0  0  0  0  0
  150.1347  138.9326  179.4866 N   0  0  0  0  0  0  0  0  0  0  0  0
  150.9364  139.9422  179.1132 C   0  0  0  0  0  0  0  0  0  0  0  0
  151.8748  140.1667  180.0495 N   0  0  0  0  0  0  0  0  0  0  0  0
  151.6496  139.2728  181.0305 C   0  0  0  0  0  0  0  0  0  0  0  0
  152.6418  140.8790  180.0493 H   0  0  0  0  0  0  0  0  0  0  0  0
  160.1151  141.4419  182.8688 C   0  0  0  0  0  0  0  0  0  0  0  0
  160.0418  141.9361  184.2670 C   0  0  0  0  0  0  0  0  0  0  0  0
  161.1394  142.3807  184.7523 O   0  0  0  0  0  0  0  0  0  0  0  0
  158.8891  141.9420  185.0488 N   0  0  0  0  0  0  0  0  0  0  0  0
  158.8987  142.2990  186.0176 H   0  0  0  0  0  0  0  0  0  0  0  0
 20 21  1  0  0  0
 21 22  2  0  0  0
 21 23  1  0  0  0
 23  1  1  0  0  0
  1  2  2  0  0  0
  2  3  1  0  0  0
  3  4  2  0  0  0
  4  5  1  0  0  0
  5  6  2  0  0  0
  6  7  1  0  0  0
  7  8  2  0  0  0
  8  9  1  0  0  0
  6 10  1  0  0  0
 10 11  2  0  0  0
 11 12  1  0  0  0
 12 13  2  0  0  0
 13 14  1  0  0  0
 14 15  1  0  0  0
 15 16  2  0  0  0
 16 17  1  0  0  0
 17 18  1  0  0  0
  9  1  1  0  0  0
 18 10  1  0  0  0
  8  3  1  0  0  0
 18 14  2  0  0  0
 23 24  1  0  0  0
 17 19  1  0  0  0
M  END
> <minimizedAffinity>
-7.59326

> <CNNscore>
0.2296504229

> <CNNaffinity>
5.5349173546

> <CNN_VS>
1.2710961103

> <CNNaffinity_variance>
0.0628017858

$$$$
[H]c1c(-c2c([H])c([H])c([H])c3nc([H])n([H])c23)c([H])c2sc(N([H])C(=O)C([H])([H])[H])nc2c1[H]


 24 27  0  0  0  0  0  0  0  0999 V2000
  150.5611  138.2326  181.8525 C   0  0  0  0  0  0  0  0  0  0  0  0
  151.5265  138.1855  182.7366 N   0  0  0  0  0  0  0  0  0  0  0  0
  152.5112  139.0481  182.6975 C   0  0  0  0  0  0  0  0  0  0  0  0
  153.5990  139.0982  183.5872 C   0  0  0  0  0  0  0  0  0  0  0  0
  154.5560  140.0643  183.4171 C   0  0  0  0  0  0  0  0  0  0  0  0
  154.5531  141.0233  182.4237 C   0  0  0  0  0  0  0  0  0  0  0  0
  153.4781  140.9638  181.5546 C   0  0  0  0  0  0  0  0  0  0  0  0
  152.4853  139.9835  181.7084 C   0  0  0  0  0  0  0  0  0  0  0  0
  151.0450  139.5761  180.8829 S   0  0  0  0  0  0  0  0  0  0  0  0
  155.5835  142.0086  182.2774 C   0  0  0  0  0  0  0  0  0  0  0  0
  155.2776  143.3635  182.4394 C   0  0  0  0  0  0  0  0  0  0  0  0
  156.2635  144.3085  182.3112 C   0  0  0  0  0  0  0  0  0  0  0  0
  157.5432  143.9324  182.0260 C   0  0  0  0  0  0  0  0  0  0  0  0
  157.8642  142.5826  181.8610 C   0  0  0  0  0  0  0  0  0  0  0  0
  159.0143  141.9448  181.5789 N   0  0  0  0  0  0  0  0  0  0  0  0
  158.7473  140.6302  181.5323 C   0  0  0  0  0  0  0  0  0  0  0  0
  157.4448  140.4072  181.7796 N   0  0  0  0  0  0  0  0  0  0  0  0
  156.8882  141.6154  181.9855 C   0  0  0  0  0  0  0  0  0  0  0  0
  156.9315  139.4954  181.8107 H   0  0  0  0  0  0  0  0  0  0  0  0
  147.9431  139.1085  182.9187 C   0  0  0  0  0  0  0  0  0  0  0  0
  148.1699  137.8221  182.2128 C   0  0  0  0  0  0  0  0  0  0  0  0
  147.1378  137.0770  182.0804 O   0  0  0  0  0  0  0  0  0  0  0  0
  149.3963  137.3984  181.7065 N   0  0  0  0  0  0  0  0  0  0  0  0
  149.4938  136.4910  181.2235 H   0  0  0  0  0  0  0  0  0  0  0  0
 20 21  1  0  0  0
 21 22  2  0  0  0
 21 23  1  0  0  0
 23  1  1  0  0  0
  1  2  2  0  0  0
  2  3  1  0  0  0
  3  4  2  0  0  0
  4  5  1  0  0  0
  5  6  2  0  0  0
  6  7  1  0  0  0
  7  8  2  0  0  0
  8  9  1  0  0  0
  6 10  1  0  0  0
 10 11  2  0  0  0
 11 12  1  0  0  0
 12 13  2  0  0  0
 13 14  1  0  0  0
 14 15  1  0  0  0
 15 16  2  0  0  0
 16 17  1  0  0  0
 17 18  1  0  0  0
  9  1  1  0  0  0
 18 10  1  0  0  0
  8  3  1  0  0  0
 18 14  2  0  0  0
 23 24  1  0  0  0
 17 19  1  0  0  0
M  END
> <minimizedAffinity>
-7.59155

> <CNNscore>
0.2280578166

> <CNNaffinity>
5.5387711525

> <CNN_VS>
1.2631601095

> <CNNaffinity_variance>
0.0536704771

$$$$
[H]c1c(-c2c([H])c([H])c([H])c3nc([H])n([H])c23)c([H])c2sc(N([H])C(=O)C([H])([H])[H])nc2c1[H]


 24 27  0  0  0  0  0  0  0  0999 V2000
  153.8370  135.5996  186.6980 C   0  0  0  0  0  0  0  0  0  0  0  0
  153.9267  135.0862  185.4963 N   0  0  0  0  0  0  0  0  0  0  0  0
  153.4074  135.7043  184.4650 C   0  0  0  0  0  0  0  0  0  0  0  0
  153.4393  135.2551  183.1329 C   0  0  0  0  0  0  0  0  0  0  0  0
  152.8489  136.0160  182.1580 C   0  0  0  0  0  0  0  0  0  0  0  0
  152.2054  137.2198  182.3663 C   0  0  0  0  0  0  0  0  0  0  0  0
  152.1804  137.6512  183.6808 C   0  0  0  0  0  0  0  0  0  0  0  0
  152.7783  136.8893  184.6969 C   0  0  0  0  0  0  0  0  0  0  0  0
  152.9648  137.0564  186.3878 S   0  0  0  0  0  0  0  0  0  0  0  0
  151.5911  137.9765  181.3158 C   0  0  0  0  0  0  0  0  0  0  0  0
  152.2304  139.1142  180.8131 C   0  0  0  0  0  0  0  0  0  0  0  0
  151.6508  139.8344  179.7999 C   0  0  0  0  0  0  0  0  0  0  0  0
  150.4515  139.4456  179.2792 C   0  0  0  0  0  0  0  0  0  0  0  0
  149.8004  138.3115  179.7711 C   0  0  0  0  0  0  0  0  0  0  0  0
  148.6367  137.7163  179.4539 N   0  0  0  0  0  0  0  0  0  0  0  0
  148.4967  136.6483  180.2548 C   0  0  0  0  0  0  0  0  0  0  0  0
  149.5497  136.5427  181.0839 N   0  0  0  0  0  0  0  0  0  0  0  0
  150.3654  137.5723  180.7900 C   0  0  0  0  0  0  0  0  0  0  0  0
  149.7315  135.8231  181.8222 H   0  0  0  0  0  0  0  0  0  0  0  0
  156.4189  136.5505  187.7878 C   0  0  0  0  0  0  0  0  0  0  0  0
  155.5432  135.5574  188.4597 C   0  0  0  0  0  0  0  0  0  0  0  0
  155.9737  135.1119  189.5796 O   0  0  0  0  0  0  0  0  0  0  0  0
  154.3265  135.1019  187.9577 N   0  0  0  0  0  0  0  0  0  0  0  0
  153.7592  134.4083  188.4708 H   0  0  0  0  0  0  0  0  0  0  0  0
 20 21  1  0  0  0
 21 22  2  0  0  0
 21 23  1  0  0  0
 23  1  1  0  0  0
  1  2  2  0  0  0
  2  3  1  0  0  0
  3  4  2  0  0  0
  4  5  1  0  0  0
  5  6  2  0  0  0
  6  7  1  0  0  0
  7  8  2  0  0  0
  8  9  1  0  0  0
  6 10  1  0  0  0
 10 11  2  0  0  0
 11 12  1  0  0  0
 12 13  2  0  0  0
 13 14  1  0  0  0
 14 15  1  0  0  0
 15 16  2  0  0  0
 16 17  1  0  0  0
 17 18  1  0  0  0
  9  1  1  0  0  0
 18 10  1  0  0  0
  8  3  1  0  0  0
 18 14  2  0  0  0
 23 24  1  0  0  0
 17 19  1  0  0  0
M  END
> <minimizedAffinity>
-4.97531

> <CNNscore>
0.2121232450

> <CNNaffinity>
4.8255696297

> <CNN_VS>
1.0236154795

> <CNNaffinity_variance>
0.1477246583

$$$$
[H]c1c(-c2c([H])c([H])c([H])c3nc([H])n([H])c23)c([H])c2sc(N([H])C(=O)C([H])([H])[H])nc2c1[H]


 24 27  0  0  0  0  0  0  0  0999 V2000
  159.2989  141.6261  184.2345 C   0  0  0  0  0  0  0  0  0  0  0  0
  158.1749  142.2660  184.0276 N   0  0  0  0  0  0  0  0  0  0  0  0
  157.0582  141.6098  183.8334 C   0  0  0  0  0  0  0  0  0  0  0  0
  155.7950  142.1826  183.6021 C   0  0  0  0  0  0  0  0  0  0  0  0
  154.7140  141.3612  183.4157 C   0  0  0  0  0  0  0  0  0  0  0  0
  154.7488  139.9810  183.4341 C   0  0  0  0  0  0  0  0  0  0  0  0
  155.9970  139.4291  183.6622 C   0  0  0  0  0  0  0  0  0  0  0  0
  157.1192  140.2498  183.8561 C   0  0  0  0  0  0  0  0  0  0  0  0
  158.7805  139.9816  184.1559 S   0  0  0  0  0  0  0  0  0  0  0  0
  153.5926  139.1612  183.2222 C   0  0  0  0  0  0  0  0  0  0  0  0
  153.1974  138.2491  184.2058 C   0  0  0  0  0  0  0  0  0  0  0  0
  152.0848  137.4710  184.0112 C   0  0  0  0  0  0  0  0  0  0  0  0
  151.3606  137.5826  182.8608 C   0  0  0  0  0  0  0  0  0  0  0  0
  151.7430  138.4890  181.8687 C   0  0  0  0  0  0  0  0  0  0  0  0
  151.2285  138.7968  180.6647 N   0  0  0  0  0  0  0  0  0  0  0  0
  152.0067  139.7466  180.1226 C   0  0  0  0  0  0  0  0  0  0  0  0
  153.0151  140.0583  180.9553 N   0  0  0  0  0  0  0  0  0  0  0  0
  152.8588  139.2816  182.0436 C   0  0  0  0  0  0  0  0  0  0  0  0
  153.7850  140.7543  180.8187 H   0  0  0  0  0  0  0  0  0  0  0  0
  160.0820  142.6072  186.9145 C   0  0  0  0  0  0  0  0  0  0  0  0
  160.9820  142.5936  185.7336 C   0  0  0  0  0  0  0  0  0  0  0  0
  162.1626  143.0447  185.9356 O   0  0  0  0  0  0  0  0  0  0  0  0
  160.6259  142.1348  184.4677 N   0  0  0  0  0  0  0  0  0  0  0  0
  161.2961  142.1499  183.6824 H   0  0  0  0  0  0  0  0  0  0  0  0
 20 21  1  0  0  0
 21 22  2  0  0  0
 21 23  1  0  0  0
 23  1  1  0  0  0
  1  2  2  0  0  0
  2  3  1  0  0  0
  3  4  2  0  0  0
  4  5  1  0  0  0
  5  6  2  0  0  0
  6  7  1  0  0  0
  7  8  2  0  0  0
  8  9  1  0  0  0
  6 10  1  0  0  0
 10 11  2  0  0  0
 11 12  1  0  0  0
 12 13  2  0  0  0
 13 14  1  0  0  0
 14 15  1  0  0  0
 15 16  2  0  0  0
 16 17  1  0  0  0
 17 18  1  0  0  0
  9  1  1  0  0  0
 18 10  1  0  0  0
  8  3  1  0  0  0
 18 14  2  0  0  0
 23 24  1  0  0  0
 17 19  1  0  0  0
M  END
> <minimizedAffinity>
-8.08079

> <CNNscore>
0.1993688047

> <CNNaffinity>
5.6646299362

> <CNN_VS>
1.1293505430

> <CNNaffinity_variance>
0.0603898540

$$$$
[H]c1nc([H])c([H])c(-c2nn(C([H])([H])C([H])(C([H])([H])[H])C([H])([H])[H])c(N([H])C(=O)N([H])c3c([H])c([H])c(C(F)(F)F)c([H])c3[H])c2[H])c1[H]


 31 33  0  0  0  0  0  0  0  0999 V2000
  155.0975  134.3094  191.0324 N   0  0  0  0  0  0  0  0  0  0  0  0
  153.8036  133.9861  191.3536 C   0  0  0  0  0  0  0  0  0  0  0  0
  153.4215  134.3118  192.5709 O   0  0  0  0  0  0  0  0  0  0  0  0
  152.8483  133.3532  190.5378 N   0  0  0  0  0  0  0  0  0  0  0  0
  155.6163  134.8026  191.9009 H   0  0  0  0  0  0  0  0  0  0  0  0
  153.0134  133.0525  189.5737 H   0  0  0  0  0  0  0  0  0  0  0  0
  151.5335  133.0898  191.0853 C   0  0  0  0  0  0  0  0  0  0  0  0
  151.1969  131.8897  191.6688 C   0  0  0  0  0  0  0  0  0  0  0  0
  149.9382  131.6991  192.2218 C   0  0  0  0  0  0  0  0  0  0  0  0
  149.0245  132.7102  192.1872 C   0  0  0  0  0  0  0  0  0  0  0  0
  149.3248  133.9278  191.6085 C   0  0  0  0  0  0  0  0  0  0  0  0
  150.5982  134.0724  191.0675 C   0  0  0  0  0  0  0  0  0  0  0  0
  147.6660  132.5520  192.7849 C   0  0  0  0  0  0  0  0  0  0  0  0
  146.8428  131.9813  191.8445 F   0  0  0  0  0  0  0  0  0  0  0  0
  147.7462  131.7147  193.8851 F   0  0  0  0  0  0  0  0  0  0  0  0
  147.2730  133.8028  193.1943 F   0  0  0  0  0  0  0  0  0  0  0  0
  155.8343  135.1024  188.8451 N   0  0  0  0  0  0  0  0  0  0  0  0
  156.6640  134.7606  187.8918 N   0  0  0  0  0  0  0  0  0  0  0  0
  157.3314  133.6185  188.2146 C   0  0  0  0  0  0  0  0  0  0  0  0
  156.8280  133.2958  189.4553 C   0  0  0  0  0  0  0  0  0  0  0  0
  155.8911  134.1925  189.8866 C   0  0  0  0  0  0  0  0  0  0  0  0
  158.3108  132.9331  187.3783 C   0  0  0  0  0  0  0  0  0  0  0  0
  157.8651  132.4833  186.1198 C   0  0  0  0  0  0  0  0  0  0  0  0
  158.6882  131.8720  185.2139 C   0  0  0  0  0  0  0  0  0  0  0  0
  159.9933  131.7015  185.5741 N   0  0  0  0  0  0  0  0  0  0  0  0
  160.4427  132.1252  186.7762 C   0  0  0  0  0  0  0  0  0  0  0  0
  159.6267  132.7496  187.7123 C   0  0  0  0  0  0  0  0  0  0  0  0
  154.9808  136.2940  188.8338 C   0  0  0  0  0  0  0  0  0  0  0  0
  153.3926  135.6214  187.0122 C   0  0  0  0  0  0  0  0  0  0  0  0
  154.5219  136.5681  187.4182 C   0  0  0  0  0  0  0  0  0  0  0  0
  153.9855  137.9861  187.3628 C   0  0  0  0  0  0  0  0  0  0  0  0
 29 30  1  0  0  0
 30 31  1  0  0  0
 30 28  1  0  0  0
 28 17  1  0  0  0
 17 18  1  0  0  0
 18 19  2  0  0  0
 19 20  1  0  0  0
 20 21  2  0  0  0
 21  1  1  0  0  0
  1  2  1  0  0  0
  2  3  2  0  0  0
  2  4  1  0  0  0
  4  7  1  0  0  0
  7  8  2  0  0  0
  8  9  1  0  0  0
  9 10  2  0  0  0
 10 11  1  0  0  0
 11 12  2  0  0  0
 10 13  1  0  0  0
 13 14  1  0  0  0
 13 15  1  0  0  0
 13 16  1  0  0  0
 19 22  1  0  0  0
 22 23  2  0  0  0
 23 24  1  0  0  0
 24 25  2  0  0  0
 25 26  1  0  0  0
 26 27  2  0  0  0
 21 17  1  0  0  0
 12  7  1  0  0  0
 27 22  1  0  0  0
  1  5  1  0  0  0
  4  6  1  0  0  0
M  END
> <minimizedAffinity>
-2.03455

> <CNNscore>
0.5349286795

> <CNNaffinity>
5.7921533585

> <CNN_VS>
3.0983889103

> <CNNaffinity_variance>
2.0899474621

$$$$
[H]c1nc([H])c([H])c(-c2nn(C([H])([H])C([H])(C([H])([H])[H])C([H])([H])[H])c(N([H])C(=O)N([H])c3c([H])c([H])c(C(F)(F)F)c([H])c3[H])c2[H])c1[H]


 31 33  0  0  0  0  0  0  0  0999 V2000
  154.2429  138.8592  183.8969 N   0  0  0  0  0  0  0  0  0  0  0  0
  154.2339  138.5039  185.2219 C   0  0  0  0  0  0  0  0  0  0  0  0
  155.4178  138.3445  185.7760 O   0  0  0  0  0  0  0  0  0  0  0  0
  153.1147  138.2934  186.0475 N   0  0  0  0  0  0  0  0  0  0  0  0
  155.2964  138.9435  183.5102 H   0  0  0  0  0  0  0  0  0  0  0  0
  152.1417  138.3875  185.7447 H   0  0  0  0  0  0  0  0  0  0  0  0
  153.3322  137.9053  187.4259 C   0  0  0  0  0  0  0  0  0  0  0  0
  152.9582  136.6770  187.9212 C   0  0  0  0  0  0  0  0  0  0  0  0
  153.2292  136.3316  189.2380 C   0  0  0  0  0  0  0  0  0  0  0  0
  153.8723  137.2174  190.0505 C   0  0  0  0  0  0  0  0  0  0  0  0
  154.2613  138.4601  189.5900 C   0  0  0  0  0  0  0  0  0  0  0  0
  153.9686  138.7617  188.2639 C   0  0  0  0  0  0  0  0  0  0  0  0
  154.1973  136.8791  191.4675 C   0  0  0  0  0  0  0  0  0  0  0  0
  155.4777  137.3020  191.7310 F   0  0  0  0  0  0  0  0  0  0  0  0
  153.3188  137.5423  192.3080 F   0  0  0  0  0  0  0  0  0  0  0  0
  154.0128  135.5242  191.5962 F   0  0  0  0  0  0  0  0  0  0  0  0
  153.3436  140.2640  182.1155 N   0  0  0  0  0  0  0  0  0  0  0  0
  152.2973  140.3257  181.3309 N   0  0  0  0  0  0  0  0  0  0  0  0
  151.4499  139.2867  181.5680 C   0  0  0  0  0  0  0  0  0  0  0  0
  152.0787  138.5865  182.5735 C   0  0  0  0  0  0  0  0  0  0  0  0
  153.2616  139.1605  182.9470 C   0  0  0  0  0  0  0  0  0  0  0  0
  150.1740  139.0523  180.9005 C   0  0  0  0  0  0  0  0  0  0  0  0
  149.0104  139.2599  181.6671 C   0  0  0  0  0  0  0  0  0  0  0  0
  147.7486  139.1274  181.1549 C   0  0  0  0  0  0  0  0  0  0  0  0
  147.6436  138.7751  179.8408 N   0  0  0  0  0  0  0  0  0  0  0  0
  148.7463  138.5711  179.0865 C   0  0  0  0  0  0  0  0  0  0  0  0
  150.0380  138.7007  179.5834 C   0  0  0  0  0  0  0  0  0  0  0  0
  154.4635  141.2097  182.1045 C   0  0  0  0  0  0  0  0  0  0  0  0
  155.6764  142.4965  183.8838 C   0  0  0  0  0  0  0  0  0  0  0  0
  154.3178  142.1721  183.2630 C   0  0  0  0  0  0  0  0  0  0  0  0
  153.7267  143.4640  182.7311 C   0  0  0  0  0  0  0  0  0  0  0  0
 29 30  1  0  0  0
 30 31  1  0  0  0
 30 28  1  0  0  0
 28 17  1  0  0  0
 17 18  1  0  0  0
 18 19  2  0  0  0
 19 20  1  0  0  0
 20 21  2  0  0  0
 21  1  1  0  0  0
  1  2  1  0  0  0
  2  3  2  0  0  0
  2  4  1  0  0  0
  4  7  1  0  0  0
  7  8  2  0  0  0
  8  9  1  0  0  0
  9 10  2  0  0  0
 10 11  1  0  0  0
 11 12  2  0  0  0
 10 13  1  0  0  0
 13 14  1  0  0  0
 13 15  1  0  0  0
 13 16  1  0  0  0
 19 22  1  0  0  0
 22 23  2  0  0  0
 23 24  1  0  0  0
 24 25  2  0  0  0
 25 26  1  0  0  0
 26 27  2  0  0  0
 21 17  1  0  0  0
 12  7  1  0  0  0
 27 22  1  0  0  0
  1  5  1  0  0  0
  4  6  1  0  0  0
M  END
> <minimizedAffinity>
-7.82116

> <CNNscore>
0.4681360424

> <CNNaffinity>
5.7653656006

> <CNN_VS>
2.6989753246

> <CNNaffinity_variance>
0.1584696472

$$$$
[H]c1nc([H])c([H])c(-c2nn(C([H])([H])C([H])(C([H])([H])[H])C([H])([H])[H])c(N([H])C(=O)N([H])c3c([H])c([H])c(C(F)(F)F)c([H])c3[H])c2[H])c1[H]


 31 33  0  0  0  0  0  0  0  0999 V2000
  155.2520  139.3426  184.2600 N   0  0  0  0  0  0  0  0  0  0  0  0
  156.4763  139.8631  184.5946 C   0  0  0  0  0  0  0  0  0  0  0  0
  157.0640  139.3104  185.6353 O   0  0  0  0  0  0  0  0  0  0  0  0
  157.1685  140.9090  183.9578 N   0  0  0  0  0  0  0  0  0  0  0  0
  154.9596  138.5163  184.9659 H   0  0  0  0  0  0  0  0  0  0  0  0
  156.8273  141.4195  183.1391 H   0  0  0  0  0  0  0  0  0  0  0  0
  158.4533  141.3154  184.4887 C   0  0  0  0  0  0  0  0  0  0  0  0
  159.6118  141.2746  183.7470 C   0  0  0  0  0  0  0  0  0  0  0  0
  160.8126  141.7182  184.2835 C   0  0  0  0  0  0  0  0  0  0  0  0
  160.8465  142.1995  185.5585 C   0  0  0  0  0  0  0  0  0  0  0  0
  159.7051  142.2542  186.3343 C   0  0  0  0  0  0  0  0  0  0  0  0
  158.5255  141.7989  185.7543 C   0  0  0  0  0  0  0  0  0  0  0  0
  162.1135  142.7015  186.1673 C   0  0  0  0  0  0  0  0  0  0  0  0
  162.0455  144.0719  186.2407 F   0  0  0  0  0  0  0  0  0  0  0  0
  162.2416  142.1848  187.4458 F   0  0  0  0  0  0  0  0  0  0  0  0
  163.1364  142.2286  185.3822 F   0  0  0  0  0  0  0  0  0  0  0  0
  154.4211  140.6560  182.3784 N   0  0  0  0  0  0  0  0  0  0  0  0
  153.4194  140.6612  181.5354 N   0  0  0  0  0  0  0  0  0  0  0  0
  152.5849  139.6102  181.7655 C   0  0  0  0  0  0  0  0  0  0  0  0
  153.1727  138.9646  182.8307 C   0  0  0  0  0  0  0  0  0  0  0  0
  154.3187  139.5826  183.2463 C   0  0  0  0  0  0  0  0  0  0  0  0
  151.3544  139.3180  181.0380 C   0  0  0  0  0  0  0  0  0  0  0  0
  150.2443  138.9163  181.8067 C   0  0  0  0  0  0  0  0  0  0  0  0
  149.0154  138.6610  181.2620 C   0  0  0  0  0  0  0  0  0  0  0  0
  148.8903  138.8077  179.9112 N   0  0  0  0  0  0  0  0  0  0  0  0
  149.9418  139.1921  179.1542 C   0  0  0  0  0  0  0  0  0  0  0  0
  151.1990  139.4583  179.6842 C   0  0  0  0  0  0  0  0  0  0  0  0
  155.5170  141.6292  182.3926 C   0  0  0  0  0  0  0  0  0  0  0  0
  154.3122  143.3087  183.8141 C   0  0  0  0  0  0  0  0  0  0  0  0
  154.9438  143.0284  182.4507 C   0  0  0  0  0  0  0  0  0  0  0  0
  156.0811  144.0124  182.2514 C   0  0  0  0  0  0  0  0  0  0  0  0
 29 30  1  0  0  0
 30 31  1  0  0  0
 30 28  1  0  0  0
 28 17  1  0  0  0
 17 18  1  0  0  0
 18 19  2  0  0  0
 19 20  1  0  0  0
 20 21  2  0  0  0
 21  1  1  0  0  0
  1  2  1  0  0  0
  2  3  2  0  0  0
  2  4  1  0  0  0
  4  7  1  0  0  0
  7  8  2  0  0  0
  8  9  1  0  0  0
  9 10  2  0  0  0
 10 11  1  0  0  0
 11 12  2  0  0  0
 10 13  1  0  0  0
 13 14  1  0  0  0
 13 15  1  0  0  0
 13 16  1  0  0  0
 19 22  1  0  0  0
 22 23  2  0  0  0
 23 24  1  0  0  0
 24 25  2  0  0  0
 25 26  1  0  0  0
 26 27  2  0  0  0
 21 17  1  0  0  0
 12  7  1  0  0  0
 27 22  1  0  0  0
  1  5  1  0  0  0
  4  6  1  0  0  0
M  END
> <minimizedAffinity>
-10.07103

> <CNNscore>
0.4302929640

> <CNNaffinity>
6.4085512161

> <CNN_VS>
2.7575545311

> <CNNaffinity_variance>
0.0617758818

$$$$
[H]c1nc([H])c([H])c(-c2nn(C([H])([H])C([H])(C([H])([H])[H])C([H])([H])[H])c(N([H])C(=O)N([H])c3c([H])c([H])c(C(F)(F)F)c([H])c3[H])c2[H])c1[H]


 31 33  0  0  0  0  0  0  0  0999 V2000
  155.1199  136.0787  188.4948 N   0  0  0  0  0  0  0  0  0  0  0  0
  154.8883  136.9288  187.4433 C   0  0  0  0  0  0  0  0  0  0  0  0
  153.8696  137.7503  187.5900 O   0  0  0  0  0  0  0  0  0  0  0  0
  155.6088  137.0218  186.2388 N   0  0  0  0  0  0  0  0  0  0  0  0
  154.3656  136.2382  189.3147 H   0  0  0  0  0  0  0  0  0  0  0  0
  156.4210  136.4469  186.0002 H   0  0  0  0  0  0  0  0  0  0  0  0
  155.1812  137.9870  185.2472 C   0  0  0  0  0  0  0  0  0  0  0  0
  155.4434  137.8403  183.9042 C   0  0  0  0  0  0  0  0  0  0  0  0
  154.9731  138.7680  182.9850 C   0  0  0  0  0  0  0  0  0  0  0  0
  154.2440  139.8364  183.4155 C   0  0  0  0  0  0  0  0  0  0  0  0
  153.9623  140.0185  184.7553 C   0  0  0  0  0  0  0  0  0  0  0  0
  154.4542  139.0633  185.6391 C   0  0  0  0  0  0  0  0  0  0  0  0
  153.7059  140.8476  182.4585 C   0  0  0  0  0  0  0  0  0  0  0  0
  154.0986  140.4953  181.1899 F   0  0  0  0  0  0  0  0  0  0  0  0
  152.3224  140.8450  182.5219 F   0  0  0  0  0  0  0  0  0  0  0  0
  154.1770  142.0682  182.8766 F   0  0  0  0  0  0  0  0  0  0  0  0
  156.4903  134.1647  187.8507 N   0  0  0  0  0  0  0  0  0  0  0  0
  157.3793  133.3582  188.3734 N   0  0  0  0  0  0  0  0  0  0  0  0
  157.6289  133.6853  189.6713 C   0  0  0  0  0  0  0  0  0  0  0  0
  156.8057  134.7675  189.8906 C   0  0  0  0  0  0  0  0  0  0  0  0
  156.0766  135.1001  188.7834 C   0  0  0  0  0  0  0  0  0  0  0  0
  158.5409  132.9868  190.5707 C   0  0  0  0  0  0  0  0  0  0  0  0
  159.6997  132.4322  189.9926 C   0  0  0  0  0  0  0  0  0  0  0  0
  160.6648  131.7960  190.7245 C   0  0  0  0  0  0  0  0  0  0  0  0
  160.4676  131.7075  192.0718 N   0  0  0  0  0  0  0  0  0  0  0  0
  159.3635  132.2323  192.6478 C   0  0  0  0  0  0  0  0  0  0  0  0
  158.3702  132.8840  191.9261 C   0  0  0  0  0  0  0  0  0  0  0  0
  156.0132  134.1112  186.4658 C   0  0  0  0  0  0  0  0  0  0  0  0
  157.2871  132.1091  185.6522 C   0  0  0  0  0  0  0  0  0  0  0  0
  155.9139  132.6669  186.0257 C   0  0  0  0  0  0  0  0  0  0  0  0
  155.3808  131.8546  187.1908 C   0  0  0  0  0  0  0  0  0  0  0  0
 29 30  1  0  0  0
 30 31  1  0  0  0
 30 28  1  0  0  0
 28 17  1  0  0  0
 17 18  1  0  0  0
 18 19  2  0  0  0
 19 20  1  0  0  0
 20 21  2  0  0  0
 21  1  1  0  0  0
  1  2  1  0  0  0
  2  3  2  0  0  0
  2  4  1  0  0  0
  4  7  1  0  0  0
  7  8  2  0  0  0
  8  9  1  0  0  0
  9 10  2  0  0  0
 10 11  1  0  0  0
 11 12  2  0  0  0
 10 13  1  0  0  0
 13 14  1  0  0  0
 13 15  1  0  0  0
 13 16  1  0  0  0
 19 22  1  0  0  0
 22 23  2  0  0  0
 23 24  1  0  0  0
 24 25  2  0  0  0
 25 26  1  0  0  0
 26 27  2  0  0  0
 21 17  1  0  0  0
 12  7  1  0  0  0
 27 22  1  0  0  0
  1  5  1  0  0  0
  4  6  1  0  0  0
M  END
> <minimizedAffinity>
-0.66795

> <CNNscore>
0.3615403473

> <CNNaffinity>
5.6745171547

> <CNN_VS>
2.0515668392

> <CNNaffinity_variance>
1.8758535385

$$$$
[H]c1nc([H])c([H])c(-c2nn(C([H])([H])C([H])(C([H])([H])[H])C([H])([H])[H])c(N([H])C(=O)N([H])c3c([H])c([H])c(C(F)(F)F)c([H])c3[H])c2[H])c1[H]


 31 33  0  0  0  0  0  0  0  0999 V2000
  153.2983  138.3555  183.6452 N   0  0  0  0  0  0  0  0  0  0  0  0
  153.6873  138.3899  184.9603 C   0  0  0  0  0  0  0  0  0  0  0  0
  154.0199  139.5766  185.4239 O   0  0  0  0  0  0  0  0  0  0  0  0
  153.7695  137.3123  185.8605 N   0  0  0  0  0  0  0  0  0  0  0  0
  153.3448  139.3814  183.1849 H   0  0  0  0  0  0  0  0  0  0  0  0
  153.5371  136.3425  185.6308 H   0  0  0  0  0  0  0  0  0  0  0  0
  154.2230  137.5698  187.2117 C   0  0  0  0  0  0  0  0  0  0  0  0
  153.3714  137.9532  188.2224 C   0  0  0  0  0  0  0  0  0  0  0  0
  153.8443  138.1437  189.5134 C   0  0  0  0  0  0  0  0  0  0  0  0
  155.1661  137.9497  189.7846 C   0  0  0  0  0  0  0  0  0  0  0  0
  156.0516  137.5669  188.7963 C   0  0  0  0  0  0  0  0  0  0  0  0
  155.5321  137.3879  187.5183 C   0  0  0  0  0  0  0  0  0  0  0  0
  155.7120  138.1279  191.1624 C   0  0  0  0  0  0  0  0  0  0  0  0
  154.6568  138.2452  192.0345 F   0  0  0  0  0  0  0  0  0  0  0  0
  156.4608  137.0141  191.5041 F   0  0  0  0  0  0  0  0  0  0  0  0
  156.5316  139.2291  191.1167 F   0  0  0  0  0  0  0  0  0  0  0  0
  151.6811  137.4973  182.0314 N   0  0  0  0  0  0  0  0  0  0  0  0
  151.4703  136.4255  181.3097 N   0  0  0  0  0  0  0  0  0  0  0  0
  152.4547  135.5057  181.5064 C   0  0  0  0  0  0  0  0  0  0  0  0
  153.2851  136.1185  182.4184 C   0  0  0  0  0  0  0  0  0  0  0  0
  152.8407  137.3608  182.7747 C   0  0  0  0  0  0  0  0  0  0  0  0
  152.5296  134.1857  180.8894 C   0  0  0  0  0  0  0  0  0  0  0  0
  153.7694  133.8168  180.3310 C   0  0  0  0  0  0  0  0  0  0  0  0
  153.9961  132.5910  179.7672 C   0  0  0  0  0  0  0  0  0  0  0  0
  152.9558  131.7080  179.7572 N   0  0  0  0  0  0  0  0  0  0  0  0
  151.7579  132.0404  180.2871 C   0  0  0  0  0  0  0  0  0  0  0  0
  151.5036  133.2782  180.8663 C   0  0  0  0  0  0  0  0  0  0  0  0
  150.8302  138.6908  182.0382 C   0  0  0  0  0  0  0  0  0  0  0  0
  148.7981  139.4715  180.7917 C   0  0  0  0  0  0  0  0  0  0  0  0
  150.1943  138.8604  180.6757 C   0  0  0  0  0  0  0  0  0  0  0  0
  151.0558  139.8132  179.8687 C   0  0  0  0  0  0  0  0  0  0  0  0
 29 30  1  0  0  0
 30 31  1  0  0  0
 30 28  1  0  0  0
 28 17  1  0  0  0
 17 18  1  0  0  0
 18 19  2  0  0  0
 19 20  1  0  0  0
 20 21  2  0  0  0
 21  1  1  0  0  0
  1  2  1  0  0  0
  2  3  2  0  0  0
  2  4  1  0  0  0
  4  7  1  0  0  0
  7  8  2  0  0  0
  8  9  1  0  0  0
  9 10  2  0  0  0
 10 11  1  0  0  0
 11 12  2  0  0  0
 10 13  1  0  0  0
 13 14  1  0  0  0
 13 15  1  0  0  0
 13 16  1  0  0  0
 19 22  1  0  0  0
 22 23  2  0  0  0
 23 24  1  0  0  0
 24 25  2  0  0  0
 25 26  1  0  0  0
 26 27  2  0  0  0
 21 17  1  0  0  0
 12  7  1  0  0  0
 27 22  1  0  0  0
  1  5  1  0  0  0
  4  6  1  0  0  0
M  END
> <minimizedAffinity>
-5.56181

> <CNNscore>
0.3358969092

> <CNNaffinity>
5.4152131081

> <CNN_VS>
1.8189533949

> <CNNaffinity_variance>
0.1587636173

$$$$
[H]c1nc([H])c([H])c(-c2nn(C([H])([H])C([H])(C([H])([H])[H])C([H])([H])[H])c(N([H])C(=O)N([H])c3c([H])c([H])c(C(F)(F)F)c([H])c3[H])c2[H])c1[H]


 31 33  0  0  0  0  0  0  0  0999 V2000
  153.9205  138.8742  184.4414 N   0  0  0  0  0  0  0  0  0  0  0  0
  154.3125  138.2722  185.6101 C   0  0  0  0  0  0  0  0  0  0  0  0
  153.4644  137.3989  186.1121 O   0  0  0  0  0  0  0  0  0  0  0  0
  155.5058  138.4795  186.3252 N   0  0  0  0  0  0  0  0  0  0  0  0
  152.9071  138.5056  184.1192 H   0  0  0  0  0  0  0  0  0  0  0  0
  156.2485  139.1251  186.0443 H   0  0  0  0  0  0  0  0  0  0  0  0
  155.7143  137.7442  187.5555 C   0  0  0  0  0  0  0  0  0  0  0  0
  156.4017  136.5530  187.6035 C   0  0  0  0  0  0  0  0  0  0  0  0
  156.6168  135.9072  188.8131 C   0  0  0  0  0  0  0  0  0  0  0  0
  156.1427  136.4574  189.9668 C   0  0  0  0  0  0  0  0  0  0  0  0
  155.4467  137.6503  189.9585 C   0  0  0  0  0  0  0  0  0  0  0  0
  155.2556  138.2608  188.7232 C   0  0  0  0  0  0  0  0  0  0  0  0
  156.3667  135.8038  191.2899 C   0  0  0  0  0  0  0  0  0  0  0  0
  157.3167  134.8236  191.1335 F   0  0  0  0  0  0  0  0  0  0  0  0
  156.8320  136.7464  192.1915 F   0  0  0  0  0  0  0  0  0  0  0  0
  155.1426  135.3418  191.7078 F   0  0  0  0  0  0  0  0  0  0  0  0
  153.8248  140.2941  182.4588 N   0  0  0  0  0  0  0  0  0  0  0  0
  154.5838  141.1328  181.7995 N   0  0  0  0  0  0  0  0  0  0  0  0
  155.7972  141.2674  182.4023 C   0  0  0  0  0  0  0  0  0  0  0  0
  155.7062  140.4292  183.4913 C   0  0  0  0  0  0  0  0  0  0  0  0
  154.4947  139.8008  183.5651 C   0  0  0  0  0  0  0  0  0  0  0  0
  156.9013  142.0959  181.9298 C   0  0  0  0  0  0  0  0  0  0  0  0
  157.7151  141.5498  180.9178 C   0  0  0  0  0  0  0  0  0  0  0  0
  158.7523  142.2352  180.3464 C   0  0  0  0  0  0  0  0  0  0  0  0
  158.9868  143.5010  180.7990 N   0  0  0  0  0  0  0  0  0  0  0  0
  158.2189  144.0449  181.7690 C   0  0  0  0  0  0  0  0  0  0  0  0
  157.1594  143.3695  182.3636 C   0  0  0  0  0  0  0  0  0  0  0  0
  152.4482  139.9408  182.1003 C   0  0  0  0  0  0  0  0  0  0  0  0
  151.8139  137.6047  181.4421 C   0  0  0  0  0  0  0  0  0  0  0  0
  152.4677  138.9110  180.9919 C   0  0  0  0  0  0  0  0  0  0  0  0
  151.6652  139.4577  179.8263 C   0  0  0  0  0  0  0  0  0  0  0  0
 29 30  1  0  0  0
 30 31  1  0  0  0
 30 28  1  0  0  0
 28 17  1  0  0  0
 17 18  1  0  0  0
 18 19  2  0  0  0
 19 20  1  0  0  0
 20 21  2  0  0  0
 21  1  1  0  0  0
  1  2  1  0  0  0
  2  3  2  0  0  0
  2  4  1  0  0  0
  4  7  1  0  0  0
  7  8  2  0  0  0
  8  9  1  0  0  0
  9 10  2  0  0  0
 10 11  1  0  0  0
 11 12  2  0  0  0
 10 13  1  0  0  0
 13 14  1  0  0  0
 13 15  1  0  0  0
 13 16  1  0  0  0
 19 22  1  0  0  0
 22 23  2  0  0  0
 23 24  1  0  0  0
 24 25  2  0  0  0
 25 26  1  0  0  0
 26 27  2  0  0  0
 21 17  1  0  0  0
 12  7  1  0  0  0
 27 22  1  0  0  0
  1  5  1  0  0  0
  4  6  1  0  0  0
M  END
> <minimizedAffinity>
-8.29148

> <CNNscore>
0.3325637579

> <CNNaffinity>
5.9855966568

> <CNN_VS>
1.9905924797

> <CNNaffinity_variance>
0.0091992784

$$$$
[H]c1nc([H])c([H])c(-c2nn(C([H])([H])C([H])(C([H])([H])[H])C([H])([H])[H])c(N([H])C(=O)N([H])c3c([H])c([H])c(C(F)(F)F)c([H])c3[H])c2[H])c1[H]


 31 33  0  0  0  0  0  0  0  0999 V2000
  155.4005  138.7320  184.9697 N   0  0  0  0  0  0  0  0  0  0  0  0
  155.0867  138.3659  186.2540 C   0  0  0  0  0  0  0  0  0  0  0  0
  156.1102  138.0625  187.0249 O   0  0  0  0  0  0  0  0  0  0  0  0
  153.8086  138.2796  186.8349 N   0  0  0  0  0  0  0  0  0  0  0  0
  156.5127  138.6961  184.8015 H   0  0  0  0  0  0  0  0  0  0  0  0
  152.9328  138.4907  186.3495 H   0  0  0  0  0  0  0  0  0  0  0  0
  153.7009  137.8536  188.2150 C   0  0  0  0  0  0  0  0  0  0  0  0
  154.4251  138.4332  189.2316 C   0  0  0  0  0  0  0  0  0  0  0  0
  154.2542  138.0227  190.5465 C   0  0  0  0  0  0  0  0  0  0  0  0
  153.3602  137.0350  190.8356 C   0  0  0  0  0  0  0  0  0  0  0  0
  152.6167  136.4283  189.8422 C   0  0  0  0  0  0  0  0  0  0  0  0
  152.8219  136.8726  188.5400 C   0  0  0  0  0  0  0  0  0  0  0  0
  153.1343  136.5759  192.2378 C   0  0  0  0  0  0  0  0  0  0  0  0
  152.7055  137.6489  192.9811 F   0  0  0  0  0  0  0  0  0  0  0  0
  152.1535  135.5981  192.2454 F   0  0  0  0  0  0  0  0  0  0  0  0
  154.3208  136.0317  192.6648 F   0  0  0  0  0  0  0  0  0  0  0  0
  155.0852  140.1989  183.0448 N   0  0  0  0  0  0  0  0  0  0  0  0
  154.2208  140.4048  182.0834 N   0  0  0  0  0  0  0  0  0  0  0  0
  153.1795  139.5319  182.1706 C   0  0  0  0  0  0  0  0  0  0  0  0
  153.4909  138.7751  183.2783 C   0  0  0  0  0  0  0  0  0  0  0  0
  154.6694  139.1569  183.8556 C   0  0  0  0  0  0  0  0  0  0  0  0
  152.0210  139.4890  181.2847 C   0  0  0  0  0  0  0  0  0  0  0  0
  150.7982  139.0905  181.8598 C   0  0  0  0  0  0  0  0  0  0  0  0
  149.6234  139.0549  181.1596 C   0  0  0  0  0  0  0  0  0  0  0  0
  149.6693  139.4246  179.8469 N   0  0  0  0  0  0  0  0  0  0  0  0
  150.8312  139.8104  179.2745 C   0  0  0  0  0  0  0  0  0  0  0  0
  152.0367  139.8561  179.9650 C   0  0  0  0  0  0  0  0  0  0  0  0
  156.3345  140.9429  183.2301 C   0  0  0  0  0  0  0  0  0  0  0  0
  158.0576  141.3399  181.4507 C   0  0  0  0  0  0  0  0  0  0  0  0
  157.4223  140.3129  182.3877 C   0  0  0  0  0  0  0  0  0  0  0  0
  158.5031  139.7998  183.3204 C   0  0  0  0  0  0  0  0  0  0  0  0
 29 30  1  0  0  0
 30 31  1  0  0  0
 30 28  1  0  0  0
 28 17  1  0  0  0
 17 18  1  0  0  0
 18 19  2  0  0  0
 19 20  1  0  0  0
 20 21  2  0  0  0
 21  1  1  0  0  0
  1  2  1  0  0  0
  2  3  2  0  0  0
  2  4  1  0  0  0
  4  7  1  0  0  0
  7  8  2  0  0  0
  8  9  1  0  0  0
  9 10  2  0  0  0
 10 11  1  0  0  0
 11 12  2  0  0  0
 10 13  1  0  0  0
 13 14  1  0  0  0
 13 15  1  0  0  0
 13 16  1  0  0  0
 19 22  1  0  0  0
 22 23  2  0  0  0
 23 24  1  0  0  0
 24 25  2  0  0  0
 25 26  1  0  0  0
 26 27  2  0  0  0
 21 17  1  0  0  0
 12  7  1  0  0  0
 27 22  1  0  0  0
  1  5  1  0  0  0
  4  6  1  0  0  0
M  END
> <minimizedAffinity>
-8.32499

> <CNNscore>
0.2995685935

> <CNNaffinity>
5.7364912033

> <CNN_VS>
1.7184726000

> <CNNaffinity_variance>
0.0561436713

$$$$
[H]c1nc([H])c([H])c(-c2nn(C([H])([H])C([H])(C([H])([H])[H])C([H])([H])[H])c(N([H])C(=O)N([H])c3c([H])c([H])c(C(F)(F)F)c([H])c3[H])c2[H])c1[H]


 31 33  0  0  0  0  0  0  0  0999 V2000
  154.4325  141.4393  181.9498 N   0  0  0  0  0  0  0  0  0  0  0  0
  155.7098  141.6044  182.4224 C   0  0  0  0  0  0  0  0  0  0  0  0
  156.2617  142.7736  182.1729 O   0  0  0  0  0  0  0  0  0  0  0  0
  156.4883  140.6759  183.1369 N   0  0  0  0  0  0  0  0  0  0  0  0
  154.0815  142.3616  181.4088 H   0  0  0  0  0  0  0  0  0  0  0  0
  156.1793  139.7362  183.3989 H   0  0  0  0  0  0  0  0  0  0  0  0
  157.8301  141.0528  183.5308 C   0  0  0  0  0  0  0  0  0  0  0  0
  158.8833  141.0891  182.6457 C   0  0  0  0  0  0  0  0  0  0  0  0
  160.1425  141.5015  183.0592 C   0  0  0  0  0  0  0  0  0  0  0  0
  160.3397  141.8748  184.3554 C   0  0  0  0  0  0  0  0  0  0  0  0
  159.3079  141.8498  185.2732 C   0  0  0  0  0  0  0  0  0  0  0  0
  158.0641  141.4295  184.8130 C   0  0  0  0  0  0  0  0  0  0  0  0
  161.6737  142.3402  184.8367 C   0  0  0  0  0  0  0  0  0  0  0  0
  162.6452  141.7059  184.1006 F   0  0  0  0  0  0  0  0  0  0  0  0
  161.7776  143.7074  184.6417 F   0  0  0  0  0  0  0  0  0  0  0  0
  161.7182  142.0692  186.1824 F   0  0  0  0  0  0  0  0  0  0  0  0
  153.2807  139.6512  183.1465 N   0  0  0  0  0  0  0  0  0  0  0  0
  152.3448  138.7594  182.9398 N   0  0  0  0  0  0  0  0  0  0  0  0
  151.8502  138.8579  181.6750 C   0  0  0  0  0  0  0  0  0  0  0  0
  152.5754  139.8941  181.1297 C   0  0  0  0  0  0  0  0  0  0  0  0
  153.4796  140.4173  182.0109 C   0  0  0  0  0  0  0  0  0  0  0  0
  150.8188  138.0080  181.0898 C   0  0  0  0  0  0  0  0  0  0  0  0
  150.0803  138.5528  180.0208 C   0  0  0  0  0  0  0  0  0  0  0  0
  149.1197  137.8502  179.3459 C   0  0  0  0  0  0  0  0  0  0  0  0
  148.8865  136.5680  179.7502 N   0  0  0  0  0  0  0  0  0  0  0  0
  149.5830  136.0249  180.7731 C   0  0  0  0  0  0  0  0  0  0  0  0
  150.5640  136.7177  181.4730 C   0  0  0  0  0  0  0  0  0  0  0  0
  154.0035  139.8390  184.4077 C   0  0  0  0  0  0  0  0  0  0  0  0
  155.4828  138.1770  185.5664 C   0  0  0  0  0  0  0  0  0  0  0  0
  154.0518  138.5258  185.1578 C   0  0  0  0  0  0  0  0  0  0  0  0
  153.2278  138.6750  186.4229 C   0  0  0  0  0  0  0  0  0  0  0  0
 29 30  1  0  0  0
 30 31  1  0  0  0
 30 28  1  0  0  0
 28 17  1  0  0  0
 17 18  1  0  0  0
 18 19  2  0  0  0
 19 20  1  0  0  0
 20 21  2  0  0  0
 21  1  1  0  0  0
  1  2  1  0  0  0
  2  3  2  0  0  0
  2  4  1  0  0  0
  4  7  1  0  0  0
  7  8  2  0  0  0
  8  9  1  0  0  0
  9 10  2  0  0  0
 10 11  1  0  0  0
 11 12  2  0  0  0
 10 13  1  0  0  0
 13 14  1  0  0  0
 13 15  1  0  0  0
 13 16  1  0  0  0
 19 22  1  0  0  0
 22 23  2  0  0  0
 23 24  1  0  0  0
 24 25  2  0  0  0
 25 26  1  0  0  0
 26 27  2  0  0  0
 21 17  1  0  0  0
 12  7  1  0  0  0
 27 22  1  0  0  0
  1  5  1  0  0  0
  4  6  1  0  0  0
M  END
> <minimizedAffinity>
-8.59362

> <CNNscore>
0.2696028054

> <CNNaffinity>
6.1382517815

> <CNN_VS>
1.6548899412

> <CNNaffinity_variance>
0.0687452555

$$$$
[H]c1nc([H])c([H])c(-c2nn(C([H])([H])C([H])(C([H])([H])[H])C([H])([H])[H])c(N([H])C(=O)N([H])c3c([H])c([H])c(C(F)(F)F)c([H])c3[H])c2[H])c1[H]


 31 33  0  0  0  0  0  0  0  0999 V2000
  157.8882  142.3620  183.9616 N   0  0  0  0  0  0  0  0  0  0  0  0
  158.8795  142.3563  184.9099 C   0  0  0  0  0  0  0  0  0  0  0  0
  158.4892  142.0891  186.1388 O   0  0  0  0  0  0  0  0  0  0  0  0
  160.2517  142.6001  184.7200 N   0  0  0  0  0  0  0  0  0  0  0  0
  156.8871  142.1387  184.4247 H   0  0  0  0  0  0  0  0  0  0  0  0
  160.6857  142.8149  183.8185 H   0  0  0  0  0  0  0  0  0  0  0  0
  161.1297  142.5590  185.8711 C   0  0  0  0  0  0  0  0  0  0  0  0
  160.6619  142.5781  187.1652 C   0  0  0  0  0  0  0  0  0  0  0  0
  161.5392  142.4900  188.2372 C   0  0  0  0  0  0  0  0  0  0  0  0
  162.8787  142.3836  188.0074 C   0  0  0  0  0  0  0  0  0  0  0  0
  163.3860  142.3632  186.7229 C   0  0  0  0  0  0  0  0  0  0  0  0
  162.4689  142.4540  185.6808 C   0  0  0  0  0  0  0  0  0  0  0  0
  163.8544  142.2700  189.1313 C   0  0  0  0  0  0  0  0  0  0  0  0
  163.4243  143.0718  190.1609 F   0  0  0  0  0  0  0  0  0  0  0  0
  163.8971  140.9562  189.5674 F   0  0  0  0  0  0  0  0  0  0  0  0
  165.0803  142.6181  188.6191 F   0  0  0  0  0  0  0  0  0  0  0  0
  156.7999  142.0926  181.7938 N   0  0  0  0  0  0  0  0  0  0  0  0
  157.0068  142.3857  180.5347 N   0  0  0  0  0  0  0  0  0  0  0  0
  158.1830  143.0533  180.3779 C   0  0  0  0  0  0  0  0  0  0  0  0
  158.6744  143.1379  181.6618 C   0  0  0  0  0  0  0  0  0  0  0  0
  157.8456  142.5510  182.5764 C   0  0  0  0  0  0  0  0  0  0  0  0
  158.7465  143.5105  179.1122 C   0  0  0  0  0  0  0  0  0  0  0  0
  160.0030  144.1450  179.1705 C   0  0  0  0  0  0  0  0  0  0  0  0
  160.6708  144.5768  178.0571 C   0  0  0  0  0  0  0  0  0  0  0  0
  160.0671  144.3725  176.8506 N   0  0  0  0  0  0  0  0  0  0  0  0
  158.8621  143.7660  176.7709 C   0  0  0  0  0  0  0  0  0  0  0  0
  158.1650  143.3177  177.8868 C   0  0  0  0  0  0  0  0  0  0  0  0
  155.6177  141.4011  182.3161 C   0  0  0  0  0  0  0  0  0  0  0  0
  154.0113  142.3698  183.9817 C   0  0  0  0  0  0  0  0  0  0  0  0
  154.5068  142.4047  182.5361 C   0  0  0  0  0  0  0  0  0  0  0  0
  155.0627  143.7901  182.2659 C   0  0  0  0  0  0  0  0  0  0  0  0
 29 30  1  0  0  0
 30 31  1  0  0  0
 30 28  1  0  0  0
 28 17  1  0  0  0
 17 18  1  0  0  0
 18 19  2  0  0  0
 19 20  1  0  0  0
 20 21  2  0  0  0
 21  1  1  0  0  0
  1  2  1  0  0  0
  2  3  2  0  0  0
  2  4  1  0  0  0
  4  7  1  0  0  0
  7  8  2  0  0  0
  8  9  1  0  0  0
  9 10  2  0  0  0
 10 11  1  0  0  0
 11 12  2  0  0  0
 10 13  1  0  0  0
 13 14  1  0  0  0
 13 15  1  0  0  0
 13 16  1  0  0  0
 19 22  1  0  0  0
 22 23  2  0  0  0
 23 24  1  0  0  0
 24 25  2  0  0  0
 25 26  1  0  0  0
 26 27  2  0  0  0
 21 17  1  0  0  0
 12  7  1  0  0  0
 27 22  1  0  0  0
  1  5  1  0  0  0
  4  6  1  0  0  0
M  END
> <minimizedAffinity>
7.87312

> <CNNscore>
0.2667880654

> <CNNaffinity>
6.4967179298

> <CNN_VS>
1.7332468033

> <CNNaffinity_variance>
0.5958786011

$$$$
[H]c1nc(N2C([H])([H])C([H])([H])c3nc(N4C([H])([H])C([H])([H])N([H])C([H])([H])C4([H])[H])nc(N([H])c4c([H])c(S(=O)(=O)N([H])C([H])([H])[H])c([H])c([H])c4Cl)c3C([H])([H])C2([H])[H])c(C(F)(F)F)c([H])c1[H]


 43 47  0  0  0  0  0  0  0  0999 V2000
  153.8626  139.5263  183.5282 C   0  0  0  0  0  0  0  0  0  0  0  0
  152.9483  139.3736  182.5204 N   0  0  0  0  0  0  0  0  0  0  0  0
  152.3479  138.2307  182.1962 C   0  0  0  0  0  0  0  0  0  0  0  0
  152.6921  137.1380  182.9484 N   0  0  0  0  0  0  0  0  0  0  0  0
  153.5687  137.2244  183.9329 C   0  0  0  0  0  0  0  0  0  0  0  0
  153.8381  135.9802  184.7149 C   0  0  0  0  0  0  0  0  0  0  0  0
  153.2777  136.2469  186.0950 C   0  0  0  0  0  0  0  0  0  0  0  0
  154.0110  137.1187  186.9321 N   0  0  0  0  0  0  0  0  0  0  0  0
  154.6515  138.3739  186.6971 C   0  0  0  0  0  0  0  0  0  0  0  0
  155.2306  138.5898  185.3328 C   0  0  0  0  0  0  0  0  0  0  0  0
  154.2063  138.4336  184.2753 C   0  0  0  0  0  0  0  0  0  0  0  0
  151.3991  138.1131  181.1558 N   0  0  0  0  0  0  0  0  0  0  0  0
  151.5087  138.9601  180.0071 C   0  0  0  0  0  0  0  0  0  0  0  0
  150.1178  139.2217  179.4640 C   0  0  0  0  0  0  0  0  0  0  0  0
  149.1370  139.1802  180.5072 N   0  0  0  0  0  0  0  0  0  0  0  0
  148.9818  137.8946  181.1260 C   0  0  0  0  0  0  0  0  0  0  0  0
  150.3258  137.1631  181.2350 C   0  0  0  0  0  0  0  0  0  0  0  0
  149.4188  139.8587  181.2578 H   0  0  0  0  0  0  0  0  0  0  0  0
  154.1132  136.7167  188.2932 C   0  0  0  0  0  0  0  0  0  0  0  0
  153.0404  137.1501  189.0323 N   0  0  0  0  0  0  0  0  0  0  0  0
  152.9109  136.8885  190.3080 C   0  0  0  0  0  0  0  0  0  0  0  0
  153.8954  136.1493  190.9217 C   0  0  0  0  0  0  0  0  0  0  0  0
  154.9846  135.6950  190.2266 C   0  0  0  0  0  0  0  0  0  0  0  0
  155.0930  135.9893  188.8751 C   0  0  0  0  0  0  0  0  0  0  0  0
  156.2558  135.5185  188.1303 C   0  0  0  0  0  0  0  0  0  0  0  0
  157.1141  134.7421  188.8913 F   0  0  0  0  0  0  0  0  0  0  0  0
  156.8351  136.4780  187.3841 F   0  0  0  0  0  0  0  0  0  0  0  0
  155.7540  134.5911  187.1626 F   0  0  0  0  0  0  0  0  0  0  0  0
  154.3812  140.7974  183.8587 N   0  0  0  0  0  0  0  0  0  0  0  0
  153.9660  141.2467  184.7147 H   0  0  0  0  0  0  0  0  0  0  0  0
  157.4921  141.9856  182.1148 C   0  0  0  0  0  0  0  0  0  0  0  0
  157.1570  143.3003  181.9286 C   0  0  0  0  0  0  0  0  0  0  0  0
  155.9436  143.7800  182.3557 C   0  0  0  0  0  0  0  0  0  0  0  0
  155.0660  142.9217  182.9741 C   0  0  0  0  0  0  0  0  0  0  0  0
  153.5537  143.5762  183.4897 Cl  0  0  0  0  0  0  0  0  0  0  0  0
  155.3478  141.5648  183.1951 C   0  0  0  0  0  0  0  0  0  0  0  0
  156.5738  141.1533  182.7452 C   0  0  0  0  0  0  0  0  0  0  0  0
  159.0469  141.3970  181.5660 S   0  0  0  0  0  0  0  0  0  0  0  0
  158.9050  140.1671  180.7583 O   0  0  0  0  0  0  0  0  0  0  0  0
  159.6813  142.4772  180.7170 O   0  0  0  0  0  0  0  0  0  0  0  0
  160.0739  142.2826  183.8298 C   0  0  0  0  0  0  0  0  0  0  0  0
  160.1088  141.1611  182.9213 N   0  0  0  0  0  0  0  0  0  0  0  0
  161.0693  140.9311  182.6163 H   0  0  0  0  0  0  0  0  0  0  0  0
 41 42  1  0  0  0
 42 38  1  0  0  0
 38 39  2  0  0  0
 38 40  2  0  0  0
 38 31  1  0  0  0
 31 32  2  0  0  0
 32 33  1  0  0  0
 33 34  2  0  0  0
 34 35  1  0  0  0
 34 36  1  0  0  0
 36 29  1  0  0  0
 29  1  1  0  0  0
  1  2  2  0  0  0
  2  3  1  0  0  0
  3  4  2  0  0  0
  4  5  1  0  0  0
  5  6  1  0  0  0
  6  7  1  0  0  0
  7  8  1  0  0  0
  8  9  1  0  0  0
  9 10  1  0  0  0
 10 11  1  0  0  0
  8 19  1  0  0  0
 19 20  2  0  0  0
 20 21  1  0  0  0
 21 22  2  0  0  0
 22 23  1  0  0  0
 23 24  2  0  0  0
 24 25  1  0  0  0
 25 26  1  0  0  0
 25 27  1  0  0  0
 25 28  1  0  0  0
  3 12  1  0  0  0
 12 13  1  0  0  0
 13 14  1  0  0  0
 14 15  1  0  0  0
 15 16  1  0  0  0
 16 17  1  0  0  0
 36 37  2  0  0  0
 37 31  1  0  0  0
 11  1  1  0  0  0
 24 19  1  0  0  0
 17 12  1  0  0  0
 11  5  2  0  0  0
 42 43  1  0  0  0
 29 30  1  0  0  0
 15 18  1  0  0  0
M  END
> <minimizedAffinity>
-8.47852

> <CNNscore>
0.2433831692

> <CNNaffinity>
7.1331262589

> <CNN_VS>
1.7360829115

> <CNNaffinity_variance>
0.1943282336

$$$$
[H]c1nc(N2C([H])([H])C([H])([H])c3nc(N4C([H])([H])C([H])([H])N([H])C([H])([H])C4([H])[H])nc(N([H])c4c([H])c(S(=O)(=O)N([H])C([H])([H])[H])c([H])c([H])c4Cl)c3C([H])([H])C2([H])[H])c(C(F)(F)F)c([H])c1[H]


 43 47  0  0  0  0  0  0  0  0999 V2000
  153.7847  139.6371  183.4737 C   0  0  0  0  0  0  0  0  0  0  0  0
  152.6474  139.4672  182.7301 N   0  0  0  0  0  0  0  0  0  0  0  0
  152.0488  138.3009  182.4997 C   0  0  0  0  0  0  0  0  0  0  0  0
  152.6403  137.2012  183.0645 N   0  0  0  0  0  0  0  0  0  0  0  0
  153.7388  137.3033  183.7910 C   0  0  0  0  0  0  0  0  0  0  0  0
  154.2748  136.0459  184.3942 C   0  0  0  0  0  0  0  0  0  0  0  0
  154.0834  136.2058  185.8867 C   0  0  0  0  0  0  0  0  0  0  0  0
  154.9605  137.0872  186.5593 N   0  0  0  0  0  0  0  0  0  0  0  0
  155.4442  138.3949  186.2476 C   0  0  0  0  0  0  0  0  0  0  0  0
  155.6304  138.7163  184.7967 C   0  0  0  0  0  0  0  0  0  0  0  0
  154.3744  138.5375  184.0336 C   0  0  0  0  0  0  0  0  0  0  0  0
  150.8677  138.1651  181.7360 N   0  0  0  0  0  0  0  0  0  0  0  0
  150.8149  138.7253  180.4199 C   0  0  0  0  0  0  0  0  0  0  0  0
  149.3865  139.1404  180.1272 C   0  0  0  0  0  0  0  0  0  0  0  0
  148.6951  139.5031  181.3283 N   0  0  0  0  0  0  0  0  0  0  0  0
  148.5111  138.4243  182.2567 C   0  0  0  0  0  0  0  0  0  0  0  0
  149.7202  137.4802  182.2604 C   0  0  0  0  0  0  0  0  0  0  0  0
  149.2471  140.2498  181.8190 H   0  0  0  0  0  0  0  0  0  0  0  0
  155.4402  136.6293  187.8182 C   0  0  0  0  0  0  0  0  0  0  0  0
  156.5519  135.8358  187.6795 N   0  0  0  0  0  0  0  0  0  0  0  0
  157.1753  135.3099  188.7030 C   0  0  0  0  0  0  0  0  0  0  0  0
  156.6876  135.5696  189.9628 C   0  0  0  0  0  0  0  0  0  0  0  0
  155.5815  136.3550  190.1518 C   0  0  0  0  0  0  0  0  0  0  0  0
  154.9427  136.8977  189.0464 C   0  0  0  0  0  0  0  0  0  0  0  0
  153.7573  137.7261  189.2388 C   0  0  0  0  0  0  0  0  0  0  0  0
  152.6186  137.1934  188.6572 F   0  0  0  0  0  0  0  0  0  0  0  0
  153.9783  139.0344  189.0101 F   0  0  0  0  0  0  0  0  0  0  0  0
  153.4613  137.6702  190.6380 F   0  0  0  0  0  0  0  0  0  0  0  0
  154.2990  140.9249  183.7396 N   0  0  0  0  0  0  0  0  0  0  0  0
  153.8779  141.4179  184.5683 H   0  0  0  0  0  0  0  0  0  0  0  0
  157.4227  142.0301  181.9646 C   0  0  0  0  0  0  0  0  0  0  0  0
  157.0800  143.3280  181.6938 C   0  0  0  0  0  0  0  0  0  0  0  0
  155.8576  143.8227  182.0755 C   0  0  0  0  0  0  0  0  0  0  0  0
  154.9787  142.9966  182.7346 C   0  0  0  0  0  0  0  0  0  0  0  0
  153.4549  143.6687  183.1902 Cl  0  0  0  0  0  0  0  0  0  0  0  0
  155.2681  141.6583  183.0421 C   0  0  0  0  0  0  0  0  0  0  0  0
  156.5029  141.2303  182.6335 C   0  0  0  0  0  0  0  0  0  0  0  0
  158.9890  141.4221  181.4723 S   0  0  0  0  0  0  0  0  0  0  0  0
  158.8614  140.1919  180.6628 O   0  0  0  0  0  0  0  0  0  0  0  0
  159.6655  142.4927  180.6439 O   0  0  0  0  0  0  0  0  0  0  0  0
  159.9820  142.3207  183.7461 C   0  0  0  0  0  0  0  0  0  0  0  0
  159.9996  141.1774  182.8648 N   0  0  0  0  0  0  0  0  0  0  0  0
  160.9590  140.9029  182.5948 H   0  0  0  0  0  0  0  0  0  0  0  0
 41 42  1  0  0  0
 42 38  1  0  0  0
 38 39  2  0  0  0
 38 40  2  0  0  0
 38 31  1  0  0  0
 31 32  2  0  0  0
 32 33  1  0  0  0
 33 34  2  0  0  0
 34 35  1  0  0  0
 34 36  1  0  0  0
 36 29  1  0  0  0
 29  1  1  0  0  0
  1  2  2  0  0  0
  2  3  1  0  0  0
  3  4  2  0  0  0
  4  5  1  0  0  0
  5  6  1  0  0  0
  6  7  1  0  0  0
  7  8  1  0  0  0
  8  9  1  0  0  0
  9 10  1  0  0  0
 10 11  1  0  0  0
  8 19  1  0  0  0
 19 20  2  0  0  0
 20 21  1  0  0  0
 21 22  2  0  0  0
 22 23  1  0  0  0
 23 24  2  0  0  0
 24 25  1  0  0  0
 25 26  1  0  0  0
 25 27  1  0  0  0
 25 28  1  0  0  0
  3 12  1  0  0  0
 12 13  1  0  0  0
 13 14  1  0  0  0
 14 15  1  0  0  0
 15 16  1  0  0  0
 16 17  1  0  0  0
 36 37  2  0  0  0
 37 31  1  0  0  0
 11  1  1  0  0  0
 24 19  1  0  0  0
 17 12  1  0  0  0
 11  5  2  0  0  0
 42 43  1  0  0  0
 29 30  1  0  0  0
 15 18  1  0  0  0
M  END
> <minimizedAffinity>
-8.89903

> <CNNscore>
0.2042677999

> <CNNaffinity>
7.0165390968

> <CNN_VS>
1.4332530499

> <CNNaffinity_variance>
0.3920208812

$$$$
[H]c1nc(N2C([H])([H])C([H])([H])c3nc(N4C([H])([H])C([H])([H])N([H])C([H])([H])C4([H])[H])nc(N([H])c4c([H])c(S(=O)(=O)N([H])C([H])([H])[H])c([H])c([H])c4Cl)c3C([H])([H])C2([H])[H])c(C(F)(F)F)c([H])c1[H]


 43 47  0  0  0  0  0  0  0  0999 V2000
  152.4189  137.1109  186.4737 C   0  0  0  0  0  0  0  0  0  0  0  0
  151.4167  137.3000  185.5601 N   0  0  0  0  0  0  0  0  0  0  0  0
  150.4318  136.4394  185.3128 C   0  0  0  0  0  0  0  0  0  0  0  0
  150.4487  135.2818  186.0461 N   0  0  0  0  0  0  0  0  0  0  0  0
  151.3906  135.0437  186.9411 C   0  0  0  0  0  0  0  0  0  0  0  0
  151.2884  133.7690  187.7137 C   0  0  0  0  0  0  0  0  0  0  0  0
  150.9875  134.1875  189.1365 C   0  0  0  0  0  0  0  0  0  0  0  0
  152.0519  134.7388  189.8860 N   0  0  0  0  0  0  0  0  0  0  0  0
  153.0598  135.7010  189.5710 C   0  0  0  0  0  0  0  0  0  0  0  0
  153.5457  135.7288  188.1546 C   0  0  0  0  0  0  0  0  0  0  0  0
  152.4348  135.9534  187.2020 C   0  0  0  0  0  0  0  0  0  0  0  0
  149.4063  136.6739  184.3694 N   0  0  0  0  0  0  0  0  0  0  0  0
  148.4498  137.7099  184.6158 C   0  0  0  0  0  0  0  0  0  0  0  0
  147.1301  137.3104  183.9856 C   0  0  0  0  0  0  0  0  0  0  0  0
  146.9810  135.8861  183.9527 N   0  0  0  0  0  0  0  0  0  0  0  0
  147.9310  135.2083  183.1174 C   0  0  0  0  0  0  0  0  0  0  0  0
  149.3055  135.8873  183.1727 C   0  0  0  0  0  0  0  0  0  0  0  0
  147.0988  135.5152  184.9283 H   0  0  0  0  0  0  0  0  0  0  0  0
  152.1381  134.3018  191.2374 C   0  0  0  0  0  0  0  0  0  0  0  0
  152.8615  133.1404  191.3500 N   0  0  0  0  0  0  0  0  0  0  0  0
  153.0846  132.5571  192.5001 C   0  0  0  0  0  0  0  0  0  0  0  0
  152.5684  133.1402  193.6340 C   0  0  0  0  0  0  0  0  0  0  0  0
  151.8400  134.2985  193.5724 C   0  0  0  0  0  0  0  0  0  0  0  0
  151.6207  134.8925  192.3380 C   0  0  0  0  0  0  0  0  0  0  0  0
  150.8364  136.1203  192.2629 C   0  0  0  0  0  0  0  0  0  0  0  0
  151.4914  137.1473  191.6033 F   0  0  0  0  0  0  0  0  0  0  0  0
  150.2487  136.4497  193.4286 F   0  0  0  0  0  0  0  0  0  0  0  0
  149.7348  135.8310  191.3961 F   0  0  0  0  0  0  0  0  0  0  0  0
  153.3720  138.1198  186.7331 N   0  0  0  0  0  0  0  0  0  0  0  0
  153.3783  138.4943  187.7163 H   0  0  0  0  0  0  0  0  0  0  0  0
  154.9952  139.9958  183.9088 C   0  0  0  0  0  0  0  0  0  0  0  0
  156.3107  139.7926  184.2308 C   0  0  0  0  0  0  0  0  0  0  0  0
  156.6539  139.0683  185.3454 C   0  0  0  0  0  0  0  0  0  0  0  0
  155.6580  138.5483  186.1372 C   0  0  0  0  0  0  0  0  0  0  0  0
  156.1449  137.6474  187.5275 Cl  0  0  0  0  0  0  0  0  0  0  0  0
  154.2924  138.7201  185.8634 C   0  0  0  0  0  0  0  0  0  0  0  0
  154.0210  139.4513  184.7380 C   0  0  0  0  0  0  0  0  0  0  0  0
  154.5810  140.9189  182.4800 S   0  0  0  0  0  0  0  0  0  0  0  0
  153.6198  140.1903  181.6254 O   0  0  0  0  0  0  0  0  0  0  0  0
  153.9553  142.2208  182.9311 O   0  0  0  0  0  0  0  0  0  0  0  0
  156.5096  142.6536  181.9952 C   0  0  0  0  0  0  0  0  0  0  0  0
  156.0216  141.3508  181.6092 N   0  0  0  0  0  0  0  0  0  0  0  0
  155.8879  141.2670  180.5876 H   0  0  0  0  0  0  0  0  0  0  0  0
 41 42  1  0  0  0
 42 38  1  0  0  0
 38 39  2  0  0  0
 38 40  2  0  0  0
 38 31  1  0  0  0
 31 32  2  0  0  0
 32 33  1  0  0  0
 33 34  2  0  0  0
 34 35  1  0  0  0
 34 36  1  0  0  0
 36 29  1  0  0  0
 29  1  1  0  0  0
  1  2  2  0  0  0
  2  3  1  0  0  0
  3  4  2  0  0  0
  4  5  1  0  0  0
  5  6  1  0  0  0
  6  7  1  0  0  0
  7  8  1  0  0  0
  8  9  1  0  0  0
  9 10  1  0  0  0
 10 11  1  0  0  0
  8 19  1  0  0  0
 19 20  2  0  0  0
 20 21  1  0  0  0
 21 22  2  0  0  0
 22 23  1  0  0  0
 23 24  2  0  0  0
 24 25  1  0  0  0
 25 26  1  0  0  0
 25 27  1  0  0  0
 25 28  1  0  0  0
  3 12  1  0  0  0
 12 13  1  0  0  0
 13 14  1  0  0  0
 14 15  1  0  0  0
 15 16  1  0  0  0
 16 17  1  0  0  0
 36 37  2  0  0  0
 37 31  1  0  0  0
 11  1  1  0  0  0
 24 19  1  0  0  0
 17 12  1  0  0  0
 11  5  2  0  0  0
 42 43  1  0  0  0
 29 30  1  0  0  0
 15 18  1  0  0  0
M  END
> <minimizedAffinity>
-6.33142

> <CNNscore>
0.1641605645

> <CNNaffinity>
6.4065141678

> <CNN_VS>
1.0516970158

> <CNNaffinity_variance>
0.0821449757

$$$$
[H]c1nc(N2C([H])([H])C([H])([H])c3nc(N4C([H])([H])C([H])([H])N([H])C([H])([H])C4([H])[H])nc(N([H])c4c([H])c(S(=O)(=O)N([H])C([H])([H])[H])c([H])c([H])c4Cl)c3C([H])([H])C2([H])[H])c(C(F)(F)F)c([H])c1[H]


 43 47  0  0  0  0  0  0  0  0999 V2000
  153.4828  138.5141  183.7012 C   0  0  0  0  0  0  0  0  0  0  0  0
  152.5778  137.9688  182.8303 N   0  0  0  0  0  0  0  0  0  0  0  0
  151.9961  138.6165  181.8234 C   0  0  0  0  0  0  0  0  0  0  0  0
  152.3512  139.9315  181.6713 N   0  0  0  0  0  0  0  0  0  0  0  0
  153.2184  140.5118  182.4813 C   0  0  0  0  0  0  0  0  0  0  0  0
  153.5649  141.9373  182.1984 C   0  0  0  0  0  0  0  0  0  0  0  0
  155.0135  141.9169  181.7613 C   0  0  0  0  0  0  0  0  0  0  0  0
  155.9881  141.7162  182.7656 N   0  0  0  0  0  0  0  0  0  0  0  0
  156.0676  140.8125  183.8692 C   0  0  0  0  0  0  0  0  0  0  0  0
  154.7746  140.4286  184.5203 C   0  0  0  0  0  0  0  0  0  0  0  0
  153.8330  139.8273  183.5489 C   0  0  0  0  0  0  0  0  0  0  0  0
  151.0741  138.0172  180.9361 N   0  0  0  0  0  0  0  0  0  0  0  0
  150.6815  138.7195  179.7523 C   0  0  0  0  0  0  0  0  0  0  0  0
  149.2586  138.3274  179.4061 C   0  0  0  0  0  0  0  0  0  0  0  0
  148.5150  137.9824  180.5808 N   0  0  0  0  0  0  0  0  0  0  0  0
  148.9918  136.8138  181.2639 C   0  0  0  0  0  0  0  0  0  0  0  0
  150.5218  136.7198  181.2054 C   0  0  0  0  0  0  0  0  0  0  0  0
  148.5666  138.7848  181.2565 H   0  0  0  0  0  0  0  0  0  0  0  0
  157.1508  142.5294  182.6599 C   0  0  0  0  0  0  0  0  0  0  0  0
  156.8304  143.8562  182.5123 N   0  0  0  0  0  0  0  0  0  0  0  0
  157.7376  144.7936  182.4080 C   0  0  0  0  0  0  0  0  0  0  0  0
  159.0615  144.4224  182.4491 C   0  0  0  0  0  0  0  0  0  0  0  0
  159.4308  143.1115  182.5947 C   0  0  0  0  0  0  0  0  0  0  0  0
  158.4452  142.1411  182.7024 C   0  0  0  0  0  0  0  0  0  0  0  0
  158.8304  140.7413  182.8464 C   0  0  0  0  0  0  0  0  0  0  0  0
  158.3554  139.9363  181.8241 F   0  0  0  0  0  0  0  0  0  0  0  0
  158.6619  140.2678  184.0955 F   0  0  0  0  0  0  0  0  0  0  0  0
  160.2483  140.7020  182.6557 F   0  0  0  0  0  0  0  0  0  0  0  0
  154.1169  137.7253  184.6858 N   0  0  0  0  0  0  0  0  0  0  0  0
  155.0714  137.3637  184.4302 H   0  0  0  0  0  0  0  0  0  0  0  0
  152.0204  136.4478  187.5324 C   0  0  0  0  0  0  0  0  0  0  0  0
  152.9008  136.6396  188.5636 C   0  0  0  0  0  0  0  0  0  0  0  0
  154.1474  137.1652  188.3302 C   0  0  0  0  0  0  0  0  0  0  0  0
  154.5026  137.4971  187.0445 C   0  0  0  0  0  0  0  0  0  0  0  0
  156.0823  138.1524  186.8067 Cl  0  0  0  0  0  0  0  0  0  0  0  0
  153.6483  137.3255  185.9445 C   0  0  0  0  0  0  0  0  0  0  0  0
  152.4218  136.7978  186.2481 C   0  0  0  0  0  0  0  0  0  0  0  0
  150.4343  135.7802  187.8543 S   0  0  0  0  0  0  0  0  0  0  0  0
  149.3668  136.6113  187.2587 O   0  0  0  0  0  0  0  0  0  0  0  0
  150.3797  134.3945  187.2486 O   0  0  0  0  0  0  0  0  0  0  0  0
  150.0290  134.1803  189.9134 C   0  0  0  0  0  0  0  0  0  0  0  0
  150.2106  135.5695  189.5648 N   0  0  0  0  0  0  0  0  0  0  0  0
  149.4495  136.1688  189.9255 H   0  0  0  0  0  0  0  0  0  0  0  0
 41 42  1  0  0  0
 42 38  1  0  0  0
 38 39  2  0  0  0
 38 40  2  0  0  0
 38 31  1  0  0  0
 31 32  2  0  0  0
 32 33  1  0  0  0
 33 34  2  0  0  0
 34 35  1  0  0  0
 34 36  1  0  0  0
 36 29  1  0  0  0
 29  1  1  0  0  0
  1  2  2  0  0  0
  2  3  1  0  0  0
  3  4  2  0  0  0
  4  5  1  0  0  0
  5  6  1  0  0  0
  6  7  1  0  0  0
  7  8  1  0  0  0
  8  9  1  0  0  0
  9 10  1  0  0  0
 10 11  1  0  0  0
  8 19  1  0  0  0
 19 20  2  0  0  0
 20 21  1  0  0  0
 21 22  2  0  0  0
 22 23  1  0  0  0
 23 24  2  0  0  0
 24 25  1  0  0  0
 25 26  1  0  0  0
 25 27  1  0  0  0
 25 28  1  0  0  0
  3 12  1  0  0  0
 12 13  1  0  0  0
 13 14  1  0  0  0
 14 15  1  0  0  0
 15 16  1  0  0  0
 16 17  1  0  0  0
 36 37  2  0  0  0
 37 31  1  0  0  0
 11  1  1  0  0  0
 24 19  1  0  0  0
 17 12  1  0  0  0
 11  5  2  0  0  0
 42 43  1  0  0  0
 29 30  1  0  0  0
 15 18  1  0  0  0
M  END
> <minimizedAffinity>
-7.93707

> <CNNscore>
0.1582026184

> <CNNaffinity>
6.9811525345

> <CNN_VS>
1.1044366360

> <CNNaffinity_variance>
0.2134400904

$$$$
[H]c1nc(N2C([H])([H])C([H])([H])c3nc(N4C([H])([H])C([H])([H])N([H])C([H])([H])C4([H])[H])nc(N([H])c4c([H])c(S(=O)(=O)N([H])C([H])([H])[H])c([H])c([H])c4Cl)c3C([H])([H])C2([H])[H])c(C(F)(F)F)c([H])c1[H]


 43 47  0  0  0  0  0  0  0  0999 V2000
  155.0870  138.0002  186.5874 C   0  0  0  0  0  0  0  0  0  0  0  0
  155.8093  138.8334  185.7757 N   0  0  0  0  0  0  0  0  0  0  0  0
  155.6293  138.9721  184.4642 C   0  0  0  0  0  0  0  0  0  0  0  0
  154.6351  138.2080  183.9111 N   0  0  0  0  0  0  0  0  0  0  0  0
  153.9060  137.3857  184.6440 C   0  0  0  0  0  0  0  0  0  0  0  0
  152.8213  136.6321  183.9457 C   0  0  0  0  0  0  0  0  0  0  0  0
  151.5279  137.1894  184.4993 C   0  0  0  0  0  0  0  0  0  0  0  0
  151.1669  136.8026  185.8102 N   0  0  0  0  0  0  0  0  0  0  0  0
  151.9099  136.6940  187.0256 C   0  0  0  0  0  0  0  0  0  0  0  0
  153.3498  136.3008  186.9023 C   0  0  0  0  0  0  0  0  0  0  0  0
  154.0975  137.2366  186.0323 C   0  0  0  0  0  0  0  0  0  0  0  0
  156.3871  139.8520  183.6591 N   0  0  0  0  0  0  0  0  0  0  0  0
  157.8165  139.7942  183.7100 C   0  0  0  0  0  0  0  0  0  0  0  0
  158.3671  141.1807  183.4406 C   0  0  0  0  0  0  0  0  0  0  0  0
  157.4543  142.1952  183.8763 N   0  0  0  0  0  0  0  0  0  0  0  0
  156.2098  142.2212  183.1620 C   0  0  0  0  0  0  0  0  0  0  0  0
  155.7475  140.8049  182.7968 C   0  0  0  0  0  0  0  0  0  0  0  0
  157.2321  142.0317  184.8897 H   0  0  0  0  0  0  0  0  0  0  0  0
  149.7906  136.4955  185.9996 C   0  0  0  0  0  0  0  0  0  0  0  0
  149.0875  137.5805  186.4617 N   0  0  0  0  0  0  0  0  0  0  0  0
  147.8009  137.5389  186.6976 C   0  0  0  0  0  0  0  0  0  0  0  0
  147.1377  136.3554  186.4698 C   0  0  0  0  0  0  0  0  0  0  0  0
  147.7957  135.2459  186.0094 C   0  0  0  0  0  0  0  0  0  0  0  0
  149.1599  135.3220  185.7692 C   0  0  0  0  0  0  0  0  0  0  0  0
  149.8700  134.1413  185.2893 C   0  0  0  0  0  0  0  0  0  0  0  0
  149.0670  133.0154  185.2113 F   0  0  0  0  0  0  0  0  0  0  0  0
  151.0716  133.9685  185.8718 F   0  0  0  0  0  0  0  0  0  0  0  0
  150.1904  134.4047  183.9195 F   0  0  0  0  0  0  0  0  0  0  0  0
  155.2886  137.9851  187.9849 N   0  0  0  0  0  0  0  0  0  0  0  0
  154.9036  138.8139  188.5064 H   0  0  0  0  0  0  0  0  0  0  0  0
  157.4076  135.1326  189.2111 C   0  0  0  0  0  0  0  0  0  0  0  0
  157.1467  135.2194  190.5527 C   0  0  0  0  0  0  0  0  0  0  0  0
  156.3067  136.1897  191.0403 C   0  0  0  0  0  0  0  0  0  0  0  0
  155.7293  137.0763  190.1630 C   0  0  0  0  0  0  0  0  0  0  0  0
  154.6831  138.2774  190.8293 Cl  0  0  0  0  0  0  0  0  0  0  0  0
  155.9552  137.0419  188.7784 C   0  0  0  0  0  0  0  0  0  0  0  0
  156.8016  136.0502  188.3601 C   0  0  0  0  0  0  0  0  0  0  0  0
  158.4785  133.8843  188.6112 S   0  0  0  0  0  0  0  0  0  0  0  0
  157.8028  133.0241  187.6169 O   0  0  0  0  0  0  0  0  0  0  0  0
  159.6635  134.5610  187.9573 O   0  0  0  0  0  0  0  0  0  0  0  0
  159.6877  131.7096  189.4900 C   0  0  0  0  0  0  0  0  0  0  0  0
  159.1198  132.9598  189.9357 N   0  0  0  0  0  0  0  0  0  0  0  0
  158.4180  132.8293  190.6834 H   0  0  0  0  0  0  0  0  0  0  0  0
 41 42  1  0  0  0
 42 38  1  0  0  0
 38 39  2  0  0  0
 38 40  2  0  0  0
 38 31  1  0  0  0
 31 32  2  0  0  0
 32 33  1  0  0  0
 33 34  2  0  0  0
 34 35  1  0  0  0
 34 36  1  0  0  0
 36 29  1  0  0  0
 29  1  1  0  0  0
  1  2  2  0  0  0
  2  3  1  0  0  0
  3  4  2  0  0  0
  4  5  1  0  0  0
  5  6  1  0  0  0
  6  7  1  0  0  0
  7  8  1  0  0  0
  8  9  1  0  0  0
  9 10  1  0  0  0
 10 11  1  0  0  0
  8 19  1  0  0  0
 19 20  2  0  0  0
 20 21  1  0  0  0
 21 22  2  0  0  0
 22 23  1  0  0  0
 23 24  2  0  0  0
 24 25  1  0  0  0
 25 26  1  0  0  0
 25 27  1  0  0  0
 25 28  1  0  0  0
  3 12  1  0  0  0
 12 13  1  0  0  0
 13 14  1  0  0  0
 14 15  1  0  0  0
 15 16  1  0  0  0
 16 17  1  0  0  0
 36 37  2  0  0  0
 37 31  1  0  0  0
 11  1  1  0  0  0
 24 19  1  0  0  0
 17 12  1  0  0  0
 11  5  2  0  0  0
 42 43  1  0  0  0
 29 30  1  0  0  0
 15 18  1  0  0  0
M  END
> <minimizedAffinity>
-6.18449

> <CNNscore>
0.1443308592

> <CNNaffinity>
6.6831459999

> <CNN_VS>
0.9645842314

> <CNNaffinity_variance>
0.2309585065

$$$$
[H]c1nc(N2C([H])([H])C([H])([H])c3nc(N4C([H])([H])C([H])([H])N([H])C([H])([H])C4([H])[H])nc(N([H])c4c([H])c(S(=O)(=O)N([H])C([H])([H])[H])c([H])c([H])c4Cl)c3C([H])([H])C2([H])[H])c(C(F)(F)F)c([H])c1[H]


 43 47  0  0  0  0  0  0  0  0999 V2000
  153.9478  138.9772  184.3009 C   0  0  0  0  0  0  0  0  0  0  0  0
  152.8142  138.7652  183.5626 N   0  0  0  0  0  0  0  0  0  0  0  0
  152.2022  137.5922  183.4166 C   0  0  0  0  0  0  0  0  0  0  0  0
  152.7750  136.5316  184.0687 N   0  0  0  0  0  0  0  0  0  0  0  0
  153.8691  136.6752  184.7949 C   0  0  0  0  0  0  0  0  0  0  0  0
  154.3840  135.4610  185.4967 C   0  0  0  0  0  0  0  0  0  0  0  0
  154.1832  135.7368  186.9710 C   0  0  0  0  0  0  0  0  0  0  0  0
  155.0664  136.6560  187.5820 N   0  0  0  0  0  0  0  0  0  0  0  0
  155.5695  137.9299  187.1758 C   0  0  0  0  0  0  0  0  0  0  0  0
  155.7711  138.1373  185.7063 C   0  0  0  0  0  0  0  0  0  0  0  0
  154.5188  137.9164  184.9482 C   0  0  0  0  0  0  0  0  0  0  0  0
  151.0255  137.4131  182.6552 N   0  0  0  0  0  0  0  0  0  0  0  0
  151.0633  137.6369  181.2419 C   0  0  0  0  0  0  0  0  0  0  0  0
  149.7025  138.1322  180.7934 C   0  0  0  0  0  0  0  0  0  0  0  0
  149.0432  138.8558  181.8392 N   0  0  0  0  0  0  0  0  0  0  0  0
  148.7117  138.0659  182.9906 C   0  0  0  0  0  0  0  0  0  0  0  0
  149.7935  137.0164  183.2763 C   0  0  0  0  0  0  0  0  0  0  0  0
  149.6763  139.6299  182.1603 H   0  0  0  0  0  0  0  0  0  0  0  0
  155.5303  136.2896  188.8763 C   0  0  0  0  0  0  0  0  0  0  0  0
  156.5164  135.3366  188.8110 N   0  0  0  0  0  0  0  0  0  0  0  0
  157.1036  134.8550  189.8768 C   0  0  0  0  0  0  0  0  0  0  0  0
  156.7083  135.3301  191.1057 C   0  0  0  0  0  0  0  0  0  0  0  0
  155.7287  136.2803  191.2219 C   0  0  0  0  0  0  0  0  0  0  0  0
  155.1252  136.7709  190.0731 C   0  0  0  0  0  0  0  0  0  0  0  0
  154.0732  137.7750  190.1892 C   0  0  0  0  0  0  0  0  0  0  0  0
  152.8630  137.3620  189.6566 F   0  0  0  0  0  0  0  0  0  0  0  0
  154.4767  139.0123  189.8442 F   0  0  0  0  0  0  0  0  0  0  0  0
  153.7889  137.8870  191.5874 F   0  0  0  0  0  0  0  0  0  0  0  0
  154.4767  140.2751  184.4724 N   0  0  0  0  0  0  0  0  0  0  0  0
  154.0395  140.8437  185.2422 H   0  0  0  0  0  0  0  0  0  0  0  0
  157.7644  141.5923  183.2128 C   0  0  0  0  0  0  0  0  0  0  0  0
  157.3132  142.3775  182.1856 C   0  0  0  0  0  0  0  0  0  0  0  0
  155.9711  142.4656  181.9102 C   0  0  0  0  0  0  0  0  0  0  0  0
  155.0828  141.7533  182.6803 C   0  0  0  0  0  0  0  0  0  0  0  0
  153.4072  141.8985  182.2898 Cl  0  0  0  0  0  0  0  0  0  0  0  0
  155.4796  140.9311  183.7461 C   0  0  0  0  0  0  0  0  0  0  0  0
  156.8304  140.8895  183.9658 C   0  0  0  0  0  0  0  0  0  0  0  0
  159.4801  141.4987  183.5486 S   0  0  0  0  0  0  0  0  0  0  0  0
  159.8344  140.2207  184.2015 O   0  0  0  0  0  0  0  0  0  0  0  0
  160.2194  141.6046  182.2325 O   0  0  0  0  0  0  0  0  0  0  0  0
  160.5796  142.4644  185.7446 C   0  0  0  0  0  0  0  0  0  0  0  0
  159.9793  142.8680  184.4952 N   0  0  0  0  0  0  0  0  0  0  0  0
  159.2055  143.5403  184.6290 H   0  0  0  0  0  0  0  0  0  0  0  0
 41 42  1  0  0  0
 42 38  1  0  0  0
 38 39  2  0  0  0
 38 40  2  0  0  0
 38 31  1  0  0  0
 31 32  2  0  0  0
 32 33  1  0  0  0
 33 34  2  0  0  0
 34 35  1  0  0  0
 34 36  1  0  0  0
 36 29  1  0  0  0
 29  1  1  0  0  0
  1  2  2  0  0  0
  2  3  1  0  0  0
  3  4  2  0  0  0
  4  5  1  0  0  0
  5  6  1  0  0  0
  6  7  1  0  0  0
  7  8  1  0  0  0
  8  9  1  0  0  0
  9 10  1  0  0  0
 10 11  1  0  0  0
  8 19  1  0  0  0
 19 20  2  0  0  0
 20 21  1  0  0  0
 21 22  2  0  0  0
 22 23  1  0  0  0
 23 24  2  0  0  0
 24 25  1  0  0  0
 25 26  1  0  0  0
 25 27  1  0  0  0
 25 28  1  0  0  0
  3 12  1  0  0  0
 12 13  1  0  0  0
 13 14  1  0  0  0
 14 15  1  0  0  0
 15 16  1  0  0  0
 16 17  1  0  0  0
 36 37  2  0  0  0
 37 31  1  0  0  0
 11  1  1  0  0  0
 24 19  1  0  0  0
 17 12  1  0  0  0
 11  5  2  0  0  0
 42 43  1  0  0  0
 29 30  1  0  0  0
 15 18  1  0  0  0
M  END
> <minimizedAffinity>
-8.10045

> <CNNscore>
0.1401815861

> <CNNaffinity>
6.8930921555

> <CNN_VS>
0.9662845731

> <CNNaffinity_variance>
0.3204013705

$$$$
[H]c1nc(N2C([H])([H])C([H])([H])c3nc(N4C([H])([H])C([H])([H])N([H])C([H])([H])C4([H])[H])nc(N([H])c4c([H])c(S(=O)(=O)N([H])C([H])([H])[H])c([H])c([H])c4Cl)c3C([H])([H])C2([H])[H])c(C(F)(F)F)c([H])c1[H]


 43 47  0  0  0  0  0  0  0  0999 V2000
  154.5852  139.0714  184.6091 C   0  0  0  0  0  0  0  0  0  0  0  0
  154.3784  138.4606  185.8170 N   0  0  0  0  0  0  0  0  0  0  0  0
  155.3216  138.2143  186.7234 C   0  0  0  0  0  0  0  0  0  0  0  0
  156.5898  138.6154  186.3934 N   0  0  0  0  0  0  0  0  0  0  0  0
  156.8500  139.2089  185.2423 C   0  0  0  0  0  0  0  0  0  0  0  0
  158.2597  139.6424  185.0037 C   0  0  0  0  0  0  0  0  0  0  0  0
  158.2171  141.1550  185.0003 C   0  0  0  0  0  0  0  0  0  0  0  0
  157.6661  141.7828  183.8598 N   0  0  0  0  0  0  0  0  0  0  0  0
  156.4997  141.5177  183.0786 C   0  0  0  0  0  0  0  0  0  0  0  0
  156.0829  140.0845  182.9551 C   0  0  0  0  0  0  0  0  0  0  0  0
  155.8523  139.4680  184.2812 C   0  0  0  0  0  0  0  0  0  0  0  0
  155.0688  137.5915  187.9662 N   0  0  0  0  0  0  0  0  0  0  0  0
  154.0361  138.1076  188.8126 C   0  0  0  0  0  0  0  0  0  0  0  0
  154.4225  137.8556  190.2567 C   0  0  0  0  0  0  0  0  0  0  0  0
  155.8458  137.8406  190.4179 N   0  0  0  0  0  0  0  0  0  0  0  0
  156.5096  136.7660  189.7367 C   0  0  0  0  0  0  0  0  0  0  0  0
  155.8335  136.4548  188.3953 C   0  0  0  0  0  0  0  0  0  0  0  0
  156.2344  138.7403  190.0401 H   0  0  0  0  0  0  0  0  0  0  0  0
  158.3634  142.9345  183.3995 C   0  0  0  0  0  0  0  0  0  0  0  0
  157.5876  143.6962  182.5612 N   0  0  0  0  0  0  0  0  0  0  0  0
  158.0138  144.8110  182.0243 C   0  0  0  0  0  0  0  0  0  0  0  0
  159.2919  145.2255  182.3190 C   0  0  0  0  0  0  0  0  0  0  0  0
  160.1039  144.4996  183.1495 C   0  0  0  0  0  0  0  0  0  0  0  0
  159.6227  143.3219  183.7028 C   0  0  0  0  0  0  0  0  0  0  0  0
  160.4854  142.5372  184.5795 C   0  0  0  0  0  0  0  0  0  0  0  0
  160.8421  141.3121  184.0406 F   0  0  0  0  0  0  0  0  0  0  0  0
  160.0690  142.5186  185.8598 F   0  0  0  0  0  0  0  0  0  0  0  0
  161.7312  143.2396  184.6368 F   0  0  0  0  0  0  0  0  0  0  0  0
  153.5075  139.3726  183.7479 N   0  0  0  0  0  0  0  0  0  0  0  0
  153.2811  140.3952  183.6472 H   0  0  0  0  0  0  0  0  0  0  0  0
  151.4547  136.4370  182.6083 C   0  0  0  0  0  0  0  0  0  0  0  0
  151.0266  136.9178  181.3996 C   0  0  0  0  0  0  0  0  0  0  0  0
  151.3946  138.1706  180.9754 C   0  0  0  0  0  0  0  0  0  0  0  0
  152.2001  138.9392  181.7814 C   0  0  0  0  0  0  0  0  0  0  0  0
  152.6312  140.5071  181.2008 Cl  0  0  0  0  0  0  0  0  0  0  0  0
  152.6723  138.5062  183.0300 C   0  0  0  0  0  0  0  0  0  0  0  0
  152.2682  137.2487  183.3910 C   0  0  0  0  0  0  0  0  0  0  0  0
  150.9765  134.8347  183.1269 S   0  0  0  0  0  0  0  0  0  0  0  0
  151.4426  133.7987  182.1810 O   0  0  0  0  0  0  0  0  0  0  0  0
  151.5942  134.5802  184.4847 O   0  0  0  0  0  0  0  0  0  0  0  0
  148.5896  134.1301  182.2495 C   0  0  0  0  0  0  0  0  0  0  0  0
  149.2554  134.7705  183.3589 N   0  0  0  0  0  0  0  0  0  0  0  0
  148.8646  135.7046  183.5669 H   0  0  0  0  0  0  0  0  0  0  0  0
 41 42  1  0  0  0
 42 38  1  0  0  0
 38 39  2  0  0  0
 38 40  2  0  0  0
 38 31  1  0  0  0
 31 32  2  0  0  0
 32 33  1  0  0  0
 33 34  2  0  0  0
 34 35  1  0  0  0
 34 36  1  0  0  0
 36 29  1  0  0  0
 29  1  1  0  0  0
  1  2  2  0  0  0
  2  3  1  0  0  0
  3  4  2  0  0  0
  4  5  1  0  0  0
  5  6  1  0  0  0
  6  7  1  0  0  0
  7  8  1  0  0  0
  8  9  1  0  0  0
  9 10  1  0  0  0
 10 11  1  0  0  0
  8 19  1  0  0  0
 19 20  2  0  0  0
 20 21  1  0  0  0
 21 22  2  0  0  0
 22 23  1  0  0  0
 23 24  2  0  0  0
 24 25  1  0  0  0
 25 26  1  0  0  0
 25 27  1  0  0  0
 25 28  1  0  0  0
  3 12  1  0  0  0
 12 13  1  0  0  0
 13 14  1  0  0  0
 14 15  1  0  0  0
 15 16  1  0  0  0
 16 17  1  0  0  0
 36 37  2  0  0  0
 37 31  1  0  0  0
 11  1  1  0  0  0
 24 19  1  0  0  0
 17 12  1  0  0  0
 11  5  2  0  0  0
 42 43  1  0  0  0
 29 30  1  0  0  0
 15 18  1  0  0  0
M  END
> <minimizedAffinity>
-8.01075

> <CNNscore>
0.1369718611

> <CNNaffinity>
7.0822677612

> <CNN_VS>
0.9700713754

> <CNNaffinity_variance>
0.2467595637

$$$$
[H]c1nc(N2C([H])([H])C([H])([H])c3nc(N4C([H])([H])C([H])([H])N([H])C([H])([H])C4([H])[H])nc(N([H])c4c([H])c(S(=O)(=O)N([H])C([H])([H])[H])c([H])c([H])c4Cl)c3C([H])([H])C2([H])[H])c(C(F)(F)F)c([H])c1[H]


 43 47  0  0  0  0  0  0  0  0999 V2000
  154.2008  138.0872  184.5487 C   0  0  0  0  0  0  0  0  0  0  0  0
  153.6646  137.4262  183.4761 N   0  0  0  0  0  0  0  0  0  0  0  0
  153.4416  136.1154  183.4163 C   0  0  0  0  0  0  0  0  0  0  0  0
  153.7858  135.3969  184.5315 N   0  0  0  0  0  0  0  0  0  0  0  0
  154.3076  135.9798  185.5959 C   0  0  0  0  0  0  0  0  0  0  0  0
  154.6061  135.1075  186.7715 C   0  0  0  0  0  0  0  0  0  0  0  0
  153.6342  135.5409  187.8473 C   0  0  0  0  0  0  0  0  0  0  0  0
  153.8945  136.7700  188.4954 N   0  0  0  0  0  0  0  0  0  0  0  0
  154.2892  138.0545  188.0104 C   0  0  0  0  0  0  0  0  0  0  0  0
  155.1701  138.0759  186.7994 C   0  0  0  0  0  0  0  0  0  0  0  0
  154.5460  137.3673  185.6591 C   0  0  0  0  0  0  0  0  0  0  0  0
  152.8748  135.4685  182.2952 N   0  0  0  0  0  0  0  0  0  0  0  0
  151.5218  135.7574  181.9281 C   0  0  0  0  0  0  0  0  0  0  0  0
  150.9174  134.5203  181.2937 C   0  0  0  0  0  0  0  0  0  0  0  0
  151.5118  133.3262  181.8160 N   0  0  0  0  0  0  0  0  0  0  0  0
  152.9051  133.1724  181.5083 C   0  0  0  0  0  0  0  0  0  0  0  0
  153.6313  134.5236  181.5233 C   0  0  0  0  0  0  0  0  0  0  0  0
  151.4200  133.3374  182.8623 H   0  0  0  0  0  0  0  0  0  0  0  0
  153.6913  136.7732  189.9037 C   0  0  0  0  0  0  0  0  0  0  0  0
  152.3581  136.7044  190.2242 N   0  0  0  0  0  0  0  0  0  0  0  0
  151.9302  136.6812  191.4608 C   0  0  0  0  0  0  0  0  0  0  0  0
  152.8628  136.7283  192.4708 C   0  0  0  0  0  0  0  0  0  0  0  0
  154.2039  136.7977  192.2011 C   0  0  0  0  0  0  0  0  0  0  0  0
  154.6257  136.8210  190.8796 C   0  0  0  0  0  0  0  0  0  0  0  0
  156.0519  136.9062  190.5842 C   0  0  0  0  0  0  0  0  0  0  0  0
  156.4621  138.1827  190.2361 F   0  0  0  0  0  0  0  0  0  0  0  0
  156.4930  135.9098  189.7933 F   0  0  0  0  0  0  0  0  0  0  0  0
  156.7253  136.6784  191.8264 F   0  0  0  0  0  0  0  0  0  0  0  0
  154.3180  139.4943  184.5566 N   0  0  0  0  0  0  0  0  0  0  0  0
  153.5625  140.0083  185.0784 H   0  0  0  0  0  0  0  0  0  0  0  0
  157.4441  141.4042  183.7138 C   0  0  0  0  0  0  0  0  0  0  0  0
  157.0206  142.0374  182.5758 C   0  0  0  0  0  0  0  0  0  0  0  0
  155.7500  141.8373  182.0957 C   0  0  0  0  0  0  0  0  0  0  0  0
  154.9055  140.9904  182.7731 C   0  0  0  0  0  0  0  0  0  0  0  0
  153.3198  140.7731  182.1252 Cl  0  0  0  0  0  0  0  0  0  0  0  0
  155.2773  140.3115  183.9437 C   0  0  0  0  0  0  0  0  0  0  0  0
  156.5563  140.5565  184.3668 C   0  0  0  0  0  0  0  0  0  0  0  0
  159.0672  141.6780  184.3100 S   0  0  0  0  0  0  0  0  0  0  0  0
  160.0091  140.6582  183.8021 O   0  0  0  0  0  0  0  0  0  0  0  0
  159.5136  143.0443  183.8369 O   0  0  0  0  0  0  0  0  0  0  0  0
  160.1349  142.5685  186.5530 C   0  0  0  0  0  0  0  0  0  0  0  0
  159.0625  141.7452  186.0466 N   0  0  0  0  0  0  0  0  0  0  0  0
  159.0613  140.7994  186.4638 H   0  0  0  0  0  0  0  0  0  0  0  0
 41 42  1  0  0  0
 42 38  1  0  0  0
 38 39  2  0  0  0
 38 40  2  0  0  0
 38 31  1  0  0  0
 31 32  2  0  0  0
 32 33  1  0  0  0
 33 34  2  0  0  0
 34 35  1  0  0  0
 34 36  1  0  0  0
 36 29  1  0  0  0
 29  1  1  0  0  0
  1  2  2  0  0  0
  2  3  1  0  0  0
  3  4  2  0  0  0
  4  5  1  0  0  0
  5  6  1  0  0  0
  6  7  1  0  0  0
  7  8  1  0  0  0
  8  9  1  0  0  0
  9 10  1  0  0  0
 10 11  1  0  0  0
  8 19  1  0  0  0
 19 20  2  0  0  0
 20 21  1  0  0  0
 21 22  2  0  0  0
 22 23  1  0  0  0
 23 24  2  0  0  0
 24 25  1  0  0  0
 25 26  1  0  0  0
 25 27  1  0  0  0
 25 28  1  0  0  0
  3 12  1  0  0  0
 12 13  1  0  0  0
 13 14  1  0  0  0
 14 15  1  0  0  0
 15 16  1  0  0  0
 16 17  1  0  0  0
 36 37  2  0  0  0
 37 31  1  0  0  0
 11  1  1  0  0  0
 24 19  1  0  0  0
 17 12  1  0  0  0
 11  5  2  0  0  0
 42 43  1  0  0  0
 29 30  1  0  0  0
 15 18  1  0  0  0
M  END
> <minimizedAffinity>
-8.44012

> <CNNscore>
0.1308722496

> <CNNaffinity>
6.7204651833

> <CNN_VS>
0.8795223832

> <CNNaffinity_variance>
0.2508869767

$$$$
[H]c1nc(N2C([H])([H])C([H])([H])c3nc(N4C([H])([H])C([H])([H])N([H])C([H])([H])C4([H])[H])nc(N([H])c4c([H])c(S(=O)(=O)N([H])C([H])([H])[H])c([H])c([H])c4Cl)c3C([H])([H])C2([H])[H])c(C(F)(F)F)c([H])c1[H]


 43 47  0  0  0  0  0  0  0  0999 V2000
  153.8726  137.1436  184.3715 C   0  0  0  0  0  0  0  0  0  0  0  0
  153.7599  136.1526  183.4333 N   0  0  0  0  0  0  0  0  0  0  0  0
  154.0744  134.8738  183.6269 C   0  0  0  0  0  0  0  0  0  0  0  0
  154.5451  134.5540  184.8736 N   0  0  0  0  0  0  0  0  0  0  0  0
  154.6761  135.4675  185.8188 C   0  0  0  0  0  0  0  0  0  0  0  0
  155.1585  135.0011  187.1537 C   0  0  0  0  0  0  0  0  0  0  0  0
  153.9812  135.1781  188.0878 C   0  0  0  0  0  0  0  0  0  0  0  0
  153.6673  136.4971  188.4880 N   0  0  0  0  0  0  0  0  0  0  0  0
  153.5807  137.7303  187.7719 C   0  0  0  0  0  0  0  0  0  0  0  0
  154.5123  137.9027  186.6120 C   0  0  0  0  0  0  0  0  0  0  0  0
  154.3454  136.8221  185.6139 C   0  0  0  0  0  0  0  0  0  0  0  0
  153.9337  133.8750  182.6373 N   0  0  0  0  0  0  0  0  0  0  0  0
  154.2905  132.5241  182.9482 C   0  0  0  0  0  0  0  0  0  0  0  0
  154.7861  131.8509  181.6836 C   0  0  0  0  0  0  0  0  0  0  0  0
  155.3888  132.7979  180.7936 N   0  0  0  0  0  0  0  0  0  0  0  0
  154.4848  133.7846  180.2751 C   0  0  0  0  0  0  0  0  0  0  0  0
  153.4449  134.1941  181.3258 C   0  0  0  0  0  0  0  0  0  0  0  0
  156.1473  133.3073  181.3116 H   0  0  0  0  0  0  0  0  0  0  0  0
  153.3235  136.6540  189.8598 C   0  0  0  0  0  0  0  0  0  0  0  0
  152.0010  136.3643  190.0878 N   0  0  0  0  0  0  0  0  0  0  0  0
  151.4603  136.4267  191.2780 C   0  0  0  0  0  0  0  0  0  0  0  0
  152.2588  136.7988  192.3344 C   0  0  0  0  0  0  0  0  0  0  0  0
  153.5836  137.0976  192.1569 C   0  0  0  0  0  0  0  0  0  0  0  0
  154.1272  137.0223  190.8827 C   0  0  0  0  0  0  0  0  0  0  0  0
  155.5348  137.3501  190.6835 C   0  0  0  0  0  0  0  0  0  0  0  0
  156.2336  137.5003  191.8700 F   0  0  0  0  0  0  0  0  0  0  0  0
  155.7335  138.3074  189.7579 F   0  0  0  0  0  0  0  0  0  0  0  0
  156.1314  136.1859  190.1028 F   0  0  0  0  0  0  0  0  0  0  0  0
  153.4296  138.4574  184.1043 N   0  0  0  0  0  0  0  0  0  0  0  0
  152.4408  138.6693  184.3949 H   0  0  0  0  0  0  0  0  0  0  0  0
  155.9595  141.0483  183.0958 C   0  0  0  0  0  0  0  0  0  0  0  0
  155.2424  141.6972  182.1263 C   0  0  0  0  0  0  0  0  0  0  0  0
  153.9700  141.2914  181.8082 C   0  0  0  0  0  0  0  0  0  0  0  0
  153.4229  140.2221  182.4764 C   0  0  0  0  0  0  0  0  0  0  0  0
  151.8208  139.7524  182.0361 Cl  0  0  0  0  0  0  0  0  0  0  0  0
  154.1040  139.5146  183.4790 C   0  0  0  0  0  0  0  0  0  0  0  0
  155.3667  139.9718  183.7462 C   0  0  0  0  0  0  0  0  0  0  0  0
  157.5788  141.5860  183.4879 S   0  0  0  0  0  0  0  0  0  0  0  0
  157.8396  142.9433  182.9639 O   0  0  0  0  0  0  0  0  0  0  0  0
  157.7126  141.6024  184.9952 O   0  0  0  0  0  0  0  0  0  0  0  0
  158.6199  140.2106  181.4909 C   0  0  0  0  0  0  0  0  0  0  0  0
  158.7466  140.4353  182.9113 N   0  0  0  0  0  0  0  0  0  0  0  0
  158.7139  139.5559  183.4537 H   0  0  0  0  0  0  0  0  0  0  0  0
 41 42  1  0  0  0
 42 38  1  0  0  0
 38 39  2  0  0  0
 38 40  2  0  0  0
 38 31  1  0  0  0
 31 32  2  0  0  0
 32 33  1  0  0  0
 33 34  2  0  0  0
 34 35  1  0  0  0
 34 36  1  0  0  0
 36 29  1  0  0  0
 29  1  1  0  0  0
  1  2  2  0  0  0
  2  3  1  0  0  0
  3  4  2  0  0  0
  4  5  1  0  0  0
  5  6  1  0  0  0
  6  7  1  0  0  0
  7  8  1  0  0  0
  8  9  1  0  0  0
  9 10  1  0  0  0
 10 11  1  0  0  0
  8 19  1  0  0  0
 19 20  2  0  0  0
 20 21  1  0  0  0
 21 22  2  0  0  0
 22 23  1  0  0  0
 23 24  2  0  0  0
 24 25  1  0  0  0
 25 26  1  0  0  0
 25 27  1  0  0  0
 25 28  1  0  0  0
  3 12  1  0  0  0
 12 13  1  0  0  0
 13 14  1  0  0  0
 14 15  1  0  0  0
 15 16  1  0  0  0
 16 17  1  0  0  0
 36 37  2  0  0  0
 37 31  1  0  0  0
 11  1  1  0  0  0
 24 19  1  0  0  0
 17 12  1  0  0  0
 11  5  2  0  0  0
 42 43  1  0  0  0
 29 30  1  0  0  0
 15 18  1  0  0  0
M  END
> <minimizedAffinity>
-8.15614

> <CNNscore>
0.1229744479

> <CNNaffinity>
6.5569763184

> <CNN_VS>
0.8063405156

> <CNNaffinity_variance>
0.2348210514

$$$$
[H]c1nc(N2C([H])([H])C([H])([H])c3nc(N4C([H])([H])C([H])([H])N(c5c([H])c([H])c(OC([H])([H])[H])c([H])c5[H])C([H])([H])C4([H])[H])c(C(F)(F)F)c([H])c3C([H])([H])C2([H])[H])c(C(F)(F)F)c([H])c1[H]


 39 43  0  0  0  0  0  0  0  0999 V2000
  155.7346  139.9820  184.1729 C   0  0  0  0  0  0  0  0  0  0  0  0
  156.0595  139.1561  185.2137 N   0  0  0  0  0  0  0  0  0  0  0  0
  155.1865  138.4044  185.8821 C   0  0  0  0  0  0  0  0  0  0  0  0
  155.8145  137.6272  186.9403 C   0  0  0  0  0  0  0  0  0  0  0  0
  155.3869  136.1646  186.9919 C   0  0  0  0  0  0  0  0  0  0  0  0
  153.9880  135.9850  186.9752 N   0  0  0  0  0  0  0  0  0  0  0  0
  153.0315  136.2750  185.9292 C   0  0  0  0  0  0  0  0  0  0  0  0
  152.7203  137.7694  186.0297 C   0  0  0  0  0  0  0  0  0  0  0  0
  153.8730  138.4814  185.4789 C   0  0  0  0  0  0  0  0  0  0  0  0
  153.5105  139.3023  184.4350 C   0  0  0  0  0  0  0  0  0  0  0  0
  154.4537  140.0872  183.7445 C   0  0  0  0  0  0  0  0  0  0  0  0
  159.2426  141.7014  183.5396 N   0  0  0  0  0  0  0  0  0  0  0  0
  159.1439  140.4527  182.8285 C   0  0  0  0  0  0  0  0  0  0  0  0
  157.6802  140.1089  182.6477 C   0  0  0  0  0  0  0  0  0  0  0  0
  156.7915  140.6990  183.5891 N   0  0  0  0  0  0  0  0  0  0  0  0
  156.9521  142.0872  183.9594 C   0  0  0  0  0  0  0  0  0  0  0  0
  158.1774  142.6492  183.2645 C   0  0  0  0  0  0  0  0  0  0  0  0
  162.3338  142.6055  186.2337 C   0  0  0  0  0  0  0  0  0  0  0  0
  162.6358  142.2157  184.9557 C   0  0  0  0  0  0  0  0  0  0  0  0
  161.5970  141.9188  184.0632 C   0  0  0  0  0  0  0  0  0  0  0  0
  160.2893  142.0082  184.4372 C   0  0  0  0  0  0  0  0  0  0  0  0
  160.0166  142.3992  185.7167 C   0  0  0  0  0  0  0  0  0  0  0  0
  161.0221  142.7016  186.6284 C   0  0  0  0  0  0  0  0  0  0  0  0
  163.4282  142.2292  188.3404 C   0  0  0  0  0  0  0  0  0  0  0  0
  163.3493  142.8984  187.1151 O   0  0  0  0  0  0  0  0  0  0  0  0
  153.3735  135.4389  188.1287 C   0  0  0  0  0  0  0  0  0  0  0  0
  152.8065  134.1892  188.0565 N   0  0  0  0  0  0  0  0  0  0  0  0
  152.2052  133.5899  189.0591 C   0  0  0  0  0  0  0  0  0  0  0  0
  152.1315  134.2468  190.2671 C   0  0  0  0  0  0  0  0  0  0  0  0
  152.6870  135.5009  190.3824 C   0  0  0  0  0  0  0  0  0  0  0  0
  153.3292  136.1355  189.3043 C   0  0  0  0  0  0  0  0  0  0  0  0
  153.9062  137.4831  189.5240 C   0  0  0  0  0  0  0  0  0  0  0  0
  153.5233  137.9465  190.8078 F   0  0  0  0  0  0  0  0  0  0  0  0
  153.3479  138.4523  188.6883 F   0  0  0  0  0  0  0  0  0  0  0  0
  155.2803  137.5117  189.5145 F   0  0  0  0  0  0  0  0  0  0  0  0
  153.9940  140.9331  182.6537 C   0  0  0  0  0  0  0  0  0  0  0  0
  152.6740  140.6314  182.2784 F   0  0  0  0  0  0  0  0  0  0  0  0
  153.8249  142.2394  183.2137 F   0  0  0  0  0  0  0  0  0  0  0  0
  154.8306  141.1386  181.6131 F   0  0  0  0  0  0  0  0  0  0  0  0
 24 25  1  0  0  0
 25 18  1  0  0  0
 18 19  2  0  0  0
 19 20  1  0  0  0
 20 21  2  0  0  0
 21 22  1  0  0  0
 22 23  2  0  0  0
 21 12  1  0  0  0
 12 13  1  0  0  0
 13 14  1  0  0  0
 14 15  1  0  0  0
 15 16  1  0  0  0
 16 17  1  0  0  0
 15  1  1  0  0  0
  1  2  2  0  0  0
  2  3  1  0  0  0
  3  4  1  0  0  0
  4  5  1  0  0  0
  5  6  1  0  0  0
  6  7  1  0  0  0
  7  8  1  0  0  0
  8  9  1  0  0  0
  9 10  1  0  0  0
 10 11  2  0  0  0
 11 36  1  0  0  0
 36 37  1  0  0  0
 36 38  1  0  0  0
 36 39  1  0  0  0
  6 26  1  0  0  0
 26 27  2  0  0  0
 27 28  1  0  0  0
 28 29  2  0  0  0
 29 30  1  0  0  0
 30 31  2  0  0  0
 31 32  1  0  0  0
 32 33  1  0  0  0
 32 34  1  0  0  0
 32 35  1  0  0  0
 23 18  1  0  0  0
 17 12  1  0  0  0
 11  1  1  0  0  0
 31 26  1  0  0  0
  9  3  2  0  0  0
M  END
> <minimizedAffinity>
-9.95045

> <CNNscore>
0.5501363277

> <CNNaffinity>
7.3248724937

> <CNN_VS>
4.0296783447

> <CNNaffinity_variance>
0.1546572447

$$$$
[H]c1nc(N2C([H])([H])C([H])([H])c3nc(N4C([H])([H])C([H])([H])N(c5c([H])c([H])c(OC([H])([H])[H])c([H])c5[H])C([H])([H])C4([H])[H])c(C(F)(F)F)c([H])c3C([H])([H])C2([H])[H])c(C(F)(F)F)c([H])c1[H]


 39 43  0  0  0  0  0  0  0  0999 V2000
  155.5941  138.3150  186.4370 C   0  0  0  0  0  0  0  0  0  0  0  0
  156.7507  138.8081  185.8983 N   0  0  0  0  0  0  0  0  0  0  0  0
  156.8159  139.5271  184.7790 C   0  0  0  0  0  0  0  0  0  0  0  0
  158.1779  139.9161  184.4442 C   0  0  0  0  0  0  0  0  0  0  0  0
  158.3399  141.3792  184.0469 C   0  0  0  0  0  0  0  0  0  0  0  0
  157.4218  141.8014  183.0629 N   0  0  0  0  0  0  0  0  0  0  0  0
  155.9830  141.9338  183.1375 C   0  0  0  0  0  0  0  0  0  0  0  0
  155.4074  140.5354  182.9064 C   0  0  0  0  0  0  0  0  0  0  0  0
  155.6240  139.7779  184.1387 C   0  0  0  0  0  0  0  0  0  0  0  0
  154.4410  139.2971  184.6528 C   0  0  0  0  0  0  0  0  0  0  0  0
  154.3996  138.5390  185.8385 C   0  0  0  0  0  0  0  0  0  0  0  0
  154.7812  136.3841  189.7946 N   0  0  0  0  0  0  0  0  0  0  0  0
  154.9937  135.4629  188.7079 C   0  0  0  0  0  0  0  0  0  0  0  0
  155.8017  136.1568  187.6314 C   0  0  0  0  0  0  0  0  0  0  0  0
  155.7215  137.5773  187.6250 N   0  0  0  0  0  0  0  0  0  0  0  0
  155.7885  138.3083  188.8705 C   0  0  0  0  0  0  0  0  0  0  0  0
  155.8644  137.3241  190.0218 C   0  0  0  0  0  0  0  0  0  0  0  0
  151.3410  136.4239  192.2018 C   0  0  0  0  0  0  0  0  0  0  0  0
  151.2520  136.0326  190.8921 C   0  0  0  0  0  0  0  0  0  0  0  0
  152.4063  136.0201  190.0976 C   0  0  0  0  0  0  0  0  0  0  0  0
  153.6192  136.3894  190.5978 C   0  0  0  0  0  0  0  0  0  0  0  0
  153.6796  136.7749  191.9063 C   0  0  0  0  0  0  0  0  0  0  0  0
  152.5546  136.7992  192.7233 C   0  0  0  0  0  0  0  0  0  0  0  0
  149.8871  135.3256  193.7694 C   0  0  0  0  0  0  0  0  0  0  0  0
  150.2112  136.4386  192.9874 O   0  0  0  0  0  0  0  0  0  0  0  0
  157.9296  142.1662  181.7919 C   0  0  0  0  0  0  0  0  0  0  0  0
  157.8123  141.2827  180.7459 N   0  0  0  0  0  0  0  0  0  0  0  0
  158.2525  141.5125  179.5296 C   0  0  0  0  0  0  0  0  0  0  0  0
  158.8744  142.7142  179.2733 C   0  0  0  0  0  0  0  0  0  0  0  0
  159.0124  143.6279  180.2934 C   0  0  0  0  0  0  0  0  0  0  0  0
  158.5381  143.3742  181.5927 C   0  0  0  0  0  0  0  0  0  0  0  0
  158.7234  144.4210  182.6258 C   0  0  0  0  0  0  0  0  0  0  0  0
  159.4877  145.4816  182.0778 F   0  0  0  0  0  0  0  0  0  0  0  0
  159.5310  143.9988  183.6835 F   0  0  0  0  0  0  0  0  0  0  0  0
  157.5512  144.9940  183.0580 F   0  0  0  0  0  0  0  0  0  0  0  0
  153.1113  138.0621  186.3181 C   0  0  0  0  0  0  0  0  0  0  0  0
  152.5842  138.8963  187.3184 F   0  0  0  0  0  0  0  0  0  0  0  0
  152.1842  138.2963  185.2532 F   0  0  0  0  0  0  0  0  0  0  0  0
  152.9771  136.7422  186.5726 F   0  0  0  0  0  0  0  0  0  0  0  0
 24 25  1  0  0  0
 25 18  1  0  0  0
 18 19  2  0  0  0
 19 20  1  0  0  0
 20 21  2  0  0  0
 21 22  1  0  0  0
 22 23  2  0  0  0
 21 12  1  0  0  0
 12 13  1  0  0  0
 13 14  1  0  0  0
 14 15  1  0  0  0
 15 16  1  0  0  0
 16 17  1  0  0  0
 15  1  1  0  0  0
  1  2  2  0  0  0
  2  3  1  0  0  0
  3  4  1  0  0  0
  4  5  1  0  0  0
  5  6  1  0  0  0
  6  7  1  0  0  0
  7  8  1  0  0  0
  8  9  1  0  0  0
  9 10  1  0  0  0
 10 11  2  0  0  0
 11 36  1  0  0  0
 36 37  1  0  0  0
 36 38  1  0  0  0
 36 39  1  0  0  0
  6 26  1  0  0  0
 26 27  2  0  0  0
 27 28  1  0  0  0
 28 29  2  0  0  0
 29 30  1  0  0  0
 30 31  2  0  0  0
 31 32  1  0  0  0
 32 33  1  0  0  0
 32 34  1  0  0  0
 32 35  1  0  0  0
 23 18  1  0  0  0
 17 12  1  0  0  0
 11  1  1  0  0  0
 31 26  1  0  0  0
  9  3  2  0  0  0
M  END
> <minimizedAffinity>
-10.12409

> <CNNscore>
0.4385831058

> <CNNaffinity>
6.9667611122

> <CNN_VS>
3.0555036068

> <CNNaffinity_variance>
0.0423285328

$$$$
[H]c1nc(N2C([H])([H])C([H])([H])c3nc(N4C([H])([H])C([H])([H])N(c5c([H])c([H])c(OC([H])([H])[H])c([H])c5[H])C([H])([H])C4([H])[H])c(C(F)(F)F)c([H])c3C([H])([H])C2([H])[H])c(C(F)(F)F)c([H])c1[H]


 39 43  0  0  0  0  0  0  0  0999 V2000
  150.6582  137.9223  183.0656 C   0  0  0  0  0  0  0  0  0  0  0  0
  151.8884  138.1255  183.6281 N   0  0  0  0  0  0  0  0  0  0  0  0
  152.8652  138.8388  183.0704 C   0  0  0  0  0  0  0  0  0  0  0  0
  154.0639  138.8836  183.8946 C   0  0  0  0  0  0  0  0  0  0  0  0
  154.6793  140.2706  184.0439 C   0  0  0  0  0  0  0  0  0  0  0  0
  154.8671  140.9393  182.8163 N   0  0  0  0  0  0  0  0  0  0  0  0
  153.8871  141.4262  181.8698 C   0  0  0  0  0  0  0  0  0  0  0  0
  153.4748  140.2247  181.0174 C   0  0  0  0  0  0  0  0  0  0  0  0
  152.5937  139.4000  181.8436 C   0  0  0  0  0  0  0  0  0  0  0  0
  151.3662  139.2160  181.2483 C   0  0  0  0  0  0  0  0  0  0  0  0
  150.3500  138.4569  181.8596 C   0  0  0  0  0  0  0  0  0  0  0  0
  148.7738  136.1117  186.0378 N   0  0  0  0  0  0  0  0  0  0  0  0
  148.0570  137.2861  185.6115 C   0  0  0  0  0  0  0  0  0  0  0  0
  148.4762  137.6264  184.1967 C   0  0  0  0  0  0  0  0  0  0  0  0
  149.7541  137.1405  183.8027 N   0  0  0  0  0  0  0  0  0  0  0  0
  150.1501  135.7933  184.1469 C   0  0  0  0  0  0  0  0  0  0  0  0
  149.0607  135.1532  184.9855 C   0  0  0  0  0  0  0  0  0  0  0  0
  149.9330  135.4123  190.0125 C   0  0  0  0  0  0  0  0  0  0  0  0
  150.8831  135.6778  189.0621 C   0  0  0  0  0  0  0  0  0  0  0  0
  150.4860  135.9126  187.7388 C   0  0  0  0  0  0  0  0  0  0  0  0
  149.1732  135.8827  187.3733 C   0  0  0  0  0  0  0  0  0  0  0  0
  148.2472  135.6158  188.3405 C   0  0  0  0  0  0  0  0  0  0  0  0
  148.6056  135.3783  189.6629 C   0  0  0  0  0  0  0  0  0  0  0  0
  150.5028  136.2538  192.1908 C   0  0  0  0  0  0  0  0  0  0  0  0
  150.3165  135.1807  191.3138 O   0  0  0  0  0  0  0  0  0  0  0  0
  156.1946  141.2035  182.3988 C   0  0  0  0  0  0  0  0  0  0  0  0
  157.0120  140.1512  182.0623 N   0  0  0  0  0  0  0  0  0  0  0  0
  158.2592  140.2786  181.6698 C   0  0  0  0  0  0  0  0  0  0  0  0
  158.7945  141.5446  181.5859 C   0  0  0  0  0  0  0  0  0  0  0  0
  158.0095  142.6267  181.9139 C   0  0  0  0  0  0  0  0  0  0  0  0
  156.6750  142.4818  182.3330 C   0  0  0  0  0  0  0  0  0  0  0  0
  155.9030  143.7050  182.6570 C   0  0  0  0  0  0  0  0  0  0  0  0
  155.2843  143.5401  183.9217 F   0  0  0  0  0  0  0  0  0  0  0  0
  154.8021  143.8868  181.8179 F   0  0  0  0  0  0  0  0  0  0  0  0
  156.6716  144.8392  182.7658 F   0  0  0  0  0  0  0  0  0  0  0  0
  149.0796  138.3042  181.1671 C   0  0  0  0  0  0  0  0  0  0  0  0
  149.1951  138.5829  179.7948 F   0  0  0  0  0  0  0  0  0  0  0  0
  148.8150  136.8979  181.1369 F   0  0  0  0  0  0  0  0  0  0  0  0
  147.9746  138.8238  181.7449 F   0  0  0  0  0  0  0  0  0  0  0  0
 24 25  1  0  0  0
 25 18  1  0  0  0
 18 19  2  0  0  0
 19 20  1  0  0  0
 20 21  2  0  0  0
 21 22  1  0  0  0
 22 23  2  0  0  0
 21 12  1  0  0  0
 12 13  1  0  0  0
 13 14  1  0  0  0
 14 15  1  0  0  0
 15 16  1  0  0  0
 16 17  1  0  0  0
 15  1  1  0  0  0
  1  2  2  0  0  0
  2  3  1  0  0  0
  3  4  1  0  0  0
  4  5  1  0  0  0
  5  6  1  0  0  0
  6  7  1  0  0  0
  7  8  1  0  0  0
  8  9  1  0  0  0
  9 10  1  0  0  0
 10 11  2  0  0  0
 11 36  1  0  0  0
 36 37  1  0  0  0
 36 38  1  0  0  0
 36 39  1  0  0  0
  6 26  1  0  0  0
 26 27  2  0  0  0
 27 28  1  0  0  0
 28 29  2  0  0  0
 29 30  1  0  0  0
 30 31  2  0  0  0
 31 32  1  0  0  0
 32 33  1  0  0  0
 32 34  1  0  0  0
 32 35  1  0  0  0
 23 18  1  0  0  0
 17 12  1  0  0  0
 11  1  1  0  0  0
 31 26  1  0  0  0
  9  3  2  0  0  0
M  END
> <minimizedAffinity>
-7.59472

> <CNNscore>
0.4319720566

> <CNNaffinity>
6.8004250526

> <CNN_VS>
2.9375936985

> <CNNaffinity_variance>
0.2422291040

$$$$
[H]c1nc(N2C([H])([H])C([H])([H])c3nc(N4C([H])([H])C([H])([H])N(c5c([H])c([H])c(OC([H])([H])[H])c([H])c5[H])C([H])([H])C4([H])[H])c(C(F)(F)F)c([H])c3C([H])([H])C2([H])[H])c(C(F)(F)F)c([H])c1[H]


 39 43  0  0  0  0  0  0  0  0999 V2000
  155.7292  139.9897  184.1312 C   0  0  0  0  0  0  0  0  0  0  0  0
  156.0332  139.1915  185.1997 N   0  0  0  0  0  0  0  0  0  0  0  0
  155.1474  138.4546  185.8679 C   0  0  0  0  0  0  0  0  0  0  0  0
  155.7540  137.7064  186.9590 C   0  0  0  0  0  0  0  0  0  0  0  0
  155.3288  136.2444  187.0386 C   0  0  0  0  0  0  0  0  0  0  0  0
  153.9310  136.0604  186.9961 N   0  0  0  0  0  0  0  0  0  0  0  0
  152.9969  136.3209  185.9223 C   0  0  0  0  0  0  0  0  0  0  0  0
  152.6801  137.8164  185.9778 C   0  0  0  0  0  0  0  0  0  0  0  0
  153.8430  138.5175  185.4342 C   0  0  0  0  0  0  0  0  0  0  0  0
  153.5014  139.3104  184.3620 C   0  0  0  0  0  0  0  0  0  0  0  0
  154.4577  140.0802  183.6725 C   0  0  0  0  0  0  0  0  0  0  0  0
  159.2523  141.6872  183.5237 N   0  0  0  0  0  0  0  0  0  0  0  0
  159.1588  140.4291  182.8286 C   0  0  0  0  0  0  0  0  0  0  0  0
  157.6965  140.0882  182.6320 C   0  0  0  0  0  0  0  0  0  0  0  0
  156.7969  140.6946  183.5525 N   0  0  0  0  0  0  0  0  0  0  0  0
  156.9577  142.0872  183.9057 C   0  0  0  0  0  0  0  0  0  0  0  0
  158.1948  142.6349  183.2205 C   0  0  0  0  0  0  0  0  0  0  0  0
  162.3091  142.6168  186.2483 C   0  0  0  0  0  0  0  0  0  0  0  0
  162.6270  142.2254  184.9747 C   0  0  0  0  0  0  0  0  0  0  0  0
  161.5996  141.9199  184.0719 C   0  0  0  0  0  0  0  0  0  0  0  0
  160.2876  142.0026  184.4316 C   0  0  0  0  0  0  0  0  0  0  0  0
  159.9988  142.3953  185.7070 C   0  0  0  0  0  0  0  0  0  0  0  0
  160.9927  142.7061  186.6286 C   0  0  0  0  0  0  0  0  0  0  0  0
  163.3993  142.2332  188.3558 C   0  0  0  0  0  0  0  0  0  0  0  0
  163.3133  142.9181  187.1397 O   0  0  0  0  0  0  0  0  0  0  0  0
  153.2926  135.5422  188.1494 C   0  0  0  0  0  0  0  0  0  0  0  0
  152.8176  136.4139  189.0998 N   0  0  0  0  0  0  0  0  0  0  0  0
  152.2172  136.0451  190.2086 C   0  0  0  0  0  0  0  0  0  0  0  0
  152.0466  134.6994  190.4459 C   0  0  0  0  0  0  0  0  0  0  0  0
  152.5078  133.7922  189.5191 C   0  0  0  0  0  0  0  0  0  0  0  0
  153.1493  134.1952  188.3344 C   0  0  0  0  0  0  0  0  0  0  0  0
  153.6048  133.1474  187.3900 C   0  0  0  0  0  0  0  0  0  0  0  0
  153.2976  131.8731  187.9296 F   0  0  0  0  0  0  0  0  0  0  0  0
  154.9953  133.0874  187.2797 F   0  0  0  0  0  0  0  0  0  0  0  0
  152.9835  133.1903  186.1647 F   0  0  0  0  0  0  0  0  0  0  0  0
  154.0200  140.8967  182.5506 C   0  0  0  0  0  0  0  0  0  0  0  0
  152.7336  140.5384  182.1134 F   0  0  0  0  0  0  0  0  0  0  0  0
  153.7711  142.2002  183.0867 F   0  0  0  0  0  0  0  0  0  0  0  0
  154.8990  141.1261  181.5508 F   0  0  0  0  0  0  0  0  0  0  0  0
 24 25  1  0  0  0
 25 18  1  0  0  0
 18 19  2  0  0  0
 19 20  1  0  0  0
 20 21  2  0  0  0
 21 22  1  0  0  0
 22 23  2  0  0  0
 21 12  1  0  0  0
 12 13  1  0  0  0
 13 14  1  0  0  0
 14 15  1  0  0  0
 15 16  1  0  0  0
 16 17  1  0  0  0
 15  1  1  0  0  0
  1  2  2  0  0  0
  2  3  1  0  0  0
  3  4  1  0  0  0
  4  5  1  0  0  0
  5  6  1  0  0  0
  6  7  1  0  0  0
  7  8  1  0  0  0
  8  9  1  0  0  0
  9 10  1  0  0  0
 10 11  2  0  0  0
 11 36  1  0  0  0
 36 37  1  0  0  0
 36 38  1  0  0  0
 36 39  1  0  0  0
  6 26  1  0  0  0
 26 27  2  0  0  0
 27 28  1  0  0  0
 28 29  2  0  0  0
 29 30  1  0  0  0
 30 31  2  0  0  0
 31 32  1  0  0  0
 32 33  1  0  0  0
 32 34  1  0  0  0
 32 35  1  0  0  0
 23 18  1  0  0  0
 17 12  1  0  0  0
 11  1  1  0  0  0
 31 26  1  0  0  0
  9  3  2  0  0  0
M  END
> <minimizedAffinity>
-9.13713

> <CNNscore>
0.3553029001

> <CNNaffinity>
6.8901572227

> <CNN_VS>
2.4480929375

> <CNNaffinity_variance>
0.0834284872

$$$$
[H]c1nc(N2C([H])([H])C([H])([H])c3nc(N4C([H])([H])C([H])([H])N(c5c([H])c([H])c(OC([H])([H])[H])c([H])c5[H])C([H])([H])C4([H])[H])c(C(F)(F)F)c([H])c3C([H])([H])C2([H])[H])c(C(F)(F)F)c([H])c1[H]


 39 43  0  0  0  0  0  0  0  0999 V2000
  155.3420  138.2788  186.3727 C   0  0  0  0  0  0  0  0  0  0  0  0
  156.5207  138.7705  185.8828 N   0  0  0  0  0  0  0  0  0  0  0  0
  156.6315  139.5017  184.7751 C   0  0  0  0  0  0  0  0  0  0  0  0
  158.0072  139.8858  184.4953 C   0  0  0  0  0  0  0  0  0  0  0  0
  158.1925  141.3522  184.1211 C   0  0  0  0  0  0  0  0  0  0  0  0
  157.3140  141.7913  183.1087 N   0  0  0  0  0  0  0  0  0  0  0  0
  155.8742  141.9319  183.1316 C   0  0  0  0  0  0  0  0  0  0  0  0
  155.2993  140.5399  182.8634 C   0  0  0  0  0  0  0  0  0  0  0  0
  155.4656  139.7673  184.0941 C   0  0  0  0  0  0  0  0  0  0  0  0
  154.2616  139.2882  184.5586 C   0  0  0  0  0  0  0  0  0  0  0  0
  154.1718  138.5170  185.7332 C   0  0  0  0  0  0  0  0  0  0  0  0
  156.5616  135.7874  189.1956 N   0  0  0  0  0  0  0  0  0  0  0  0
  156.8562  137.1522  189.5493 C   0  0  0  0  0  0  0  0  0  0  0  0
  155.9391  138.0678  188.7658 C   0  0  0  0  0  0  0  0  0  0  0  0
  155.4210  137.5270  187.5561 N   0  0  0  0  0  0  0  0  0  0  0  0
  154.9376  136.1648  187.5248 C   0  0  0  0  0  0  0  0  0  0  0  0
  155.1692  135.5232  188.8793 C   0  0  0  0  0  0  0  0  0  0  0  0
  159.4299  132.7223  189.1005 C   0  0  0  0  0  0  0  0  0  0  0  0
  159.4469  133.7016  188.1428 C   0  0  0  0  0  0  0  0  0  0  0  0
  158.4870  134.7218  188.1847 C   0  0  0  0  0  0  0  0  0  0  0  0
  157.5337  134.7632  189.1581 C   0  0  0  0  0  0  0  0  0  0  0  0
  157.5399  133.7748  190.1001 C   0  0  0  0  0  0  0  0  0  0  0  0
  158.4772  132.7477  190.0890 C   0  0  0  0  0  0  0  0  0  0  0  0
  160.6113  130.9435  190.2041 C   0  0  0  0  0  0  0  0  0  0  0  0
  160.3697  131.7176  189.0648 O   0  0  0  0  0  0  0  0  0  0  0  0
  157.8707  142.1671  181.8617 C   0  0  0  0  0  0  0  0  0  0  0  0
  157.8222  141.2804  180.8129 N   0  0  0  0  0  0  0  0  0  0  0  0
  158.3121  141.5197  179.6177 C   0  0  0  0  0  0  0  0  0  0  0  0
  158.9165  142.7356  179.3879 C   0  0  0  0  0  0  0  0  0  0  0  0
  158.9861  143.6530  180.4117 C   0  0  0  0  0  0  0  0  0  0  0  0
  158.4590  143.3890  181.6884 C   0  0  0  0  0  0  0  0  0  0  0  0
  158.5719  144.4406  182.7270 C   0  0  0  0  0  0  0  0  0  0  0  0
  159.6424  145.3078  182.3928 F   0  0  0  0  0  0  0  0  0  0  0  0
  158.9825  143.9371  183.9628 F   0  0  0  0  0  0  0  0  0  0  0  0
  157.4625  145.2451  182.8315 F   0  0  0  0  0  0  0  0  0  0  0  0
  152.8639  138.0430  186.1594 C   0  0  0  0  0  0  0  0  0  0  0  0
  152.4040  138.7287  187.2963 F   0  0  0  0  0  0  0  0  0  0  0  0
  151.9373  138.5045  185.1709 F   0  0  0  0  0  0  0  0  0  0  0  0
  152.6525  136.7092  186.1958 F   0  0  0  0  0  0  0  0  0  0  0  0
 24 25  1  0  0  0
 25 18  1  0  0  0
 18 19  2  0  0  0
 19 20  1  0  0  0
 20 21  2  0  0  0
 21 22  1  0  0  0
 22 23  2  0  0  0
 21 12  1  0  0  0
 12 13  1  0  0  0
 13 14  1  0  0  0
 14 15  1  0  0  0
 15 16  1  0  0  0
 16 17  1  0  0  0
 15  1  1  0  0  0
  1  2  2  0  0  0
  2  3  1  0  0  0
  3  4  1  0  0  0
  4  5  1  0  0  0
  5  6  1  0  0  0
  6  7  1  0  0  0
  7  8  1  0  0  0
  8  9  1  0  0  0
  9 10  1  0  0  0
 10 11  2  0  0  0
 11 36  1  0  0  0
 36 37  1  0  0  0
 36 38  1  0  0  0
 36 39  1  0  0  0
  6 26  1  0  0  0
 26 27  2  0  0  0
 27 28  1  0  0  0
 28 29  2  0  0  0
 29 30  1  0  0  0
 30 31  2  0  0  0
 31 32  1  0  0  0
 32 33  1  0  0  0
 32 34  1  0  0  0
 32 35  1  0  0  0
 23 18  1  0  0  0
 17 12  1  0  0  0
 11  1  1  0  0  0
 31 26  1  0  0  0
  9  3  2  0  0  0
M  END
> <minimizedAffinity>
-9.27791

> <CNNscore>
0.3396194279

> <CNNaffinity>
6.8971581459

> <CNN_VS>
2.3424088955

> <CNNaffinity_variance>
0.1479669362

$$$$
[H]c1nc(N2C([H])([H])C([H])([H])c3nc(N4C([H])([H])C([H])([H])N(c5c([H])c([H])c(OC([H])([H])[H])c([H])c5[H])C([H])([H])C4([H])[H])c(C(F)(F)F)c([H])c3C([H])([H])C2([H])[H])c(C(F)(F)F)c([H])c1[H]


 39 43  0  0  0  0  0  0  0  0999 V2000
  153.4783  133.8386  184.7715 C   0  0  0  0  0  0  0  0  0  0  0  0
  154.0772  132.7534  185.3501 N   0  0  0  0  0  0  0  0  0  0  0  0
  155.0546  132.8222  186.2523 C   0  0  0  0  0  0  0  0  0  0  0  0
  155.5005  131.5087  186.6930 C   0  0  0  0  0  0  0  0  0  0  0  0
  155.6590  131.3665  188.2028 C   0  0  0  0  0  0  0  0  0  0  0  0
  156.4211  132.3982  188.7895 N   0  0  0  0  0  0  0  0  0  0  0  0
  156.1290  133.8103  188.9074 C   0  0  0  0  0  0  0  0  0  0  0  0
  156.5159  134.4452  187.5705 C   0  0  0  0  0  0  0  0  0  0  0  0
  155.4734  134.0830  186.6107 C   0  0  0  0  0  0  0  0  0  0  0  0
  154.8927  135.1974  186.0484 C   0  0  0  0  0  0  0  0  0  0  0  0
  153.8604  135.0971  185.0962 C   0  0  0  0  0  0  0  0  0  0  0  0
  150.5726  134.2627  182.1181 N   0  0  0  0  0  0  0  0  0  0  0  0
  151.8232  133.9615  181.4703 C   0  0  0  0  0  0  0  0  0  0  0  0
  152.7427  133.2941  182.4715 C   0  0  0  0  0  0  0  0  0  0  0  0
  152.4633  133.5703  183.8389 N   0  0  0  0  0  0  0  0  0  0  0  0
  151.0967  133.5632  184.3107 C   0  0  0  0  0  0  0  0  0  0  0  0
  150.1669  133.3131  183.1390 C   0  0  0  0  0  0  0  0  0  0  0  0
  148.2107  137.6113  181.2019 C   0  0  0  0  0  0  0  0  0  0  0  0
  149.0718  137.1072  180.2634 C   0  0  0  0  0  0  0  0  0  0  0  0
  149.8538  135.9877  180.5779 C   0  0  0  0  0  0  0  0  0  0  0  0
  149.7785  135.3865  181.7988 C   0  0  0  0  0  0  0  0  0  0  0  0
  148.9120  135.9093  182.7154 C   0  0  0  0  0  0  0  0  0  0  0  0
  148.1211  137.0188  182.4373 C   0  0  0  0  0  0  0  0  0  0  0  0
  147.8289  139.9806  181.3370 C   0  0  0  0  0  0  0  0  0  0  0  0
  147.4400  138.7106  180.8994 O   0  0  0  0  0  0  0  0  0  0  0  0
  157.6678  132.0573  189.3690 C   0  0  0  0  0  0  0  0  0  0  0  0
  157.7548  131.9146  190.7331 N   0  0  0  0  0  0  0  0  0  0  0  0
  158.8585  131.6086  191.3766 C   0  0  0  0  0  0  0  0  0  0  0  0
  160.0108  131.4158  190.6478 C   0  0  0  0  0  0  0  0  0  0  0  0
  159.9674  131.5491  189.2785 C   0  0  0  0  0  0  0  0  0  0  0  0
  158.7816  131.8767  188.5971 C   0  0  0  0  0  0  0  0  0  0  0  0
  158.8280  131.9902  187.1199 C   0  0  0  0  0  0  0  0  0  0  0  0
  160.1802  131.9587  186.6956 F   0  0  0  0  0  0  0  0  0  0  0  0
  158.4099  133.2408  186.6610 F   0  0  0  0  0  0  0  0  0  0  0  0
  158.2086  130.9560  186.4596 F   0  0  0  0  0  0  0  0  0  0  0  0
  153.2984  136.3202  184.5438 C   0  0  0  0  0  0  0  0  0  0  0  0
  152.0171  136.5850  185.0561 F   0  0  0  0  0  0  0  0  0  0  0  0
  154.0487  137.3935  185.1215 F   0  0  0  0  0  0  0  0  0  0  0  0
  153.4156  136.5293  183.2143 F   0  0  0  0  0  0  0  0  0  0  0  0
 24 25  1  0  0  0
 25 18  1  0  0  0
 18 19  2  0  0  0
 19 20  1  0  0  0
 20 21  2  0  0  0
 21 22  1  0  0  0
 22 23  2  0  0  0
 21 12  1  0  0  0
 12 13  1  0  0  0
 13 14  1  0  0  0
 14 15  1  0  0  0
 15 16  1  0  0  0
 16 17  1  0  0  0
 15  1  1  0  0  0
  1  2  2  0  0  0
  2  3  1  0  0  0
  3  4  1  0  0  0
  4  5  1  0  0  0
  5  6  1  0  0  0
  6  7  1  0  0  0
  7  8  1  0  0  0
  8  9  1  0  0  0
  9 10  1  0  0  0
 10 11  2  0  0  0
 11 36  1  0  0  0
 36 37  1  0  0  0
 36 38  1  0  0  0
 36 39  1  0  0  0
  6 26  1  0  0  0
 26 27  2  0  0  0
 27 28  1  0  0  0
 28 29  2  0  0  0
 29 30  1  0  0  0
 30 31  2  0  0  0
 31 32  1  0  0  0
 32 33  1  0  0  0
 32 34  1  0  0  0
 32 35  1  0  0  0
 23 18  1  0  0  0
 17 12  1  0  0  0
 11  1  1  0  0  0
 31 26  1  0  0  0
  9  3  2  0  0  0
M  END
> <minimizedAffinity>
-3.90782

> <CNNscore>
0.3338274956

> <CNNaffinity>
5.8468599319

> <CNN_VS>
1.9518426657

> <CNNaffinity_variance>
0.2824775279

$$$$
[H]c1nc(N2C([H])([H])C([H])([H])c3nc(N4C([H])([H])C([H])([H])N(c5c([H])c([H])c(OC([H])([H])[H])c([H])c5[H])C([H])([H])C4([H])[H])c(C(F)(F)F)c([H])c3C([H])([H])C2([H])[H])c(C(F)(F)F)c([H])c1[H]


 39 43  0  0  0  0  0  0  0  0999 V2000
  153.6041  137.8727  185.7137 C   0  0  0  0  0  0  0  0  0  0  0  0
  152.3567  137.3635  185.4775 N   0  0  0  0  0  0  0  0  0  0  0  0
  151.7232  137.4297  184.3077 C   0  0  0  0  0  0  0  0  0  0  0  0
  150.4093  136.8050  184.3487 C   0  0  0  0  0  0  0  0  0  0  0  0
  150.1079  135.8844  183.1713 C   0  0  0  0  0  0  0  0  0  0  0  0
  150.3651  136.4723  181.9153 N   0  0  0  0  0  0  0  0  0  0  0  0
  151.6211  136.8865  181.3287 C   0  0  0  0  0  0  0  0  0  0  0  0
  151.9345  138.2674  181.9076 C   0  0  0  0  0  0  0  0  0  0  0  0
  152.3904  138.0585  183.2816 C   0  0  0  0  0  0  0  0  0  0  0  0
  153.6471  138.5825  183.4840 C   0  0  0  0  0  0  0  0  0  0  0  0
  154.2951  138.4991  184.7312 C   0  0  0  0  0  0  0  0  0  0  0  0
  153.9360  137.0205  189.5643 N   0  0  0  0  0  0  0  0  0  0  0  0
  154.5221  135.9841  188.7538 C   0  0  0  0  0  0  0  0  0  0  0  0
  154.8605  136.5603  187.3950 C   0  0  0  0  0  0  0  0  0  0  0  0
  154.1119  137.7082  187.0126 N   0  0  0  0  0  0  0  0  0  0  0  0
  153.8678  138.7617  187.9720 C   0  0  0  0  0  0  0  0  0  0  0  0
  154.4467  138.3566  189.3140 C   0  0  0  0  0  0  0  0  0  0  0  0
  150.9954  136.3356  192.4824 C   0  0  0  0  0  0  0  0  0  0  0  0
  150.7832  135.9278  191.1920 C   0  0  0  0  0  0  0  0  0  0  0  0
  151.7718  136.1585  190.2260 C   0  0  0  0  0  0  0  0  0  0  0  0
  152.9429  136.7812  190.5399 C   0  0  0  0  0  0  0  0  0  0  0  0
  153.1285  137.1772  191.8334 C   0  0  0  0  0  0  0  0  0  0  0  0
  152.1693  136.9644  192.8175 C   0  0  0  0  0  0  0  0  0  0  0  0
  149.4028  134.8645  193.5201 C   0  0  0  0  0  0  0  0  0  0  0  0
  150.0285  136.1122  193.4358 O   0  0  0  0  0  0  0  0  0  0  0  0
  149.2654  136.7138  181.0559 C   0  0  0  0  0  0  0  0  0  0  0  0
  148.9731  135.8011  180.0709 N   0  0  0  0  0  0  0  0  0  0  0  0
  147.9841  135.9263  179.2153 C   0  0  0  0  0  0  0  0  0  0  0  0
  147.1801  137.0411  179.3006 C   0  0  0  0  0  0  0  0  0  0  0  0
  147.4383  137.9801  180.2733 C   0  0  0  0  0  0  0  0  0  0  0  0
  148.4991  137.8385  181.1856 C   0  0  0  0  0  0  0  0  0  0  0  0
  148.6956  138.8964  182.2051 C   0  0  0  0  0  0  0  0  0  0  0  0
  147.7740  139.9465  181.9657 F   0  0  0  0  0  0  0  0  0  0  0  0
  149.9215  139.5517  182.0738 F   0  0  0  0  0  0  0  0  0  0  0  0
  148.4585  138.4822  183.4940 F   0  0  0  0  0  0  0  0  0  0  0  0
  155.6220  139.0798  184.8692 C   0  0  0  0  0  0  0  0  0  0  0  0
  156.3989  138.8896  183.7140 F   0  0  0  0  0  0  0  0  0  0  0  0
  155.4352  140.4986  184.8399 F   0  0  0  0  0  0  0  0  0  0  0  0
  156.2901  138.8705  186.0246 F   0  0  0  0  0  0  0  0  0  0  0  0
 24 25  1  0  0  0
 25 18  1  0  0  0
 18 19  2  0  0  0
 19 20  1  0  0  0
 20 21  2  0  0  0
 21 22  1  0  0  0
 22 23  2  0  0  0
 21 12  1  0  0  0
 12 13  1  0  0  0
 13 14  1  0  0  0
 14 15  1  0  0  0
 15 16  1  0  0  0
 16 17  1  0  0  0
 15  1  1  0  0  0
  1  2  2  0  0  0
  2  3  1  0  0  0
  3  4  1  0  0  0
  4  5  1  0  0  0
  5  6  1  0  0  0
  6  7  1  0  0  0
  7  8  1  0  0  0
  8  9  1  0  0  0
  9 10  1  0  0  0
 10 11  2  0  0  0
 11 36  1  0  0  0
 36 37  1  0  0  0
 36 38  1  0  0  0
 36 39  1  0  0  0
  6 26  1  0  0  0
 26 27  2  0  0  0
 27 28  1  0  0  0
 28 29  2  0  0  0
 29 30  1  0  0  0
 30 31  2  0  0  0
 31 32  1  0  0  0
 32 33  1  0  0  0
 32 34  1  0  0  0
 32 35  1  0  0  0
 23 18  1  0  0  0
 17 12  1  0  0  0
 11  1  1  0  0  0
 31 26  1  0  0  0
  9  3  2  0  0  0
M  END
> <minimizedAffinity>
-7.54122

> <CNNscore>
0.2872906625

> <CNNaffinity>
6.3338007927

> <CNN_VS>
1.8196418285

> <CNNaffinity_variance>
0.0318278894

$$$$
[H]c1nc(N2C([H])([H])C([H])([H])c3nc(N4C([H])([H])C([H])([H])N(c5c([H])c([H])c(OC([H])([H])[H])c([H])c5[H])C([H])([H])C4([H])[H])c(C(F)(F)F)c([H])c3C([H])([H])C2([H])[H])c(C(F)(F)F)c([H])c1[H]


 39 43  0  0  0  0  0  0  0  0999 V2000
  155.7537  140.0929  184.0769 C   0  0  0  0  0  0  0  0  0  0  0  0
  156.0621  139.2945  185.1438 N   0  0  0  0  0  0  0  0  0  0  0  0
  155.1877  138.5228  185.7872 C   0  0  0  0  0  0  0  0  0  0  0  0
  155.7964  137.7839  186.8834 C   0  0  0  0  0  0  0  0  0  0  0  0
  155.4173  136.3082  186.9410 C   0  0  0  0  0  0  0  0  0  0  0  0
  154.0273  136.0797  186.8686 N   0  0  0  0  0  0  0  0  0  0  0  0
  153.1068  136.3205  185.7787 C   0  0  0  0  0  0  0  0  0  0  0  0
  152.7406  137.8044  185.8415 C   0  0  0  0  0  0  0  0  0  0  0  0
  153.8907  138.5479  185.3280 C   0  0  0  0  0  0  0  0  0  0  0  0
  153.5450  139.3400  184.2565 C   0  0  0  0  0  0  0  0  0  0  0  0
  154.4893  140.1469  183.5935 C   0  0  0  0  0  0  0  0  0  0  0  0
  159.2522  141.8609  183.5311 N   0  0  0  0  0  0  0  0  0  0  0  0
  159.1698  140.6359  182.7780 C   0  0  0  0  0  0  0  0  0  0  0  0
  157.7107  140.2864  182.5734 C   0  0  0  0  0  0  0  0  0  0  0  0
  156.8093  140.8376  183.5263 N   0  0  0  0  0  0  0  0  0  0  0  0
  156.9551  142.2139  183.9439 C   0  0  0  0  0  0  0  0  0  0  0  0
  158.1813  142.8086  183.2786 C   0  0  0  0  0  0  0  0  0  0  0  0
  162.3552  142.7137  186.2283 C   0  0  0  0  0  0  0  0  0  0  0  0
  161.0534  142.9268  186.5976 C   0  0  0  0  0  0  0  0  0  0  0  0
  160.0247  142.6365  185.6913 C   0  0  0  0  0  0  0  0  0  0  0  0
  160.2889  142.1462  184.4473 C   0  0  0  0  0  0  0  0  0  0  0  0
  161.5951  141.9431  184.1052 C   0  0  0  0  0  0  0  0  0  0  0  0
  162.6406  142.2200  184.9792 C   0  0  0  0  0  0  0  0  0  0  0  0
  163.5850  142.1701  188.2208 C   0  0  0  0  0  0  0  0  0  0  0  0
  163.3701  142.9968  187.1136 O   0  0  0  0  0  0  0  0  0  0  0  0
  153.3833  135.5298  188.0040 C   0  0  0  0  0  0  0  0  0  0  0  0
  152.8873  136.3756  188.9669 N   0  0  0  0  0  0  0  0  0  0  0  0
  152.2799  135.9766  190.0613 C   0  0  0  0  0  0  0  0  0  0  0  0
  152.1238  134.6242  190.2690 C   0  0  0  0  0  0  0  0  0  0  0  0
  152.6062  133.7422  189.3288 C   0  0  0  0  0  0  0  0  0  0  0  0
  153.2551  134.1776  188.1597 C   0  0  0  0  0  0  0  0  0  0  0  0
  153.7338  133.1553  187.1989 C   0  0  0  0  0  0  0  0  0  0  0  0
  153.0158  133.2900  185.9841 F   0  0  0  0  0  0  0  0  0  0  0  0
  153.4056  131.8547  187.5863 F   0  0  0  0  0  0  0  0  0  0  0  0
  155.0601  133.2824  186.8613 F   0  0  0  0  0  0  0  0  0  0  0  0
  154.0477  140.9599  182.4706 C   0  0  0  0  0  0  0  0  0  0  0  0
  154.1722  142.3336  182.7385 F   0  0  0  0  0  0  0  0  0  0  0  0
  155.0373  140.7918  181.4503 F   0  0  0  0  0  0  0  0  0  0  0  0
  152.8945  140.6198  181.8547 F   0  0  0  0  0  0  0  0  0  0  0  0
 24 25  1  0  0  0
 25 18  1  0  0  0
 18 19  2  0  0  0
 19 20  1  0  0  0
 20 21  2  0  0  0
 21 22  1  0  0  0
 22 23  2  0  0  0
 21 12  1  0  0  0
 12 13  1  0  0  0
 13 14  1  0  0  0
 14 15  1  0  0  0
 15 16  1  0  0  0
 16 17  1  0  0  0
 15  1  1  0  0  0
  1  2  2  0  0  0
  2  3  1  0  0  0
  3  4  1  0  0  0
  4  5  1  0  0  0
  5  6  1  0  0  0
  6  7  1  0  0  0
  7  8  1  0  0  0
  8  9  1  0  0  0
  9 10  1  0  0  0
 10 11  2  0  0  0
 11 36  1  0  0  0
 36 37  1  0  0  0
 36 38  1  0  0  0
 36 39  1  0  0  0
  6 26  1  0  0  0
 26 27  2  0  0  0
 27 28  1  0  0  0
 28 29  2  0  0  0
 29 30  1  0  0  0
 30 31  2  0  0  0
 31 32  1  0  0  0
 32 33  1  0  0  0
 32 34  1  0  0  0
 32 35  1  0  0  0
 23 18  1  0  0  0
 17 12  1  0  0  0
 11  1  1  0  0  0
 31 26  1  0  0  0
  9  3  2  0  0  0
M  END
> <minimizedAffinity>
-8.65272

> <CNNscore>
0.2853565812

> <CNNaffinity>
6.8734002113

> <CNN_VS>
1.9613699913

> <CNNaffinity_variance>
0.0833231658

$$$$
[H]c1nc(N2C([H])([H])C([H])([H])c3nc(N4C([H])([H])C([H])([H])N(c5c([H])c([H])c(OC([H])([H])[H])c([H])c5[H])C([H])([H])C4([H])[H])c(C(F)(F)F)c([H])c3C([H])([H])C2([H])[H])c(C(F)(F)F)c([H])c1[H]


 39 43  0  0  0  0  0  0  0  0999 V2000
  152.3125  137.3415  185.9061 C   0  0  0  0  0  0  0  0  0  0  0  0
  151.0080  137.1898  185.5236 N   0  0  0  0  0  0  0  0  0  0  0  0
  150.5763  137.2652  184.2658 C   0  0  0  0  0  0  0  0  0  0  0  0
  149.1389  137.0646  184.1562 C   0  0  0  0  0  0  0  0  0  0  0  0
  148.7149  136.1093  183.0462 C   0  0  0  0  0  0  0  0  0  0  0  0
  149.2953  136.4052  181.7952 N   0  0  0  0  0  0  0  0  0  0  0  0
  150.6803  136.3435  181.3813 C   0  0  0  0  0  0  0  0  0  0  0  0
  151.3327  137.6421  181.8589 C   0  0  0  0  0  0  0  0  0  0  0  0
  151.5274  137.5137  183.3028 C   0  0  0  0  0  0  0  0  0  0  0  0
  152.8495  137.6718  183.6522 C   0  0  0  0  0  0  0  0  0  0  0  0
  153.2799  137.5872  184.9901 C   0  0  0  0  0  0  0  0  0  0  0  0
  154.0825  136.5907  189.3653 N   0  0  0  0  0  0  0  0  0  0  0  0
  154.1578  137.9919  189.0404 C   0  0  0  0  0  0  0  0  0  0  0  0
  153.0589  138.3231  188.0525 C   0  0  0  0  0  0  0  0  0  0  0  0
  152.5792  137.2287  187.2802 N   0  0  0  0  0  0  0  0  0  0  0  0
  152.3344  135.9524  187.9135 C   0  0  0  0  0  0  0  0  0  0  0  0
  152.7413  136.0344  189.3721 C   0  0  0  0  0  0  0  0  0  0  0  0
  157.4503  134.2342  190.2235 C   0  0  0  0  0  0  0  0  0  0  0  0
  156.8396  134.9409  191.2256 C   0  0  0  0  0  0  0  0  0  0  0  0
  155.7146  135.7224  190.9296 C   0  0  0  0  0  0  0  0  0  0  0  0
  155.2119  135.7969  189.6649 C   0  0  0  0  0  0  0  0  0  0  0  0
  155.8398  135.0824  188.6853 C   0  0  0  0  0  0  0  0  0  0  0  0
  156.9579  134.2968  188.9433 C   0  0  0  0  0  0  0  0  0  0  0  0
  159.4039  133.0499  189.4764 C   0  0  0  0  0  0  0  0  0  0  0  0
  158.5555  133.4651  190.5075 O   0  0  0  0  0  0  0  0  0  0  0  0
  148.4402  136.8280  180.7481 C   0  0  0  0  0  0  0  0  0  0  0  0
  148.1270  135.9454  179.7424 N   0  0  0  0  0  0  0  0  0  0  0  0
  147.3518  136.2314  178.7211 C   0  0  0  0  0  0  0  0  0  0  0  0
  146.8115  137.4956  178.6414 C   0  0  0  0  0  0  0  0  0  0  0  0
  147.1000  138.4105  179.6284 C   0  0  0  0  0  0  0  0  0  0  0  0
  147.9306  138.0963  180.7188 C   0  0  0  0  0  0  0  0  0  0  0  0
  148.1781  139.1430  181.7388 C   0  0  0  0  0  0  0  0  0  0  0  0
  147.6573  140.3761  181.2721 F   0  0  0  0  0  0  0  0  0  0  0  0
  149.5339  139.4401  181.8895 F   0  0  0  0  0  0  0  0  0  0  0  0
  147.5560  138.9099  182.9420 F   0  0  0  0  0  0  0  0  0  0  0  0
  154.6937  137.7689  185.2819 C   0  0  0  0  0  0  0  0  0  0  0  0
  155.4444  137.9899  184.1149 F   0  0  0  0  0  0  0  0  0  0  0  0
  154.8025  139.0453  185.9202 F   0  0  0  0  0  0  0  0  0  0  0  0
  155.2749  136.9230  186.1604 F   0  0  0  0  0  0  0  0  0  0  0  0
 24 25  1  0  0  0
 25 18  1  0  0  0
 18 19  2  0  0  0
 19 20  1  0  0  0
 20 21  2  0  0  0
 21 22  1  0  0  0
 22 23  2  0  0  0
 21 12  1  0  0  0
 12 13  1  0  0  0
 13 14  1  0  0  0
 14 15  1  0  0  0
 15 16  1  0  0  0
 16 17  1  0  0  0
 15  1  1  0  0  0
  1  2  2  0  0  0
  2  3  1  0  0  0
  3  4  1  0  0  0
  4  5  1  0  0  0
  5  6  1  0  0  0
  6  7  1  0  0  0
  7  8  1  0  0  0
  8  9  1  0  0  0
  9 10  1  0  0  0
 10 11  2  0  0  0
 11 36  1  0  0  0
 36 37  1  0  0  0
 36 38  1  0  0  0
 36 39  1  0  0  0
  6 26  1  0  0  0
 26 27  2  0  0  0
 27 28  1  0  0  0
 28 29  2  0  0  0
 29 30  1  0  0  0
 30 31  2  0  0  0
 31 32  1  0  0  0
 32 33  1  0  0  0
 32 34  1  0  0  0
 32 35  1  0  0  0
 23 18  1  0  0  0
 17 12  1  0  0  0
 11  1  1  0  0  0
 31 26  1  0  0  0
  9  3  2  0  0  0
M  END
> <minimizedAffinity>
-6.48877

> <CNNscore>
0.2641521692

> <CNNaffinity>
6.1479272842

> <CNN_VS>
1.6239882708

> <CNNaffinity_variance>
0.1140086427

$$$$
[H]c1c([H])c(C([H])(C(=O)N([H])C([H])([H])c2c([H])c([H])c(C(C([H])([H])[H])(C([H])([H])[H])C([H])([H])[H])c([H])c2N(C([H])([H])[H])C([H])([H])[H])C([H])([H])[H])c([H])c(F)c1N([H])S(=O)(=O)C([H])([H])[H]


 33 34  0  0  0  0  0  0  0  0999 V2000
  153.6016  138.5531  186.5970 C   0  0  0  0  0  0  0  0  0  0  0  0
  152.4920  138.5815  187.0704 O   0  0  0  0  0  0  0  0  0  0  0  0
  153.9185  138.9950  185.3082 N   0  0  0  0  0  0  0  0  0  0  0  0
  155.0244  139.5791  185.7807 H   0  0  0  0  0  0  0  0  0  0  0  0
  154.9611  136.5243  186.6383 C   0  0  0  0  0  0  0  0  0  0  0  0
  154.7842  137.9813  187.2799 C   0  0  0  0  0  0  0  0  0  0  0  0
  154.6506  137.6581  188.6937 C   0  0  0  0  0  0  0  0  0  0  0  0
  154.1988  136.3643  188.9596 C   0  0  0  0  0  0  0  0  0  0  0  0
  153.8543  135.9222  190.2213 C   0  0  0  0  0  0  0  0  0  0  0  0
  153.9529  136.7669  191.2859 C   0  0  0  0  0  0  0  0  0  0  0  0
  154.4270  138.0600  191.0244 C   0  0  0  0  0  0  0  0  0  0  0  0
  154.5568  138.9001  192.0927 F   0  0  0  0  0  0  0  0  0  0  0  0
  154.7623  138.5050  189.7753 C   0  0  0  0  0  0  0  0  0  0  0  0
  153.5512  136.4429  192.5909 N   0  0  0  0  0  0  0  0  0  0  0  0
  154.2556  135.9265  193.2244 H   0  0  0  0  0  0  0  0  0  0  0  0
  152.0492  136.8373  193.2502 S   0  0  0  0  0  0  0  0  0  0  0  0
  150.6955  136.6097  192.1389 C   0  0  0  0  0  0  0  0  0  0  0  0
  151.8579  135.9286  194.4653 O   0  0  0  0  0  0  0  0  0  0  0  0
  152.0442  138.2700  193.7101 O   0  0  0  0  0  0  0  0  0  0  0  0
  154.1347  139.4322  184.0457 C   0  0  0  0  0  0  0  0  0  0  0  0
  155.3936  140.1211  183.7856 C   0  0  0  0  0  0  0  0  0  0  0  0
  156.6165  139.8015  184.3516 C   0  0  0  0  0  0  0  0  0  0  0  0
  157.7222  140.5791  184.0876 C   0  0  0  0  0  0  0  0  0  0  0  0
  157.6096  141.6577  183.2688 C   0  0  0  0  0  0  0  0  0  0  0  0
  156.3837  142.0022  182.6997 C   0  0  0  0  0  0  0  0  0  0  0  0
  155.2829  141.2384  182.9596 C   0  0  0  0  0  0  0  0  0  0  0  0
  158.7495  142.5114  182.8651 C   0  0  0  0  0  0  0  0  0  0  0  0
  159.7621  142.6015  184.0084 C   0  0  0  0  0  0  0  0  0  0  0  0
  159.4966  141.7807  181.7437 C   0  0  0  0  0  0  0  0  0  0  0  0
  158.3909  143.8783  182.4080 C   0  0  0  0  0  0  0  0  0  0  0  0
  154.0500  141.6814  182.4197 N   0  0  0  0  0  0  0  0  0  0  0  0
  153.1416  140.9182  181.6481 C   0  0  0  0  0  0  0  0  0  0  0  0
  153.7471  143.0961  182.7048 C   0  0  0  0  0  0  0  0  0  0  0  0
  5  6  1  0  0  0
  6  1  1  0  0  0
  1  2  2  0  0  0
  1  3  1  0  0  0
  3 20  1  0  0  0
 20 21  1  0  0  0
 21 22  2  0  0  0
 22 23  1  0  0  0
 23 24  2  0  0  0
 24 25  1  0  0  0
 25 26  2  0  0  0
 26 31  1  0  0  0
 31 32  1  0  0  0
 31 33  1  0  0  0
 24 27  1  0  0  0
 27 28  1  0  0  0
 27 29  1  0  0  0
 27 30  1  0  0  0
  6  7  1  0  0  0
  7  8  2  0  0  0
  8  9  1  0  0  0
  9 10  2  0  0  0
 10 14  1  0  0  0
 14 16  1  0  0  0
 16 17  1  0  0  0
 16 18  2  0  0  0
 16 19  2  0  0  0
 10 11  1  0  0  0
 11 12  1  0  0  0
 11 13  2  0  0  0
 26 21  1  0  0  0
 13  7  1  0  0  0
  3  4  1  0  0  0
 14 15  1  0  0  0
M  END
> <minimizedAffinity>
-7.99893

> <CNNscore>
0.6616970301

> <CNNaffinity>
6.4942321777

> <CNN_VS>
4.2972140312

> <CNNaffinity_variance>
0.0174386911

$$$$
[H]c1c([H])c(C([H])(C(=O)N([H])C([H])([H])c2c([H])c([H])c(C(C([H])([H])[H])(C([H])([H])[H])C([H])([H])[H])c([H])c2N(C([H])([H])[H])C([H])([H])[H])C([H])([H])[H])c([H])c(F)c1N([H])S(=O)(=O)C([H])([H])[H]


 33 34  0  0  0  0  0  0  0  0999 V2000
  154.1991  139.7435  183.3073 C   0  0  0  0  0  0  0  0  0  0  0  0
  153.8543  139.7464  182.1508 O   0  0  0  0  0  0  0  0  0  0  0  0
  154.0130  138.6669  184.1808 N   0  0  0  0  0  0  0  0  0  0  0  0
  155.2447  138.8493  184.6675 H   0  0  0  0  0  0  0  0  0  0  0  0
  154.2110  142.1852  183.2450 C   0  0  0  0  0  0  0  0  0  0  0  0
  154.8069  140.9033  183.9982 C   0  0  0  0  0  0  0  0  0  0  0  0
  156.2385  141.1100  183.8279 C   0  0  0  0  0  0  0  0  0  0  0  0
  157.0481  140.2403  184.5606 C   0  0  0  0  0  0  0  0  0  0  0  0
  158.4182  140.3777  184.6608 C   0  0  0  0  0  0  0  0  0  0  0  0
  159.0453  141.4033  184.0192 C   0  0  0  0  0  0  0  0  0  0  0  0
  158.2366  142.2652  183.2651 C   0  0  0  0  0  0  0  0  0  0  0  0
  158.8643  143.2758  182.5955 F   0  0  0  0  0  0  0  0  0  0  0  0
  156.8782  142.1376  183.1690 C   0  0  0  0  0  0  0  0  0  0  0  0
  160.4173  141.6788  184.1235 N   0  0  0  0  0  0  0  0  0  0  0  0
  161.0876  141.1801  183.4408 H   0  0  0  0  0  0  0  0  0  0  0  0
  161.0889  142.7661  185.2248 S   0  0  0  0  0  0  0  0  0  0  0  0
  160.2997  142.7669  186.8048 C   0  0  0  0  0  0  0  0  0  0  0  0
  162.5531  142.3593  185.3964 O   0  0  0  0  0  0  0  0  0  0  0  0
  161.0354  144.1646  184.6720 O   0  0  0  0  0  0  0  0  0  0  0  0
  153.7823  137.5849  184.9603 C   0  0  0  0  0  0  0  0  0  0  0  0
  154.1333  137.6936  186.3718 C   0  0  0  0  0  0  0  0  0  0  0  0
  155.3399  138.1600  186.8663 C   0  0  0  0  0  0  0  0  0  0  0  0
  155.5828  138.1400  188.2218 C   0  0  0  0  0  0  0  0  0  0  0  0
  154.6347  137.6644  189.0712 C   0  0  0  0  0  0  0  0  0  0  0  0
  153.4185  137.1792  188.5905 C   0  0  0  0  0  0  0  0  0  0  0  0
  153.1721  137.1925  187.2482 C   0  0  0  0  0  0  0  0  0  0  0  0
  154.7688  137.6683  190.5453 C   0  0  0  0  0  0  0  0  0  0  0  0
  153.5405  137.0137  191.1808 C   0  0  0  0  0  0  0  0  0  0  0  0
  155.9321  136.7367  190.9035 C   0  0  0  0  0  0  0  0  0  0  0  0
  154.9979  139.0005  191.1605 C   0  0  0  0  0  0  0  0  0  0  0  0
  151.9545  136.6142  186.8115 N   0  0  0  0  0  0  0  0  0  0  0  0
  150.7466  137.2967  186.5315 C   0  0  0  0  0  0  0  0  0  0  0  0
  152.0055  135.1470  186.6745 C   0  0  0  0  0  0  0  0  0  0  0  0
  5  6  1  0  0  0
  6  1  1  0  0  0
  1  2  2  0  0  0
  1  3  1  0  0  0
  3 20  1  0  0  0
 20 21  1  0  0  0
 21 22  2  0  0  0
 22 23  1  0  0  0
 23 24  2  0  0  0
 24 25  1  0  0  0
 25 26  2  0  0  0
 26 31  1  0  0  0
 31 32  1  0  0  0
 31 33  1  0  0  0
 24 27  1  0  0  0
 27 28  1  0  0  0
 27 29  1  0  0  0
 27 30  1  0  0  0
  6  7  1  0  0  0
  7  8  2  0  0  0
  8  9  1  0  0  0
  9 10  2  0  0  0
 10 14  1  0  0  0
 14 16  1  0  0  0
 16 17  1  0  0  0
 16 18  2  0  0  0
 16 19  2  0  0  0
 10 11  1  0  0  0
 11 12  1  0  0  0
 11 13  2  0  0  0
 26 21  1  0  0  0
 13  7  1  0  0  0
  3  4  1  0  0  0
 14 15  1  0  0  0
M  END
> <minimizedAffinity>
-8.49018

> <CNNscore>
0.6585069895

> <CNNaffinity>
6.7553963661

> <CNN_VS>
4.4484758377

> <CNNaffinity_variance>
0.1253922284

$$$$
[H]c1c([H])c(C([H])(C(=O)N([H])C([H])([H])c2c([H])c([H])c(C(C([H])([H])[H])(C([H])([H])[H])C([H])([H])[H])c([H])c2N(C([H])([H])[H])C([H])([H])[H])C([H])([H])[H])c([H])c(F)c1N([H])S(=O)(=O)C([H])([H])[H]


 33 34  0  0  0  0  0  0  0  0999 V2000
  153.8402  139.6953  182.9920 C   0  0  0  0  0  0  0  0  0  0  0  0
  153.6004  139.5647  181.8166 O   0  0  0  0  0  0  0  0  0  0  0  0
  153.6343  138.6992  183.9523 N   0  0  0  0  0  0  0  0  0  0  0  0
  154.8062  139.0037  184.5190 H   0  0  0  0  0  0  0  0  0  0  0  0
  154.0107  142.0860  182.5215 C   0  0  0  0  0  0  0  0  0  0  0  0
  154.3214  140.9520  183.6093 C   0  0  0  0  0  0  0  0  0  0  0  0
  155.7594  141.1062  183.7820 C   0  0  0  0  0  0  0  0  0  0  0  0
  156.2632  142.3562  183.4185 C   0  0  0  0  0  0  0  0  0  0  0  0
  157.6118  142.6447  183.3551 C   0  0  0  0  0  0  0  0  0  0  0  0
  158.5261  141.6817  183.6614 C   0  0  0  0  0  0  0  0  0  0  0  0
  158.0217  140.4320  184.0476 C   0  0  0  0  0  0  0  0  0  0  0  0
  158.9335  139.4736  184.3852 F   0  0  0  0  0  0  0  0  0  0  0  0
  156.6869  140.1393  184.1046 C   0  0  0  0  0  0  0  0  0  0  0  0
  159.9150  141.8473  183.5491 N   0  0  0  0  0  0  0  0  0  0  0  0
  160.3927  141.5177  182.6395 H   0  0  0  0  0  0  0  0  0  0  0  0
  160.8873  142.5599  184.7294 S   0  0  0  0  0  0  0  0  0  0  0  0
  160.2762  142.3671  186.3752 C   0  0  0  0  0  0  0  0  0  0  0  0
  162.2583  141.8908  184.6226 O   0  0  0  0  0  0  0  0  0  0  0  0
  161.0427  144.0312  184.4550 O   0  0  0  0  0  0  0  0  0  0  0  0
  153.3927  137.6858  184.8162 C   0  0  0  0  0  0  0  0  0  0  0  0
  153.9899  137.7849  186.1431 C   0  0  0  0  0  0  0  0  0  0  0  0
  155.2552  138.2749  186.4204 C   0  0  0  0  0  0  0  0  0  0  0  0
  155.7389  138.2434  187.7096 C   0  0  0  0  0  0  0  0  0  0  0  0
  154.9704  137.7332  188.7073 C   0  0  0  0  0  0  0  0  0  0  0  0
  153.6987  137.2239  188.4449 C   0  0  0  0  0  0  0  0  0  0  0  0
  153.2140  137.2485  187.1693 C   0  0  0  0  0  0  0  0  0  0  0  0
  155.3680  137.7211  190.1330 C   0  0  0  0  0  0  0  0  0  0  0  0
  154.7424  138.9149  190.8573 C   0  0  0  0  0  0  0  0  0  0  0  0
  154.7192  136.4928  190.7809 C   0  0  0  0  0  0  0  0  0  0  0  0
  156.8313  137.6957  190.3860 C   0  0  0  0  0  0  0  0  0  0  0  0
  151.9508  136.6456  186.9490 N   0  0  0  0  0  0  0  0  0  0  0  0
  150.7375  137.3096  186.6490 C   0  0  0  0  0  0  0  0  0  0  0  0
  151.9589  135.1770  187.0809 C   0  0  0  0  0  0  0  0  0  0  0  0
  5  6  1  0  0  0
  6  1  1  0  0  0
  1  2  2  0  0  0
  1  3  1  0  0  0
  3 20  1  0  0  0
 20 21  1  0  0  0
 21 22  2  0  0  0
 22 23  1  0  0  0
 23 24  2  0  0  0
 24 25  1  0  0  0
 25 26  2  0  0  0
 26 31  1  0  0  0
 31 32  1  0  0  0
 31 33  1  0  0  0
 24 27  1  0  0  0
 27 28  1  0  0  0
 27 29  1  0  0  0
 27 30  1  0  0  0
  6  7  1  0  0  0
  7  8  2  0  0  0
  8  9  1  0  0  0
  9 10  2  0  0  0
 10 14  1  0  0  0
 14 16  1  0  0  0
 16 17  1  0  0  0
 16 18  2  0  0  0
 16 19  2  0  0  0
 10 11  1  0  0  0
 11 12  1  0  0  0
 11 13  2  0  0  0
 26 21  1  0  0  0
 13  7  1  0  0  0
  3  4  1  0  0  0
 14 15  1  0  0  0
M  END
> <minimizedAffinity>
-8.33981

> <CNNscore>
0.5588029623

> <CNNaffinity>
6.7458634377

> <CNN_VS>
3.7696084976

> <CNNaffinity_variance>
0.1758735478

$$$$
[H]c1c([H])c(C([H])(C(=O)N([H])C([H])([H])c2c([H])c([H])c(C(C([H])([H])[H])(C([H])([H])[H])C([H])([H])[H])c([H])c2N(C([H])([H])[H])C([H])([H])[H])C([H])([H])[H])c([H])c(F)c1N([H])S(=O)(=O)C([H])([H])[H]


 33 34  0  0  0  0  0  0  0  0999 V2000
  154.5106  137.6763  186.3059 C   0  0  0  0  0  0  0  0  0  0  0  0
  154.5580  136.4928  186.0752 O   0  0  0  0  0  0  0  0  0  0  0  0
  154.3568  138.6632  185.3266 N   0  0  0  0  0  0  0  0  0  0  0  0
  153.4904  139.3089  186.1137 H   0  0  0  0  0  0  0  0  0  0  0  0
  156.1653  137.8660  188.0926 C   0  0  0  0  0  0  0  0  0  0  0  0
  154.6793  138.2699  187.6518 C   0  0  0  0  0  0  0  0  0  0  0  0
  153.8931  137.7018  188.7382 C   0  0  0  0  0  0  0  0  0  0  0  0
  154.5766  137.5646  189.9475 C   0  0  0  0  0  0  0  0  0  0  0  0
  154.0603  136.9024  191.0434 C   0  0  0  0  0  0  0  0  0  0  0  0
  152.8185  136.3453  190.9756 C   0  0  0  0  0  0  0  0  0  0  0  0
  152.1217  136.5007  189.7691 C   0  0  0  0  0  0  0  0  0  0  0  0
  150.8649  135.9710  189.7070 F   0  0  0  0  0  0  0  0  0  0  0  0
  152.6319  137.1492  188.6784 C   0  0  0  0  0  0  0  0  0  0  0  0
  152.2379  135.5831  192.0008 N   0  0  0  0  0  0  0  0  0  0  0  0
  152.3755  134.5132  191.9767 H   0  0  0  0  0  0  0  0  0  0  0  0
  151.3655  136.2307  193.2913 S   0  0  0  0  0  0  0  0  0  0  0  0
  151.7952  135.5483  194.8626 C   0  0  0  0  0  0  0  0  0  0  0  0
  151.6570  137.7320  193.3007 O   0  0  0  0  0  0  0  0  0  0  0  0
  149.8906  136.0242  193.0765 O   0  0  0  0  0  0  0  0  0  0  0  0
  154.2185  139.5520  184.3154 C   0  0  0  0  0  0  0  0  0  0  0  0
  155.4410  140.0869  183.7266 C   0  0  0  0  0  0  0  0  0  0  0  0
  156.7294  139.7745  184.1272 C   0  0  0  0  0  0  0  0  0  0  0  0
  157.8046  140.4076  183.5442 C   0  0  0  0  0  0  0  0  0  0  0  0
  157.5973  141.3363  182.5742 C   0  0  0  0  0  0  0  0  0  0  0  0
  156.3065  141.6727  182.1666 C   0  0  0  0  0  0  0  0  0  0  0  0
  155.2359  141.0522  182.7422 C   0  0  0  0  0  0  0  0  0  0  0  0
  158.6846  142.0177  181.8363 C   0  0  0  0  0  0  0  0  0  0  0  0
  158.5878  143.5300  182.0472 C   0  0  0  0  0  0  0  0  0  0  0  0
  160.0088  141.6192  182.4975 C   0  0  0  0  0  0  0  0  0  0  0  0
  158.7514  141.7205  180.3827 C   0  0  0  0  0  0  0  0  0  0  0  0
  153.9481  141.4909  182.3462 N   0  0  0  0  0  0  0  0  0  0  0  0
  152.9787  140.7395  181.6400 C   0  0  0  0  0  0  0  0  0  0  0  0
  153.6533  142.8877  182.7154 C   0  0  0  0  0  0  0  0  0  0  0  0
  5  6  1  0  0  0
  6  1  1  0  0  0
  1  2  2  0  0  0
  1  3  1  0  0  0
  3 20  1  0  0  0
 20 21  1  0  0  0
 21 22  2  0  0  0
 22 23  1  0  0  0
 23 24  2  0  0  0
 24 25  1  0  0  0
 25 26  2  0  0  0
 26 31  1  0  0  0
 31 32  1  0  0  0
 31 33  1  0  0  0
 24 27  1  0  0  0
 27 28  1  0  0  0
 27 29  1  0  0  0
 27 30  1  0  0  0
  6  7  1  0  0  0
  7  8  2  0  0  0
  8  9  1  0  0  0
  9 10  2  0  0  0
 10 14  1  0  0  0
 14 16  1  0  0  0
 16 17  1  0  0  0
 16 18  2  0  0  0
 16 19  2  0  0  0
 10 11  1  0  0  0
 11 12  1  0  0  0
 11 13  2  0  0  0
 26 21  1  0  0  0
 13  7  1  0  0  0
  3  4  1  0  0  0
 14 15  1  0  0  0
M  END
> <minimizedAffinity>
-7.85321

> <CNNscore>
0.4795862734

> <CNNaffinity>
6.2322783470

> <CNN_VS>
2.9889152050

> <CNNaffinity_variance>
0.0307721738

$$$$
[H]c1c([H])c(C([H])(C(=O)N([H])C([H])([H])c2c([H])c([H])c(C(C([H])([H])[H])(C([H])([H])[H])C([H])([H])[H])c([H])c2N(C([H])([H])[H])C([H])([H])[H])C([H])([H])[H])c([H])c(F)c1N([H])S(=O)(=O)C([H])([H])[H]


 33 34  0  0  0  0  0  0  0  0999 V2000
  154.7388  138.3840  185.0414 C   0  0  0  0  0  0  0  0  0  0  0  0
  154.5573  137.4524  184.2961 O   0  0  0  0  0  0  0  0  0  0  0  0
  154.8429  138.2704  186.4317 N   0  0  0  0  0  0  0  0  0  0  0  0
  155.8617  139.1360  186.4258 H   0  0  0  0  0  0  0  0  0  0  0  0
  154.0265  139.8329  183.2085 C   0  0  0  0  0  0  0  0  0  0  0  0
  154.8079  139.7975  184.6063 C   0  0  0  0  0  0  0  0  0  0  0  0
  156.1125  140.3165  184.2192 C   0  0  0  0  0  0  0  0  0  0  0  0
  157.1974  139.5354  184.6208 C   0  0  0  0  0  0  0  0  0  0  0  0
  158.5126  139.9356  184.4935 C   0  0  0  0  0  0  0  0  0  0  0  0
  158.8017  141.1500  183.9472 C   0  0  0  0  0  0  0  0  0  0  0  0
  157.7144  141.9268  183.5233 C   0  0  0  0  0  0  0  0  0  0  0  0
  158.0007  143.1309  182.9470 F   0  0  0  0  0  0  0  0  0  0  0  0
  156.4097  141.5379  183.6542 C   0  0  0  0  0  0  0  0  0  0  0  0
  160.0958  141.6837  183.8488 N   0  0  0  0  0  0  0  0  0  0  0  0
  160.6689  141.4628  182.9617 H   0  0  0  0  0  0  0  0  0  0  0  0
  160.8062  142.6786  185.0114 S   0  0  0  0  0  0  0  0  0  0  0  0
  160.0856  142.5336  186.6173 C   0  0  0  0  0  0  0  0  0  0  0  0
  162.2793  142.2744  185.0851 O   0  0  0  0  0  0  0  0  0  0  0  0
  160.7189  144.1191  184.5853 O   0  0  0  0  0  0  0  0  0  0  0  0
  154.9189  138.0721  187.7683 C   0  0  0  0  0  0  0  0  0  0  0  0
  155.7495  136.9663  188.2315 C   0  0  0  0  0  0  0  0  0  0  0  0
  156.5793  136.1957  187.4343 C   0  0  0  0  0  0  0  0  0  0  0  0
  157.2552  135.1249  187.9761 C   0  0  0  0  0  0  0  0  0  0  0  0
  157.1072  134.8295  189.2942 C   0  0  0  0  0  0  0  0  0  0  0  0
  156.2664  135.5868  190.1097 C   0  0  0  0  0  0  0  0  0  0  0  0
  155.5907  136.6472  189.5790 C   0  0  0  0  0  0  0  0  0  0  0  0
  157.8438  133.7482  189.9866 C   0  0  0  0  0  0  0  0  0  0  0  0
  157.7618  133.9503  191.5010 C   0  0  0  0  0  0  0  0  0  0  0  0
  157.0881  132.4396  189.7297 C   0  0  0  0  0  0  0  0  0  0  0  0
  159.2634  133.5842  189.5818 C   0  0  0  0  0  0  0  0  0  0  0  0
  154.6907  137.3300  190.4342 N   0  0  0  0  0  0  0  0  0  0  0  0
  153.3325  137.0058  190.6651 C   0  0  0  0  0  0  0  0  0  0  0  0
  155.2798  138.5021  191.1077 C   0  0  0  0  0  0  0  0  0  0  0  0
  5  6  1  0  0  0
  6  1  1  0  0  0
  1  2  2  0  0  0
  1  3  1  0  0  0
  3 20  1  0  0  0
 20 21  1  0  0  0
 21 22  2  0  0  0
 22 23  1  0  0  0
 23 24  2  0  0  0
 24 25  1  0  0  0
 25 26  2  0  0  0
 26 31  1  0  0  0
 31 32  1  0  0  0
 31 33  1  0  0  0
 24 27  1  0  0  0
 27 28  1  0  0  0
 27 29  1  0  0  0
 27 30  1  0  0  0
  6  7  1  0  0  0
  7  8  2  0  0  0
  8  9  1  0  0  0
  9 10  2  0  0  0
 10 14  1  0  0  0
 14 16  1  0  0  0
 16 17  1  0  0  0
 16 18  2  0  0  0
 16 19  2  0  0  0
 10 11  1  0  0  0
 11 12  1  0  0  0
 11 13  2  0  0  0
 26 21  1  0  0  0
 13  7  1  0  0  0
  3  4  1  0  0  0
 14 15  1  0  0  0
M  END
> <minimizedAffinity>
-7.89105

> <CNNscore>
0.4465742409

> <CNNaffinity>
6.5009202957

> <CNN_VS>
2.9031436443

> <CNNaffinity_variance>
0.0819310173

$$$$
[H]c1c([H])c(C([H])(C(=O)N([H])C([H])([H])c2c([H])c([H])c(C(C([H])([H])[H])(C([H])([H])[H])C([H])([H])[H])c([H])c2N(C([H])([H])[H])C([H])([H])[H])C([H])([H])[H])c([H])c(F)c1N([H])S(=O)(=O)C([H])([H])[H]


 33 34  0  0  0  0  0  0  0  0999 V2000
  154.6077  139.8197  183.7800 C   0  0  0  0  0  0  0  0  0  0  0  0
  153.7081  140.6217  183.8396 O   0  0  0  0  0  0  0  0  0  0  0  0
  155.8398  140.0639  183.1645 N   0  0  0  0  0  0  0  0  0  0  0  0
  156.4663  139.4607  184.1798 H   0  0  0  0  0  0  0  0  0  0  0  0
  153.0172  137.9757  183.9705 C   0  0  0  0  0  0  0  0  0  0  0  0
  154.5203  138.4309  184.2856 C   0  0  0  0  0  0  0  0  0  0  0  0
  154.5825  138.2376  185.7278 C   0  0  0  0  0  0  0  0  0  0  0  0
  153.3640  138.3857  186.3926 C   0  0  0  0  0  0  0  0  0  0  0  0
  153.2439  138.4022  187.7679 C   0  0  0  0  0  0  0  0  0  0  0  0
  154.3534  138.2648  188.5469 C   0  0  0  0  0  0  0  0  0  0  0  0
  155.5753  138.0942  187.8812 C   0  0  0  0  0  0  0  0  0  0  0  0
  156.6855  137.9252  188.6577 F   0  0  0  0  0  0  0  0  0  0  0  0
  155.7004  138.0848  186.5192 C   0  0  0  0  0  0  0  0  0  0  0  0
  154.3504  138.3503  189.9476 N   0  0  0  0  0  0  0  0  0  0  0  0
  154.3411  139.3320  190.3952 H   0  0  0  0  0  0  0  0  0  0  0  0
  154.3257  137.0183  190.9826 S   0  0  0  0  0  0  0  0  0  0  0  0
  155.9084  136.5900  191.6390 C   0  0  0  0  0  0  0  0  0  0  0  0
  153.3877  137.3824  192.1342 O   0  0  0  0  0  0  0  0  0  0  0  0
  153.7722  135.8155  190.2676 O   0  0  0  0  0  0  0  0  0  0  0  0
  156.9970  140.3797  182.5376 C   0  0  0  0  0  0  0  0  0  0  0  0
  158.0670  140.9388  183.3560 C   0  0  0  0  0  0  0  0  0  0  0  0
  158.3940  140.5319  184.6387 C   0  0  0  0  0  0  0  0  0  0  0  0
  159.3765  141.1930  185.3418 C   0  0  0  0  0  0  0  0  0  0  0  0
  160.0247  142.2427  184.7722 C   0  0  0  0  0  0  0  0  0  0  0  0
  159.7004  142.6745  183.4862 C   0  0  0  0  0  0  0  0  0  0  0  0
  158.7254  142.0265  182.7847 C   0  0  0  0  0  0  0  0  0  0  0  0
  161.1423  142.9707  185.4140 C   0  0  0  0  0  0  0  0  0  0  0  0
  162.4766  142.3535  184.9899 C   0  0  0  0  0  0  0  0  0  0  0  0
  161.1670  144.3861  184.8261 C   0  0  0  0  0  0  0  0  0  0  0  0
  161.0805  143.0544  186.8956 C   0  0  0  0  0  0  0  0  0  0  0  0
  158.3833  142.5582  181.5167 N   0  0  0  0  0  0  0  0  0  0  0  0
  158.8685  142.1257  180.2594 C   0  0  0  0  0  0  0  0  0  0  0  0
  157.4394  143.6893  181.5782 C   0  0  0  0  0  0  0  0  0  0  0  0
  5  6  1  0  0  0
  6  1  1  0  0  0
  1  2  2  0  0  0
  1  3  1  0  0  0
  3 20  1  0  0  0
 20 21  1  0  0  0
 21 22  2  0  0  0
 22 23  1  0  0  0
 23 24  2  0  0  0
 24 25  1  0  0  0
 25 26  2  0  0  0
 26 31  1  0  0  0
 31 32  1  0  0  0
 31 33  1  0  0  0
 24 27  1  0  0  0
 27 28  1  0  0  0
 27 29  1  0  0  0
 27 30  1  0  0  0
  6  7  1  0  0  0
  7  8  2  0  0  0
  8  9  1  0  0  0
  9 10  2  0  0  0
 10 14  1  0  0  0
 14 16  1  0  0  0
 16 17  1  0  0  0
 16 18  2  0  0  0
 16 19  2  0  0  0
 10 11  1  0  0  0
 11 12  1  0  0  0
 11 13  2  0  0  0
 26 21  1  0  0  0
 13  7  1  0  0  0
  3  4  1  0  0  0
 14 15  1  0  0  0
M  END
> <minimizedAffinity>
-8.76082

> <CNNscore>
0.4376473129

> <CNNaffinity>
6.7776327133

> <CNN_VS>
2.9662127495

> <CNNaffinity_variance>
0.0480694622

$$$$
[H]c1c([H])c(C([H])(C(=O)N([H])C([H])([H])c2c([H])c([H])c(C(C([H])([H])[H])(C([H])([H])[H])C([H])([H])[H])c([H])c2N(C([H])([H])[H])C([H])([H])[H])C([H])([H])[H])c([H])c(F)c1N([H])S(=O)(=O)C([H])([H])[H]


 33 34  0  0  0  0  0  0  0  0999 V2000
  154.6519  137.3009  186.5557 C   0  0  0  0  0  0  0  0  0  0  0  0
  154.7557  136.1214  186.3226 O   0  0  0  0  0  0  0  0  0  0  0  0
  154.6497  138.2991  185.5759 N   0  0  0  0  0  0  0  0  0  0  0  0
  153.6533  138.9222  186.2133 H   0  0  0  0  0  0  0  0  0  0  0  0
  156.1095  138.0059  188.3844 C   0  0  0  0  0  0  0  0  0  0  0  0
  154.5826  137.8778  187.9174 C   0  0  0  0  0  0  0  0  0  0  0  0
  154.0289  137.0406  188.9727 C   0  0  0  0  0  0  0  0  0  0  0  0
  152.6537  136.8179  188.8840 C   0  0  0  0  0  0  0  0  0  0  0  0
  151.9187  136.1907  189.8701 C   0  0  0  0  0  0  0  0  0  0  0  0
  152.5384  135.7497  191.0007 C   0  0  0  0  0  0  0  0  0  0  0  0
  153.9231  135.9531  191.0821 C   0  0  0  0  0  0  0  0  0  0  0  0
  154.5533  135.4853  192.1992 F   0  0  0  0  0  0  0  0  0  0  0  0
  154.6543  136.5806  190.1114 C   0  0  0  0  0  0  0  0  0  0  0  0
  151.8718  135.1762  192.0942 N   0  0  0  0  0  0  0  0  0  0  0  0
  151.6844  134.1138  192.0729 H   0  0  0  0  0  0  0  0  0  0  0  0
  151.3719  136.0314  193.4597 S   0  0  0  0  0  0  0  0  0  0  0  0
  151.9359  137.7045  193.5051 C   0  0  0  0  0  0  0  0  0  0  0  0
  149.8427  136.0188  193.4425 O   0  0  0  0  0  0  0  0  0  0  0  0
  151.8488  135.3405  194.7084 O   0  0  0  0  0  0  0  0  0  0  0  0
  154.6696  139.2001  184.5661 C   0  0  0  0  0  0  0  0  0  0  0  0
  153.5877  139.1311  183.5904 C   0  0  0  0  0  0  0  0  0  0  0  0
  152.7392  138.0522  183.4062 C   0  0  0  0  0  0  0  0  0  0  0  0
  151.8040  138.0759  182.3954 C   0  0  0  0  0  0  0  0  0  0  0  0
  151.7153  139.1611  181.5824 C   0  0  0  0  0  0  0  0  0  0  0  0
  152.5696  140.2516  181.7449 C   0  0  0  0  0  0  0  0  0  0  0  0
  153.5012  140.2338  182.7422 C   0  0  0  0  0  0  0  0  0  0  0  0
  150.6991  139.3150  180.5172 C   0  0  0  0  0  0  0  0  0  0  0  0
  150.2577  137.9380  180.0169 C   0  0  0  0  0  0  0  0  0  0  0  0
  149.4436  139.9125  181.1624 C   0  0  0  0  0  0  0  0  0  0  0  0
  151.1078  140.1568  179.3638 C   0  0  0  0  0  0  0  0  0  0  0  0
  154.3934  141.3325  182.8093 N   0  0  0  0  0  0  0  0  0  0  0  0
  154.2362  142.5033  183.5888 C   0  0  0  0  0  0  0  0  0  0  0  0
  155.5765  141.1950  181.9400 C   0  0  0  0  0  0  0  0  0  0  0  0
  5  6  1  0  0  0
  6  1  1  0  0  0
  1  2  2  0  0  0
  1  3  1  0  0  0
  3 20  1  0  0  0
 20 21  1  0  0  0
 21 22  2  0  0  0
 22 23  1  0  0  0
 23 24  2  0  0  0
 24 25  1  0  0  0
 25 26  2  0  0  0
 26 31  1  0  0  0
 31 32  1  0  0  0
 31 33  1  0  0  0
 24 27  1  0  0  0
 27 28  1  0  0  0
 27 29  1  0  0  0
 27 30  1  0  0  0
  6  7  1  0  0  0
  7  8  2  0  0  0
  8  9  1  0  0  0
  9 10  2  0  0  0
 10 14  1  0  0  0
 14 16  1  0  0  0
 16 17  1  0  0  0
 16 18  2  0  0  0
 16 19  2  0  0  0
 10 11  1  0  0  0
 11 12  1  0  0  0
 11 13  2  0  0  0
 26 21  1  0  0  0
 13  7  1  0  0  0
  3  4  1  0  0  0
 14 15  1  0  0  0
M  END
> <minimizedAffinity>
-6.88451

> <CNNscore>
0.3742929101

> <CNNaffinity>
5.8439168930

> <CNN_VS>
2.1873366833

> <CNNaffinity_variance>
0.0794444829

$$$$
[H]c1c([H])c(C([H])(C(=O)N([H])C([H])([H])c2c([H])c([H])c(C(C([H])([H])[H])(C([H])([H])[H])C([H])([H])[H])c([H])c2N(C([H])([H])[H])C([H])([H])[H])C([H])([H])[H])c([H])c(F)c1N([H])S(=O)(=O)C([H])([H])[H]


 33 34  0  0  0  0  0  0  0  0999 V2000
  154.7493  138.4592  184.7986 C   0  0  0  0  0  0  0  0  0  0  0  0
  154.3987  137.6031  184.0238 O   0  0  0  0  0  0  0  0  0  0  0  0
  155.0536  138.2260  186.1438 N   0  0  0  0  0  0  0  0  0  0  0  0
  156.1132  139.0350  186.0441 H   0  0  0  0  0  0  0  0  0  0  0  0
  154.0508  140.0470  183.0790 C   0  0  0  0  0  0  0  0  0  0  0  0
  154.8425  139.8983  184.4635 C   0  0  0  0  0  0  0  0  0  0  0  0
  156.1538  140.4187  184.1017 C   0  0  0  0  0  0  0  0  0  0  0  0
  157.2298  139.6178  184.4882 C   0  0  0  0  0  0  0  0  0  0  0  0
  158.5488  140.0116  184.3827 C   0  0  0  0  0  0  0  0  0  0  0  0
  158.8511  141.2393  183.8746 C   0  0  0  0  0  0  0  0  0  0  0  0
  157.7729  142.0366  183.4658 C   0  0  0  0  0  0  0  0  0  0  0  0
  158.0724  143.2549  182.9275 F   0  0  0  0  0  0  0  0  0  0  0  0
  156.4643  141.6539  183.5753 C   0  0  0  0  0  0  0  0  0  0  0  0
  160.1498  141.7659  183.8018 N   0  0  0  0  0  0  0  0  0  0  0  0
  160.7181  141.5901  182.9017 H   0  0  0  0  0  0  0  0  0  0  0  0
  160.8730  142.6871  185.0161 S   0  0  0  0  0  0  0  0  0  0  0  0
  160.1061  142.5185  186.5981 C   0  0  0  0  0  0  0  0  0  0  0  0
  162.3248  142.2156  185.1104 O   0  0  0  0  0  0  0  0  0  0  0  0
  160.8595  144.1440  184.6401 O   0  0  0  0  0  0  0  0  0  0  0  0
  155.3167  137.9141  187.4343 C   0  0  0  0  0  0  0  0  0  0  0  0
  154.2234  137.3538  188.2205 C   0  0  0  0  0  0  0  0  0  0  0  0
  152.8935  137.3170  187.8358 C   0  0  0  0  0  0  0  0  0  0  0  0
  151.9389  136.8322  188.7022 C   0  0  0  0  0  0  0  0  0  0  0  0
  152.3065  136.3883  189.9328 C   0  0  0  0  0  0  0  0  0  0  0  0
  153.6392  136.4291  190.3421 C   0  0  0  0  0  0  0  0  0  0  0  0
  154.5903  136.9115  189.4904 C   0  0  0  0  0  0  0  0  0  0  0  0
  151.3705  135.7827  190.9065 C   0  0  0  0  0  0  0  0  0  0  0  0
  152.0615  134.6369  191.6485 C   0  0  0  0  0  0  0  0  0  0  0  0
  151.0910  136.8313  191.9890 C   0  0  0  0  0  0  0  0  0  0  0  0
  150.0832  135.3051  190.3402 C   0  0  0  0  0  0  0  0  0  0  0  0
  155.9135  137.0036  189.9886 N   0  0  0  0  0  0  0  0  0  0  0  0
  156.4686  138.0803  190.7205 C   0  0  0  0  0  0  0  0  0  0  0  0
  156.7573  135.8396  189.6610 C   0  0  0  0  0  0  0  0  0  0  0  0
  5  6  1  0  0  0
  6  1  1  0  0  0
  1  2  2  0  0  0
  1  3  1  0  0  0
  3 20  1  0  0  0
 20 21  1  0  0  0
 21 22  2  0  0  0
 22 23  1  0  0  0
 23 24  2  0  0  0
 24 25  1  0  0  0
 25 26  2  0  0  0
 26 31  1  0  0  0
 31 32  1  0  0  0
 31 33  1  0  0  0
 24 27  1  0  0  0
 27 28  1  0  0  0
 27 29  1  0  0  0
 27 30  1  0  0  0
  6  7  1  0  0  0
  7  8  2  0  0  0
  8  9  1  0  0  0
  9 10  2  0  0  0
 10 14  1  0  0  0
 14 16  1  0  0  0
 16 17  1  0  0  0
 16 18  2  0  0  0
 16 19  2  0  0  0
 10 11  1  0  0  0
 11 12  1  0  0  0
 11 13  2  0  0  0
 26 21  1  0  0  0
 13  7  1  0  0  0
  3  4  1  0  0  0
 14 15  1  0  0  0
M  END
> <minimizedAffinity>
-7.73376

> <CNNscore>
0.3594882488

> <CNNaffinity>
6.3534169197

> <CNN_VS>
2.2839787006

> <CNNaffinity_variance>
0.0486734882

$$$$
[H]c1c([H])c(C([H])(C(=O)N([H])C([H])([H])c2c([H])c([H])c(C(C([H])([H])[H])(C([H])([H])[H])C([H])([H])[H])c([H])c2N(C([H])([H])[H])C([H])([H])[H])C([H])([H])[H])c([H])c(F)c1N([H])S(=O)(=O)C([H])([H])[H]


 33 34  0  0  0  0  0  0  0  0999 V2000
  154.0665  140.7851  182.2835 C   0  0  0  0  0  0  0  0  0  0  0  0
  154.3068  141.2798  181.2094 O   0  0  0  0  0  0  0  0  0  0  0  0
  153.2542  139.6614  182.4680 N   0  0  0  0  0  0  0  0  0  0  0  0
  154.1258  139.1780  183.3591 H   0  0  0  0  0  0  0  0  0  0  0  0
  154.2211  142.9012  183.4937 C   0  0  0  0  0  0  0  0  0  0  0  0
  154.5359  141.3328  183.5765 C   0  0  0  0  0  0  0  0  0  0  0  0
  155.9720  141.3407  183.8193 C   0  0  0  0  0  0  0  0  0  0  0  0
  156.6381  142.4788  183.3616 C   0  0  0  0  0  0  0  0  0  0  0  0
  158.0130  142.6039  183.3509 C   0  0  0  0  0  0  0  0  0  0  0  0
  158.7901  141.5824  183.8084 C   0  0  0  0  0  0  0  0  0  0  0  0
  158.1224  140.4470  184.2886 C   0  0  0  0  0  0  0  0  0  0  0  0
  158.8961  139.4335  184.7766 F   0  0  0  0  0  0  0  0  0  0  0  0
  156.7611  140.3154  184.2942 C   0  0  0  0  0  0  0  0  0  0  0  0
  160.1927  141.5762  183.7642 N   0  0  0  0  0  0  0  0  0  0  0  0
  160.6724  141.0098  182.9811 H   0  0  0  0  0  0  0  0  0  0  0  0
  161.1826  142.4246  184.8349 S   0  0  0  0  0  0  0  0  0  0  0  0
  161.0677  144.1803  184.6809 C   0  0  0  0  0  0  0  0  0  0  0  0
  160.7477  142.0157  186.2429 O   0  0  0  0  0  0  0  0  0  0  0  0
  162.6207  142.0284  184.6370 O   0  0  0  0  0  0  0  0  0  0  0  0
  152.4459  138.5796  182.5572 C   0  0  0  0  0  0  0  0  0  0  0  0
  151.3780  138.4628  181.5706 C   0  0  0  0  0  0  0  0  0  0  0  0
  151.1622  139.3307  180.5133 C   0  0  0  0  0  0  0  0  0  0  0  0
  150.0690  139.1593  179.6933 C   0  0  0  0  0  0  0  0  0  0  0  0
  149.2058  138.1355  179.9235 C   0  0  0  0  0  0  0  0  0  0  0  0
  149.4001  137.2589  180.9908 C   0  0  0  0  0  0  0  0  0  0  0  0
  150.4792  137.4246  181.8098 C   0  0  0  0  0  0  0  0  0  0  0  0
  148.0455  137.8226  179.0593 C   0  0  0  0  0  0  0  0  0  0  0  0
  147.7521  136.3217  179.1061 C   0  0  0  0  0  0  0  0  0  0  0  0
  146.8119  138.4774  179.6910 C   0  0  0  0  0  0  0  0  0  0  0  0
  148.1669  138.2629  177.6460 C   0  0  0  0  0  0  0  0  0  0  0  0
  150.5817  136.5546  182.9234 N   0  0  0  0  0  0  0  0  0  0  0  0
  150.0347  136.7623  184.2122 C   0  0  0  0  0  0  0  0  0  0  0  0
  151.3686  135.3360  182.6588 C   0  0  0  0  0  0  0  0  0  0  0  0
  5  6  1  0  0  0
  6  1  1  0  0  0
  1  2  2  0  0  0
  1  3  1  0  0  0
  3 20  1  0  0  0
 20 21  1  0  0  0
 21 22  2  0  0  0
 22 23  1  0  0  0
 23 24  2  0  0  0
 24 25  1  0  0  0
 25 26  2  0  0  0
 26 31  1  0  0  0
 31 32  1  0  0  0
 31 33  1  0  0  0
 24 27  1  0  0  0
 27 28  1  0  0  0
 27 29  1  0  0  0
 27 30  1  0  0  0
  6  7  1  0  0  0
  7  8  2  0  0  0
  8  9  1  0  0  0
  9 10  2  0  0  0
 10 14  1  0  0  0
 14 16  1  0  0  0
 16 17  1  0  0  0
 16 18  2  0  0  0
 16 19  2  0  0  0
 10 11  1  0  0  0
 11 12  1  0  0  0
 11 13  2  0  0  0
 26 21  1  0  0  0
 13  7  1  0  0  0
  3  4  1  0  0  0
 14 15  1  0  0  0
M  END
> <minimizedAffinity>
-8.01760

> <CNNscore>
0.3531531990

> <CNNaffinity>
5.9995579720

> <CNN_VS>
2.1187632084

> <CNNaffinity_variance>
0.1966922581

$$$$
[H]c1nc(N2C([H])([H])C([H])([H])c3nc(N4C([H])([H])C([H])([H])C([H])([H])C([H])([H])C4([H])[H])nc(N([H])c4c([H])c([H])c(OC([H])([H])[H])c([H])c4[H])c3C([H])([H])C2([H])[H])c(C(F)(F)F)c([H])c1[H]


 37 41  0  0  0  0  0  0  0  0999 V2000
  154.4186  138.8470  183.9484 C   0  0  0  0  0  0  0  0  0  0  0  0
  155.3085  139.8176  183.7254 N   0  0  0  0  0  0  0  0  0  0  0  0
  155.2351  140.7750  182.8076 C   0  0  0  0  0  0  0  0  0  0  0  0
  154.1274  140.7501  182.0165 N   0  0  0  0  0  0  0  0  0  0  0  0
  153.1793  139.8166  182.1636 C   0  0  0  0  0  0  0  0  0  0  0  0
  152.0790  139.9748  181.1581 C   0  0  0  0  0  0  0  0  0  0  0  0
  151.7688  138.5559  180.5894 C   0  0  0  0  0  0  0  0  0  0  0  0
  150.8845  137.8976  181.5002 N   0  0  0  0  0  0  0  0  0  0  0  0
  151.0070  137.8319  182.9297 C   0  0  0  0  0  0  0  0  0  0  0  0
  152.3858  137.7626  183.4860 C   0  0  0  0  0  0  0  0  0  0  0  0
  153.2894  138.8521  183.1176 C   0  0  0  0  0  0  0  0  0  0  0  0
  149.7343  137.2675  180.9765 C   0  0  0  0  0  0  0  0  0  0  0  0
  149.8569  135.9310  180.6351 N   0  0  0  0  0  0  0  0  0  0  0  0
  148.8556  135.2293  180.1221 C   0  0  0  0  0  0  0  0  0  0  0  0
  147.6580  135.8773  179.9310 C   0  0  0  0  0  0  0  0  0  0  0  0
  147.4877  137.1997  180.2536 C   0  0  0  0  0  0  0  0  0  0  0  0
  148.5618  137.9321  180.7986 C   0  0  0  0  0  0  0  0  0  0  0  0
  148.3323  139.3409  181.1444 C   0  0  0  0  0  0  0  0  0  0  0  0
  146.9871  139.6886  180.8409 F   0  0  0  0  0  0  0  0  0  0  0  0
  148.3568  139.5744  182.5331 F   0  0  0  0  0  0  0  0  0  0  0  0
  149.1096  140.2455  180.4756 F   0  0  0  0  0  0  0  0  0  0  0  0
  156.2247  141.7782  182.6299 N   0  0  0  0  0  0  0  0  0  0  0  0
  157.5004  141.4110  182.0773 C   0  0  0  0  0  0  0  0  0  0  0  0
  158.1094  142.4617  181.1999 C   0  0  0  0  0  0  0  0  0  0  0  0
  158.0903  143.8171  181.8829 C   0  0  0  0  0  0  0  0  0  0  0  0
  156.6575  144.1618  182.1452 C   0  0  0  0  0  0  0  0  0  0  0  0
  155.9568  143.1317  182.9960 C   0  0  0  0  0  0  0  0  0  0  0  0
  154.6420  137.8852  184.9445 N   0  0  0  0  0  0  0  0  0  0  0  0
  154.8270  136.8933  184.5993 H   0  0  0  0  0  0  0  0  0  0  0  0
  154.9711  138.2824  189.1432 C   0  0  0  0  0  0  0  0  0  0  0  0
  153.7679  138.5321  188.5325 C   0  0  0  0  0  0  0  0  0  0  0  0
  153.6361  138.4171  187.1493 C   0  0  0  0  0  0  0  0  0  0  0  0
  154.6819  138.0549  186.3444 C   0  0  0  0  0  0  0  0  0  0  0  0
  155.8900  137.8118  187.0225 C   0  0  0  0  0  0  0  0  0  0  0  0
  156.0367  137.9191  188.3679 C   0  0  0  0  0  0  0  0  0  0  0  0
  156.1614  137.7351  191.2005 C   0  0  0  0  0  0  0  0  0  0  0  0
  155.1138  138.3932  190.5163 O   0  0  0  0  0  0  0  0  0  0  0  0
 36 37  1  0  0  0
 37 30  1  0  0  0
 30 31  2  0  0  0
 31 32  1  0  0  0
 32 33  2  0  0  0
 33 28  1  0  0  0
 28  1  1  0  0  0
  1  2  2  0  0  0
  2  3  1  0  0  0
  3  4  2  0  0  0
  4  5  1  0  0  0
  5  6  1  0  0  0
  6  7  1  0  0  0
  7  8  1  0  0  0
  8  9  1  0  0  0
  9 10  1  0  0  0
 10 11  1  0  0  0
  8 12  1  0  0  0
 12 13  2  0  0  0
 13 14  1  0  0  0
 14 15  2  0  0  0
 15 16  1  0  0  0
 16 17  2  0  0  0
 17 18  1  0  0  0
 18 19  1  0  0  0
 18 20  1  0  0  0
 18 21  1  0  0  0
  3 22  1  0  0  0
 22 23  1  0  0  0
 23 24  1  0  0  0
 24 25  1  0  0  0
 25 26  1  0  0  0
 26 27  1  0  0  0
 33 34  1  0  0  0
 34 35  2  0  0  0
 35 30  1  0  0  0
 11  1  1  0  0  0
 17 12  1  0  0  0
 27 22  1  0  0  0
 11  5  2  0  0  0
 28 29  1  0  0  0
M  END
> <minimizedAffinity>
-9.35452

> <CNNscore>
0.5778767467

> <CNNaffinity>
6.9210448265

> <CNN_VS>
3.9995107651

> <CNNaffinity_variance>
0.0480560586

$$$$
[H]c1nc(N2C([H])([H])C([H])([H])c3nc(N4C([H])([H])C([H])([H])C([H])([H])C([H])([H])C4([H])[H])nc(N([H])c4c([H])c([H])c(OC([H])([H])[H])c([H])c4[H])c3C([H])([H])C2([H])[H])c(C(F)(F)F)c([H])c1[H]


 37 41  0  0  0  0  0  0  0  0999 V2000
  154.4126  138.6946  183.9275 C   0  0  0  0  0  0  0  0  0  0  0  0
  153.2654  138.6843  183.2437 N   0  0  0  0  0  0  0  0  0  0  0  0
  152.8994  139.5247  182.2824 C   0  0  0  0  0  0  0  0  0  0  0  0
  153.8018  140.4958  181.9727 N   0  0  0  0  0  0  0  0  0  0  0  0
  154.9795  140.5878  182.6025 C   0  0  0  0  0  0  0  0  0  0  0  0
  155.7844  141.7541  182.1140 C   0  0  0  0  0  0  0  0  0  0  0  0
  156.3587  142.4752  183.3722 C   0  0  0  0  0  0  0  0  0  0  0  0
  157.5446  141.7852  183.7751 N   0  0  0  0  0  0  0  0  0  0  0  0
  157.7163  140.3655  183.9082 C   0  0  0  0  0  0  0  0  0  0  0  0
  156.5398  139.5850  184.3793 C   0  0  0  0  0  0  0  0  0  0  0  0
  155.3197  139.7061  183.5819 C   0  0  0  0  0  0  0  0  0  0  0  0
  158.7034  142.5476  184.0401 C   0  0  0  0  0  0  0  0  0  0  0  0
  159.3249  142.3334  185.2590 N   0  0  0  0  0  0  0  0  0  0  0  0
  160.4121  142.9940  185.6331 C   0  0  0  0  0  0  0  0  0  0  0  0
  160.9235  143.9234  184.7582 C   0  0  0  0  0  0  0  0  0  0  0  0
  160.3435  144.1705  183.5399 C   0  0  0  0  0  0  0  0  0  0  0  0
  159.1882  143.4599  183.1565 C   0  0  0  0  0  0  0  0  0  0  0  0
  158.6083  143.7440  181.8374 C   0  0  0  0  0  0  0  0  0  0  0  0
  159.4961  144.5754  181.1003 F   0  0  0  0  0  0  0  0  0  0  0  0
  158.5598  142.6090  181.0049 F   0  0  0  0  0  0  0  0  0  0  0  0
  157.4091  144.4009  181.8505 F   0  0  0  0  0  0  0  0  0  0  0  0
  151.6576  139.4503  181.5969 N   0  0  0  0  0  0  0  0  0  0  0  0
  151.4837  140.2009  180.3829 C   0  0  0  0  0  0  0  0  0  0  0  0
  150.6296  139.5158  179.3602 C   0  0  0  0  0  0  0  0  0  0  0  0
  149.3358  139.0183  179.9788 C   0  0  0  0  0  0  0  0  0  0  0  0
  149.7038  138.0404  181.0508 C   0  0  0  0  0  0  0  0  0  0  0  0
  150.5970  138.6425  182.1071 C   0  0  0  0  0  0  0  0  0  0  0  0
  154.6531  137.7515  184.9375 N   0  0  0  0  0  0  0  0  0  0  0  0
  154.8949  136.7673  184.6059 H   0  0  0  0  0  0  0  0  0  0  0  0
  154.8272  138.1652  189.1439 C   0  0  0  0  0  0  0  0  0  0  0  0
  153.6795  138.5130  188.4771 C   0  0  0  0  0  0  0  0  0  0  0  0
  153.6003  138.3946  187.0901 C   0  0  0  0  0  0  0  0  0  0  0  0
  154.6449  137.9327  186.3365 C   0  0  0  0  0  0  0  0  0  0  0  0
  155.7951  137.5917  187.0708 C   0  0  0  0  0  0  0  0  0  0  0  0
  155.8902  137.7007  188.4208 C   0  0  0  0  0  0  0  0  0  0  0  0
  156.1029  137.9328  191.2098 C   0  0  0  0  0  0  0  0  0  0  0  0
  154.9174  138.2783  190.5212 O   0  0  0  0  0  0  0  0  0  0  0  0
 36 37  1  0  0  0
 37 30  1  0  0  0
 30 31  2  0  0  0
 31 32  1  0  0  0
 32 33  2  0  0  0
 33 28  1  0  0  0
 28  1  1  0  0  0
  1  2  2  0  0  0
  2  3  1  0  0  0
  3  4  2  0  0  0
  4  5  1  0  0  0
  5  6  1  0  0  0
  6  7  1  0  0  0
  7  8  1  0  0  0
  8  9  1  0  0  0
  9 10  1  0  0  0
 10 11  1  0  0  0
  8 12  1  0  0  0
 12 13  2  0  0  0
 13 14  1  0  0  0
 14 15  2  0  0  0
 15 16  1  0  0  0
 16 17  2  0  0  0
 17 18  1  0  0  0
 18 19  1  0  0  0
 18 20  1  0  0  0
 18 21  1  0  0  0
  3 22  1  0  0  0
 22 23  1  0  0  0
 23 24  1  0  0  0
 24 25  1  0  0  0
 25 26  1  0  0  0
 26 27  1  0  0  0
 33 34  1  0  0  0
 34 35  2  0  0  0
 35 30  1  0  0  0
 11  1  1  0  0  0
 17 12  1  0  0  0
 27 22  1  0  0  0
 11  5  2  0  0  0
 28 29  1  0  0  0
M  END
> <minimizedAffinity>
-10.64206

> <CNNscore>
0.5684943795

> <CNNaffinity>
7.4143662453

> <CNN_VS>
4.2150254250

> <CNNaffinity_variance>
0.0606544986

$$$$
[H]c1nc(N2C([H])([H])C([H])([H])c3nc(N4C([H])([H])C([H])([H])C([H])([H])C([H])([H])C4([H])[H])nc(N([H])c4c([H])c([H])c(OC([H])([H])[H])c([H])c4[H])c3C([H])([H])C2([H])[H])c(C(F)(F)F)c([H])c1[H]


 37 41  0  0  0  0  0  0  0  0999 V2000
  153.8134  138.1023  184.5094 C   0  0  0  0  0  0  0  0  0  0  0  0
  154.6806  138.8464  183.8179 N   0  0  0  0  0  0  0  0  0  0  0  0
  155.8430  139.3258  184.2462 C   0  0  0  0  0  0  0  0  0  0  0  0
  156.1711  139.0170  185.5309 N   0  0  0  0  0  0  0  0  0  0  0  0
  155.3667  138.2766  186.3033 C   0  0  0  0  0  0  0  0  0  0  0  0
  155.9243  138.1012  187.6836 C   0  0  0  0  0  0  0  0  0  0  0  0
  154.7544  138.3447  188.6860 C   0  0  0  0  0  0  0  0  0  0  0  0
  154.0081  137.1301  188.7991 N   0  0  0  0  0  0  0  0  0  0  0  0
  153.5607  136.2868  187.7260 C   0  0  0  0  0  0  0  0  0  0  0  0
  153.1667  136.9600  186.4584 C   0  0  0  0  0  0  0  0  0  0  0  0
  154.1833  137.8014  185.8277 C   0  0  0  0  0  0  0  0  0  0  0  0
  153.6940  136.6572  190.0921 C   0  0  0  0  0  0  0  0  0  0  0  0
  152.3796  136.7984  190.5048 N   0  0  0  0  0  0  0  0  0  0  0  0
  151.9595  136.4067  191.7000 C   0  0  0  0  0  0  0  0  0  0  0  0
  152.8850  135.8409  192.5449 C   0  0  0  0  0  0  0  0  0  0  0  0
  154.1978  135.6796  192.1813 C   0  0  0  0  0  0  0  0  0  0  0  0
  154.6290  136.1008  190.9071 C   0  0  0  0  0  0  0  0  0  0  0  0
  156.0393  135.8954  190.5523 C   0  0  0  0  0  0  0  0  0  0  0  0
  156.6226  134.9638  191.4547 F   0  0  0  0  0  0  0  0  0  0  0  0
  156.2025  135.2145  189.3303 F   0  0  0  0  0  0  0  0  0  0  0  0
  156.8288  137.0105  190.6079 F   0  0  0  0  0  0  0  0  0  0  0  0
  156.7164  140.1125  183.4489 N   0  0  0  0  0  0  0  0  0  0  0  0
  158.0388  139.6222  183.1691 C   0  0  0  0  0  0  0  0  0  0  0  0
  158.5460  139.9819  181.8060 C   0  0  0  0  0  0  0  0  0  0  0  0
  158.3561  141.4622  181.5293 C   0  0  0  0  0  0  0  0  0  0  0  0
  156.8873  141.7421  181.5999 C   0  0  0  0  0  0  0  0  0  0  0  0
  156.2873  141.3729  182.9340 C   0  0  0  0  0  0  0  0  0  0  0  0
  152.6065  137.6842  183.9297 N   0  0  0  0  0  0  0  0  0  0  0  0
  152.0468  136.9683  184.4877 H   0  0  0  0  0  0  0  0  0  0  0  0
  150.6431  138.8111  180.3562 C   0  0  0  0  0  0  0  0  0  0  0  0
  151.9913  139.0312  180.4854 C   0  0  0  0  0  0  0  0  0  0  0  0
  152.6597  138.6772  181.6566 C   0  0  0  0  0  0  0  0  0  0  0  0
  152.0163  138.1015  182.7183 C   0  0  0  0  0  0  0  0  0  0  0  0
  150.6368  137.8997  182.5317 C   0  0  0  0  0  0  0  0  0  0  0  0
  149.9696  138.2383  181.3988 C   0  0  0  0  0  0  0  0  0  0  0  0
  148.8463  138.4223  178.7532 C   0  0  0  0  0  0  0  0  0  0  0  0
  149.9686  139.1584  179.1976 O   0  0  0  0  0  0  0  0  0  0  0  0
 36 37  1  0  0  0
 37 30  1  0  0  0
 30 31  2  0  0  0
 31 32  1  0  0  0
 32 33  2  0  0  0
 33 28  1  0  0  0
 28  1  1  0  0  0
  1  2  2  0  0  0
  2  3  1  0  0  0
  3  4  2  0  0  0
  4  5  1  0  0  0
  5  6  1  0  0  0
  6  7  1  0  0  0
  7  8  1  0  0  0
  8  9  1  0  0  0
  9 10  1  0  0  0
 10 11  1  0  0  0
  8 12  1  0  0  0
 12 13  2  0  0  0
 13 14  1  0  0  0
 14 15  2  0  0  0
 15 16  1  0  0  0
 16 17  2  0  0  0
 17 18  1  0  0  0
 18 19  1  0  0  0
 18 20  1  0  0  0
 18 21  1  0  0  0
  3 22  1  0  0  0
 22 23  1  0  0  0
 23 24  1  0  0  0
 24 25  1  0  0  0
 25 26  1  0  0  0
 26 27  1  0  0  0
 33 34  1  0  0  0
 34 35  2  0  0  0
 35 30  1  0  0  0
 11  1  1  0  0  0
 17 12  1  0  0  0
 27 22  1  0  0  0
 11  5  2  0  0  0
 28 29  1  0  0  0
M  END
> <minimizedAffinity>
-8.38956

> <CNNscore>
0.4974277318

> <CNNaffinity>
6.7595381737

> <CNN_VS>
3.3623816967

> <CNNaffinity_variance>
0.0328202136

$$$$
[H]c1nc(N2C([H])([H])C([H])([H])c3nc(N4C([H])([H])C([H])([H])C([H])([H])C([H])([H])C4([H])[H])nc(N([H])c4c([H])c([H])c(OC([H])([H])[H])c([H])c4[H])c3C([H])([H])C2([H])[H])c(C(F)(F)F)c([H])c1[H]


 37 41  0  0  0  0  0  0  0  0999 V2000
  154.6608  138.0648  184.6158 C   0  0  0  0  0  0  0  0  0  0  0  0
  155.6657  138.9311  184.4621 N   0  0  0  0  0  0  0  0  0  0  0  0
  155.7632  139.8891  183.5471 C   0  0  0  0  0  0  0  0  0  0  0  0
  154.7184  139.9849  182.6797 N   0  0  0  0  0  0  0  0  0  0  0  0
  153.6653  139.1618  182.7539 C   0  0  0  0  0  0  0  0  0  0  0  0
  152.6631  139.4384  181.6741 C   0  0  0  0  0  0  0  0  0  0  0  0
  152.2397  138.0613  181.0766 C   0  0  0  0  0  0  0  0  0  0  0  0
  151.2261  137.5061  181.9187 N   0  0  0  0  0  0  0  0  0  0  0  0
  151.2391  137.4299  183.3528 C   0  0  0  0  0  0  0  0  0  0  0  0
  152.5590  137.2102  184.0047 C   0  0  0  0  0  0  0  0  0  0  0  0
  153.6007  138.1928  183.7075 C   0  0  0  0  0  0  0  0  0  0  0  0
  150.0535  137.0056  181.3113 C   0  0  0  0  0  0  0  0  0  0  0  0
  149.9837  135.6349  181.1269 N   0  0  0  0  0  0  0  0  0  0  0  0
  148.9433  135.0421  180.5574 C   0  0  0  0  0  0  0  0  0  0  0  0
  147.9050  135.8422  180.1419 C   0  0  0  0  0  0  0  0  0  0  0  0
  147.9280  137.2043  180.3029 C   0  0  0  0  0  0  0  0  0  0  0  0
  149.0411  137.8196  180.9106 C   0  0  0  0  0  0  0  0  0  0  0  0
  149.0182  139.2786  181.0777 C   0  0  0  0  0  0  0  0  0  0  0  0
  149.8448  139.8802  180.0891 F   0  0  0  0  0  0  0  0  0  0  0  0
  147.7699  139.8465  180.7570 F   0  0  0  0  0  0  0  0  0  0  0  0
  149.4794  139.7410  182.2790 F   0  0  0  0  0  0  0  0  0  0  0  0
  156.8674  140.7767  183.4457 N   0  0  0  0  0  0  0  0  0  0  0  0
  157.9137  140.7055  184.4293 C   0  0  0  0  0  0  0  0  0  0  0  0
  159.2815  140.9841  183.8850 C   0  0  0  0  0  0  0  0  0  0  0  0
  159.2874  142.2558  183.0565 C   0  0  0  0  0  0  0  0  0  0  0  0
  158.3355  142.0494  181.9198 C   0  0  0  0  0  0  0  0  0  0  0  0
  156.9363  141.7270  182.3827 C   0  0  0  0  0  0  0  0  0  0  0  0
  154.7060  137.0861  185.6195 N   0  0  0  0  0  0  0  0  0  0  0  0
  154.8923  136.0896  185.2885 H   0  0  0  0  0  0  0  0  0  0  0  0
  154.0464  137.5385  189.7735 C   0  0  0  0  0  0  0  0  0  0  0  0
  155.2822  137.8241  189.2499 C   0  0  0  0  0  0  0  0  0  0  0  0
  155.5274  137.6743  187.8856 C   0  0  0  0  0  0  0  0  0  0  0  0
  154.5644  137.2428  187.0143 C   0  0  0  0  0  0  0  0  0  0  0  0
  153.3184  136.9644  187.6046 C   0  0  0  0  0  0  0  0  0  0  0  0
  153.0618  137.1043  188.9304 C   0  0  0  0  0  0  0  0  0  0  0  0
  152.7433  136.9733  191.7563 C   0  0  0  0  0  0  0  0  0  0  0  0
  153.7911  137.6837  191.1268 O   0  0  0  0  0  0  0  0  0  0  0  0
 36 37  1  0  0  0
 37 30  1  0  0  0
 30 31  2  0  0  0
 31 32  1  0  0  0
 32 33  2  0  0  0
 33 28  1  0  0  0
 28  1  1  0  0  0
  1  2  2  0  0  0
  2  3  1  0  0  0
  3  4  2  0  0  0
  4  5  1  0  0  0
  5  6  1  0  0  0
  6  7  1  0  0  0
  7  8  1  0  0  0
  8  9  1  0  0  0
  9 10  1  0  0  0
 10 11  1  0  0  0
  8 12  1  0  0  0
 12 13  2  0  0  0
 13 14  1  0  0  0
 14 15  2  0  0  0
 15 16  1  0  0  0
 16 17  2  0  0  0
 17 18  1  0  0  0
 18 19  1  0  0  0
 18 20  1  0  0  0
 18 21  1  0  0  0
  3 22  1  0  0  0
 22 23  1  0  0  0
 23 24  1  0  0  0
 24 25  1  0  0  0
 25 26  1  0  0  0
 26 27  1  0  0  0
 33 34  1  0  0  0
 34 35  2  0  0  0
 35 30  1  0  0  0
 11  1  1  0  0  0
 17 12  1  0  0  0
 27 22  1  0  0  0
 11  5  2  0  0  0
 28 29  1  0  0  0
M  END
> <minimizedAffinity>
-7.58487

> <CNNscore>
0.4397794306

> <CNNaffinity>
6.7287621498

> <CNN_VS>
2.9591712952

> <CNNaffinity_variance>
0.0127482042

$$$$
[H]c1nc(N2C([H])([H])C([H])([H])c3nc(N4C([H])([H])C([H])([H])C([H])([H])C([H])([H])C4([H])[H])nc(N([H])c4c([H])c([H])c(OC([H])([H])[H])c([H])c4[H])c3C([H])([H])C2([H])[H])c(C(F)(F)F)c([H])c1[H]


 37 41  0  0  0  0  0  0  0  0999 V2000
  155.3954  139.2517  184.2388 C   0  0  0  0  0  0  0  0  0  0  0  0
  154.4435  139.3539  183.3075 N   0  0  0  0  0  0  0  0  0  0  0  0
  153.2186  138.8425  183.3559 C   0  0  0  0  0  0  0  0  0  0  0  0
  152.9165  138.1408  184.4827 N   0  0  0  0  0  0  0  0  0  0  0  0
  153.8043  137.9834  185.4721 C   0  0  0  0  0  0  0  0  0  0  0  0
  153.2547  137.1466  186.5878 C   0  0  0  0  0  0  0  0  0  0  0  0
  154.3625  136.1219  186.9822 C   0  0  0  0  0  0  0  0  0  0  0  0
  155.2700  136.7728  187.8753 N   0  0  0  0  0  0  0  0  0  0  0  0
  155.8486  138.0782  187.7208 C   0  0  0  0  0  0  0  0  0  0  0  0
  156.1645  138.5161  186.3338 C   0  0  0  0  0  0  0  0  0  0  0  0
  155.0502  138.5245  185.3866 C   0  0  0  0  0  0  0  0  0  0  0  0
  155.6265  136.1061  189.0680 C   0  0  0  0  0  0  0  0  0  0  0  0
  156.5738  135.1016  188.9610 N   0  0  0  0  0  0  0  0  0  0  0  0
  156.9845  134.3922  190.0033 C   0  0  0  0  0  0  0  0  0  0  0  0
  156.4328  134.6848  191.2283 C   0  0  0  0  0  0  0  0  0  0  0  0
  155.4918  135.6706  191.3846 C   0  0  0  0  0  0  0  0  0  0  0  0
  155.0656  136.4163  190.2669 C   0  0  0  0  0  0  0  0  0  0  0  0
  154.0681  137.4727  190.4809 C   0  0  0  0  0  0  0  0  0  0  0  0
  153.7122  137.5146  191.8572 F   0  0  0  0  0  0  0  0  0  0  0  0
  154.5957  138.7669  190.3068 F   0  0  0  0  0  0  0  0  0  0  0  0
  152.8932  137.3203  189.7980 F   0  0  0  0  0  0  0  0  0  0  0  0
  152.2563  138.9945  182.3223 N   0  0  0  0  0  0  0  0  0  0  0  0
  152.4690  139.9946  181.3114 C   0  0  0  0  0  0  0  0  0  0  0  0
  151.9845  139.5978  179.9504 C   0  0  0  0  0  0  0  0  0  0  0  0
  150.5649  139.0643  180.0137 C   0  0  0  0  0  0  0  0  0  0  0  0
  150.5825  137.8602  180.9028 C   0  0  0  0  0  0  0  0  0  0  0  0
  151.0939  138.1665  182.2886 C   0  0  0  0  0  0  0  0  0  0  0  0
  156.6582  139.8285  184.0389 N   0  0  0  0  0  0  0  0  0  0  0  0
  157.3643  139.6843  184.8249 H   0  0  0  0  0  0  0  0  0  0  0  0
  158.2594  141.8458  180.6830 C   0  0  0  0  0  0  0  0  0  0  0  0
  157.2965  142.4588  181.4446 C   0  0  0  0  0  0  0  0  0  0  0  0
  156.7465  141.8113  182.5501 C   0  0  0  0  0  0  0  0  0  0  0  0
  157.1329  140.5534  182.9257 C   0  0  0  0  0  0  0  0  0  0  0  0
  158.1212  139.9731  182.1104 C   0  0  0  0  0  0  0  0  0  0  0  0
  158.6676  140.5883  181.0305 C   0  0  0  0  0  0  0  0  0  0  0  0
  159.5110  143.7017  179.7144 C   0  0  0  0  0  0  0  0  0  0  0  0
  158.8130  142.4792  179.5830 O   0  0  0  0  0  0  0  0  0  0  0  0
 36 37  1  0  0  0
 37 30  1  0  0  0
 30 31  2  0  0  0
 31 32  1  0  0  0
 32 33  2  0  0  0
 33 28  1  0  0  0
 28  1  1  0  0  0
  1  2  2  0  0  0
  2  3  1  0  0  0
  3  4  2  0  0  0
  4  5  1  0  0  0
  5  6  1  0  0  0
  6  7  1  0  0  0
  7  8  1  0  0  0
  8  9  1  0  0  0
  9 10  1  0  0  0
 10 11  1  0  0  0
  8 12  1  0  0  0
 12 13  2  0  0  0
 13 14  1  0  0  0
 14 15  2  0  0  0
 15 16  1  0  0  0
 16 17  2  0  0  0
 17 18  1  0  0  0
 18 19  1  0  0  0
 18 20  1  0  0  0
 18 21  1  0  0  0
  3 22  1  0  0  0
 22 23  1  0  0  0
 23 24  1  0  0  0
 24 25  1  0  0  0
 25 26  1  0  0  0
 26 27  1  0  0  0
 33 34  1  0  0  0
 34 35  2  0  0  0
 35 30  1  0  0  0
 11  1  1  0  0  0
 17 12  1  0  0  0
 27 22  1  0  0  0
 11  5  2  0  0  0
 28 29  1  0  0  0
M  END
> <minimizedAffinity>
-9.02643

> <CNNscore>
0.3832074106

> <CNNaffinity>
6.7276763916

> <CNN_VS>
2.5780954361

> <CNNaffinity_variance>
0.0304954294

$$$$
[H]c1nc(N2C([H])([H])C([H])([H])c3nc(N4C([H])([H])C([H])([H])C([H])([H])C([H])([H])C4([H])[H])nc(N([H])c4c([H])c([H])c(OC([H])([H])[H])c([H])c4[H])c3C([H])([H])C2([H])[H])c(C(F)(F)F)c([H])c1[H]


 37 41  0  0  0  0  0  0  0  0999 V2000
  153.7847  139.4328  183.3371 C   0  0  0  0  0  0  0  0  0  0  0  0
  154.2905  139.3081  184.5669 N   0  0  0  0  0  0  0  0  0  0  0  0
  153.9133  138.4450  185.5035 C   0  0  0  0  0  0  0  0  0  0  0  0
  152.9004  137.6039  185.1570 N   0  0  0  0  0  0  0  0  0  0  0  0
  152.3293  137.6521  183.9473 C   0  0  0  0  0  0  0  0  0  0  0  0
  151.2178  136.6553  183.8144 C   0  0  0  0  0  0  0  0  0  0  0  0
  150.0188  137.3912  183.1408 C   0  0  0  0  0  0  0  0  0  0  0  0
  150.2342  137.3866  181.7272 N   0  0  0  0  0  0  0  0  0  0  0  0
  151.4517  137.7088  181.0367 C   0  0  0  0  0  0  0  0  0  0  0  0
  152.3058  138.7706  181.6353 C   0  0  0  0  0  0  0  0  0  0  0  0
  152.7450  138.5500  183.0128 C   0  0  0  0  0  0  0  0  0  0  0  0
  149.1684  136.9887  180.8905 C   0  0  0  0  0  0  0  0  0  0  0  0
  149.2101  135.6938  180.4016 N   0  0  0  0  0  0  0  0  0  0  0  0
  148.2775  135.2029  179.5969 C   0  0  0  0  0  0  0  0  0  0  0  0
  147.2378  136.0327  179.2486 C   0  0  0  0  0  0  0  0  0  0  0  0
  147.1526  137.3226  179.7075 C   0  0  0  0  0  0  0  0  0  0  0  0
  148.1519  137.8297  180.5626 C   0  0  0  0  0  0  0  0  0  0  0  0
  148.0141  139.2106  181.0433 C   0  0  0  0  0  0  0  0  0  0  0  0
  146.8509  139.7960  180.4715 F   0  0  0  0  0  0  0  0  0  0  0  0
  147.6981  139.2840  182.4139 F   0  0  0  0  0  0  0  0  0  0  0  0
  149.0461  140.0500  180.7268 F   0  0  0  0  0  0  0  0  0  0  0  0
  154.5016  138.3708  186.7941 N   0  0  0  0  0  0  0  0  0  0  0  0
  153.6976  138.6743  187.9469 C   0  0  0  0  0  0  0  0  0  0  0  0
  154.0273  137.8500  189.1537 C   0  0  0  0  0  0  0  0  0  0  0  0
  155.5222  137.8465  189.4169 C   0  0  0  0  0  0  0  0  0  0  0  0
  156.1833  137.2488  188.2142 C   0  0  0  0  0  0  0  0  0  0  0  0
  155.8723  138.0012  186.9442 C   0  0  0  0  0  0  0  0  0  0  0  0
  154.2712  140.4116  182.4582 N   0  0  0  0  0  0  0  0  0  0  0  0
  153.6601  140.6184  181.6091 H   0  0  0  0  0  0  0  0  0  0  0  0
  157.6742  142.9128  182.7016 C   0  0  0  0  0  0  0  0  0  0  0  0
  157.8375  141.5511  182.6566 C   0  0  0  0  0  0  0  0  0  0  0  0
  156.7316  140.7051  182.5854 C   0  0  0  0  0  0  0  0  0  0  0  0
  155.4491  141.1816  182.5567 C   0  0  0  0  0  0  0  0  0  0  0  0
  155.3406  142.5831  182.6057 C   0  0  0  0  0  0  0  0  0  0  0  0
  156.4058  143.4220  182.6754 C   0  0  0  0  0  0  0  0  0  0  0  0
  158.9932  144.7475  181.7834 C   0  0  0  0  0  0  0  0  0  0  0  0
  158.7651  143.7630  182.7721 O   0  0  0  0  0  0  0  0  0  0  0  0
 36 37  1  0  0  0
 37 30  1  0  0  0
 30 31  2  0  0  0
 31 32  1  0  0  0
 32 33  2  0  0  0
 33 28  1  0  0  0
 28  1  1  0  0  0
  1  2  2  0  0  0
  2  3  1  0  0  0
  3  4  2  0  0  0
  4  5  1  0  0  0
  5  6  1  0  0  0
  6  7  1  0  0  0
  7  8  1  0  0  0
  8  9  1  0  0  0
  9 10  1  0  0  0
 10 11  1  0  0  0
  8 12  1  0  0  0
 12 13  2  0  0  0
 13 14  1  0  0  0
 14 15  2  0  0  0
 15 16  1  0  0  0
 16 17  2  0  0  0
 17 18  1  0  0  0
 18 19  1  0  0  0
 18 20  1  0  0  0
 18 21  1  0  0  0
  3 22  1  0  0  0
 22 23  1  0  0  0
 23 24  1  0  0  0
 24 25  1  0  0  0
 25 26  1  0  0  0
 26 27  1  0  0  0
 33 34  1  0  0  0
 34 35  2  0  0  0
 35 30  1  0  0  0
 11  1  1  0  0  0
 17 12  1  0  0  0
 27 22  1  0  0  0
 11  5  2  0  0  0
 28 29  1  0  0  0
M  END
> <minimizedAffinity>
-8.31477

> <CNNscore>
0.3758335114

> <CNNaffinity>
6.6961960793

> <CNN_VS>
2.5166549683

> <CNNaffinity_variance>
0.0531541295

$$$$
[H]c1nc(N2C([H])([H])C([H])([H])c3nc(N4C([H])([H])C([H])([H])C([H])([H])C([H])([H])C4([H])[H])nc(N([H])c4c([H])c([H])c(OC([H])([H])[H])c([H])c4[H])c3C([H])([H])C2([H])[H])c(C(F)(F)F)c([H])c1[H]


 37 41  0  0  0  0  0  0  0  0999 V2000
  154.0939  138.2796  184.6580 C   0  0  0  0  0  0  0  0  0  0  0  0
  154.0938  138.1491  185.9872 N   0  0  0  0  0  0  0  0  0  0  0  0
  153.1018  137.6980  186.7468 C   0  0  0  0  0  0  0  0  0  0  0  0
  151.9699  137.3338  186.0838 N   0  0  0  0  0  0  0  0  0  0  0  0
  151.8742  137.4279  184.7519 C   0  0  0  0  0  0  0  0  0  0  0  0
  150.5245  137.0027  184.2576 C   0  0  0  0  0  0  0  0  0  0  0  0
  150.0621  138.0650  183.2133 C   0  0  0  0  0  0  0  0  0  0  0  0
  150.6601  137.7393  181.9559 N   0  0  0  0  0  0  0  0  0  0  0  0
  152.0316  137.3871  181.7157 C   0  0  0  0  0  0  0  0  0  0  0  0
  153.0578  138.0565  182.5608 C   0  0  0  0  0  0  0  0  0  0  0  0
  152.9138  137.8937  184.0071 C   0  0  0  0  0  0  0  0  0  0  0  0
  149.8341  137.7119  180.8108 C   0  0  0  0  0  0  0  0  0  0  0  0
  148.8892  136.7015  180.7482 N   0  0  0  0  0  0  0  0  0  0  0  0
  148.0622  136.5584  179.7216 C   0  0  0  0  0  0  0  0  0  0  0  0
  148.1670  137.4622  178.6906 C   0  0  0  0  0  0  0  0  0  0  0  0
  149.0866  138.4799  178.7070 C   0  0  0  0  0  0  0  0  0  0  0  0
  149.9586  138.6189  179.8058 C   0  0  0  0  0  0  0  0  0  0  0  0
  150.9174  139.7313  179.7904 C   0  0  0  0  0  0  0  0  0  0  0  0
  152.2150  139.2325  179.4905 F   0  0  0  0  0  0  0  0  0  0  0  0
  150.7178  140.6107  178.7085 F   0  0  0  0  0  0  0  0  0  0  0  0
  151.0452  140.4148  180.9678 F   0  0  0  0  0  0  0  0  0  0  0  0
  153.1759  137.5864  188.1608 N   0  0  0  0  0  0  0  0  0  0  0  0
  152.4082  136.5663  188.8223 C   0  0  0  0  0  0  0  0  0  0  0  0
  153.0844  135.9770  190.0223 C   0  0  0  0  0  0  0  0  0  0  0  0
  153.6019  137.0666  190.9436 C   0  0  0  0  0  0  0  0  0  0  0  0
  154.5930  137.8733  190.1640 C   0  0  0  0  0  0  0  0  0  0  0  0
  154.0000  138.4756  188.9144 C   0  0  0  0  0  0  0  0  0  0  0  0
  155.2136  138.7954  183.9889 N   0  0  0  0  0  0  0  0  0  0  0  0
  155.9703  138.0878  183.7362 H   0  0  0  0  0  0  0  0  0  0  0  0
  156.1981  142.7142  182.7364 C   0  0  0  0  0  0  0  0  0  0  0  0
  154.9722  142.4736  183.3042 C   0  0  0  0  0  0  0  0  0  0  0  0
  154.6204  141.1891  183.7168 C   0  0  0  0  0  0  0  0  0  0  0  0
  155.4655  140.1216  183.5794 C   0  0  0  0  0  0  0  0  0  0  0  0
  156.7068  140.4252  182.9916 C   0  0  0  0  0  0  0  0  0  0  0  0
  157.0661  141.6693  182.5838 C   0  0  0  0  0  0  0  0  0  0  0  0
  157.9164  144.3604  182.2014 C   0  0  0  0  0  0  0  0  0  0  0  0
  156.5586  143.9858  182.3231 O   0  0  0  0  0  0  0  0  0  0  0  0
 36 37  1  0  0  0
 37 30  1  0  0  0
 30 31  2  0  0  0
 31 32  1  0  0  0
 32 33  2  0  0  0
 33 28  1  0  0  0
 28  1  1  0  0  0
  1  2  2  0  0  0
  2  3  1  0  0  0
  3  4  2  0  0  0
  4  5  1  0  0  0
  5  6  1  0  0  0
  6  7  1  0  0  0
  7  8  1  0  0  0
  8  9  1  0  0  0
  9 10  1  0  0  0
 10 11  1  0  0  0
  8 12  1  0  0  0
 12 13  2  0  0  0
 13 14  1  0  0  0
 14 15  2  0  0  0
 15 16  1  0  0  0
 16 17  2  0  0  0
 17 18  1  0  0  0
 18 19  1  0  0  0
 18 20  1  0  0  0
 18 21  1  0  0  0
  3 22  1  0  0  0
 22 23  1  0  0  0
 23 24  1  0  0  0
 24 25  1  0  0  0
 25 26  1  0  0  0
 26 27  1  0  0  0
 33 34  1  0  0  0
 34 35  2  0  0  0
 35 30  1  0  0  0
 11  1  1  0  0  0
 17 12  1  0  0  0
 27 22  1  0  0  0
 11  5  2  0  0  0
 28 29  1  0  0  0
M  END
> <minimizedAffinity>
-8.38308

> <CNNscore>
0.3657861352

> <CNNaffinity>
6.6157927513

> <CNN_VS>
2.4199652672

> <CNNaffinity_variance>
0.0522075593

$$$$
[H]c1nc(N2C([H])([H])C([H])([H])c3nc(N4C([H])([H])C([H])([H])C([H])([H])C([H])([H])C4([H])[H])nc(N([H])c4c([H])c([H])c(OC([H])([H])[H])c([H])c4[H])c3C([H])([H])C2([H])[H])c(C(F)(F)F)c([H])c1[H]


 37 41  0  0  0  0  0  0  0  0999 V2000
  155.3037  139.2294  184.5201 C   0  0  0  0  0  0  0  0  0  0  0  0
  154.3792  139.3647  183.5657 N   0  0  0  0  0  0  0  0  0  0  0  0
  153.2204  138.7214  183.4774 C   0  0  0  0  0  0  0  0  0  0  0  0
  152.9623  137.8314  184.4747 N   0  0  0  0  0  0  0  0  0  0  0  0
  153.8275  137.6264  185.4753 C   0  0  0  0  0  0  0  0  0  0  0  0
  153.3397  136.5783  186.4295 C   0  0  0  0  0  0  0  0  0  0  0  0
  154.5438  135.6332  186.7287 C   0  0  0  0  0  0  0  0  0  0  0  0
  155.3387  136.2391  187.7514 N   0  0  0  0  0  0  0  0  0  0  0  0
  155.7681  137.6081  187.8159 C   0  0  0  0  0  0  0  0  0  0  0  0
  156.0794  138.2790  186.5243 C   0  0  0  0  0  0  0  0  0  0  0  0
  155.0050  138.3066  185.5323 C   0  0  0  0  0  0  0  0  0  0  0  0
  155.7282  135.4454  188.8526 C   0  0  0  0  0  0  0  0  0  0  0  0
  154.9331  135.5168  189.9842 N   0  0  0  0  0  0  0  0  0  0  0  0
  155.1975  134.8316  191.0882 C   0  0  0  0  0  0  0  0  0  0  0  0
  156.3112  134.0251  191.0842 C   0  0  0  0  0  0  0  0  0  0  0  0
  157.1290  133.9212  189.9878 C   0  0  0  0  0  0  0  0  0  0  0  0
  156.8344  134.6558  188.8214 C   0  0  0  0  0  0  0  0  0  0  0  0
  157.7271  134.5035  187.6652 C   0  0  0  0  0  0  0  0  0  0  0  0
  158.7764  133.6017  187.9941 F   0  0  0  0  0  0  0  0  0  0  0  0
  157.1213  133.8211  186.5923 F   0  0  0  0  0  0  0  0  0  0  0  0
  158.3413  135.6490  187.2406 F   0  0  0  0  0  0  0  0  0  0  0  0
  152.2835  138.9195  182.4284 N   0  0  0  0  0  0  0  0  0  0  0  0
  152.5222  139.9608  181.4660 C   0  0  0  0  0  0  0  0  0  0  0  0
  152.0697  139.6230  180.0782 C   0  0  0  0  0  0  0  0  0  0  0  0
  150.6479  139.0914  180.0851 C   0  0  0  0  0  0  0  0  0  0  0  0
  150.6420  137.8509  180.9228 C   0  0  0  0  0  0  0  0  0  0  0  0
  151.1207  138.0971  182.3321 C   0  0  0  0  0  0  0  0  0  0  0  0
  156.4978  139.9636  184.4701 N   0  0  0  0  0  0  0  0  0  0  0  0
  157.0370  140.0363  185.3872 H   0  0  0  0  0  0  0  0  0  0  0  0
  158.4553  141.6893  181.1406 C   0  0  0  0  0  0  0  0  0  0  0  0
  157.5698  142.4425  181.8697 C   0  0  0  0  0  0  0  0  0  0  0  0
  156.9051  141.8941  182.9657 C   0  0  0  0  0  0  0  0  0  0  0  0
  157.0992  140.5992  183.3636 C   0  0  0  0  0  0  0  0  0  0  0  0
  158.0158  139.8740  182.5811 C   0  0  0  0  0  0  0  0  0  0  0  0
  158.6717  140.3913  181.5109 C   0  0  0  0  0  0  0  0  0  0  0  0
  159.3571  143.6132  179.9429 C   0  0  0  0  0  0  0  0  0  0  0  0
  159.1215  142.2233  180.0502 O   0  0  0  0  0  0  0  0  0  0  0  0
 36 37  1  0  0  0
 37 30  1  0  0  0
 30 31  2  0  0  0
 31 32  1  0  0  0
 32 33  2  0  0  0
 33 28  1  0  0  0
 28  1  1  0  0  0
  1  2  2  0  0  0
  2  3  1  0  0  0
  3  4  2  0  0  0
  4  5  1  0  0  0
  5  6  1  0  0  0
  6  7  1  0  0  0
  7  8  1  0  0  0
  8  9  1  0  0  0
  9 10  1  0  0  0
 10 11  1  0  0  0
  8 12  1  0  0  0
 12 13  2  0  0  0
 13 14  1  0  0  0
 14 15  2  0  0  0
 15 16  1  0  0  0
 16 17  2  0  0  0
 17 18  1  0  0  0
 18 19  1  0  0  0
 18 20  1  0  0  0
 18 21  1  0  0  0
  3 22  1  0  0  0
 22 23  1  0  0  0
 23 24  1  0  0  0
 24 25  1  0  0  0
 25 26  1  0  0  0
 26 27  1  0  0  0
 33 34  1  0  0  0
 34 35  2  0  0  0
 35 30  1  0  0  0
 11  1  1  0  0  0
 17 12  1  0  0  0
 27 22  1  0  0  0
 11  5  2  0  0  0
 28 29  1  0  0  0
M  END
> <minimizedAffinity>
-8.37997

> <CNNscore>
0.3593662977

> <CNNaffinity>
6.6238083839

> <CNN_VS>
2.3803734779

> <CNNaffinity_variance>
0.0668383837

$$$$
[H]c1nc(N2C([H])([H])C([H])([H])c3nc(N4C([H])([H])C([H])([H])C([H])([H])C([H])([H])C4([H])[H])nc(N([H])c4c([H])c([H])c(OC([H])([H])[H])c([H])c4[H])c3C([H])([H])C2([H])[H])c(C(F)(F)F)c([H])c1[H]


 37 41  0  0  0  0  0  0  0  0999 V2000
  154.2247  138.1319  185.2150 C   0  0  0  0  0  0  0  0  0  0  0  0
  155.2551  138.9806  185.1735 N   0  0  0  0  0  0  0  0  0  0  0  0
  155.5159  139.8769  184.2285 C   0  0  0  0  0  0  0  0  0  0  0  0
  154.6278  139.9226  183.1977 N   0  0  0  0  0  0  0  0  0  0  0  0
  153.5635  139.1121  183.1502 C   0  0  0  0  0  0  0  0  0  0  0  0
  152.7550  139.3243  181.9060 C   0  0  0  0  0  0  0  0  0  0  0  0
  152.4121  137.9140  181.3348 C   0  0  0  0  0  0  0  0  0  0  0  0
  151.2660  137.4202  182.0331 N   0  0  0  0  0  0  0  0  0  0  0  0
  151.0442  137.4367  183.4519 C   0  0  0  0  0  0  0  0  0  0  0  0
  152.2367  137.2518  184.3233 C   0  0  0  0  0  0  0  0  0  0  0  0
  153.3288  138.2071  184.1393 C   0  0  0  0  0  0  0  0  0  0  0  0
  150.2000  136.8884  181.2748 C   0  0  0  0  0  0  0  0  0  0  0  0
  150.2097  135.5203  181.0603 N   0  0  0  0  0  0  0  0  0  0  0  0
  149.2737  134.9005  180.3546 C   0  0  0  0  0  0  0  0  0  0  0  0
  148.2637  135.6690  179.8252 C   0  0  0  0  0  0  0  0  0  0  0  0
  148.2108  137.0272  180.0106 C   0  0  0  0  0  0  0  0  0  0  0  0
  149.2133  137.6714  180.7635 C   0  0  0  0  0  0  0  0  0  0  0  0
  149.1102  139.1245  180.9507 C   0  0  0  0  0  0  0  0  0  0  0  0
  147.8155  139.5609  180.5562 F   0  0  0  0  0  0  0  0  0  0  0  0
  149.1127  139.5029  182.3073 F   0  0  0  0  0  0  0  0  0  0  0  0
  149.9925  139.8757  180.2248 F   0  0  0  0  0  0  0  0  0  0  0  0
  156.6361  140.7498  184.2534 N   0  0  0  0  0  0  0  0  0  0  0  0
  157.8521  140.3079  184.8807 C   0  0  0  0  0  0  0  0  0  0  0  0
  159.0976  140.8053  184.2128 C   0  0  0  0  0  0  0  0  0  0  0  0
  159.0249  142.3026  183.9745 C   0  0  0  0  0  0  0  0  0  0  0  0
  157.8506  142.5532  183.0805 C   0  0  0  0  0  0  0  0  0  0  0  0
  156.5550  142.0478  183.6650 C   0  0  0  0  0  0  0  0  0  0  0  0
  154.0899  137.2197  186.2719 N   0  0  0  0  0  0  0  0  0  0  0  0
  153.0918  137.0255  186.5933 H   0  0  0  0  0  0  0  0  0  0  0  0
  157.0135  134.8659  188.2231 C   0  0  0  0  0  0  0  0  0  0  0  0
  156.8431  136.1763  188.5930 C   0  0  0  0  0  0  0  0  0  0  0  0
  155.8927  136.9754  187.9590 C   0  0  0  0  0  0  0  0  0  0  0  0
  155.0947  136.5013  186.9534 C   0  0  0  0  0  0  0  0  0  0  0  0
  155.3121  135.1535  186.6150 C   0  0  0  0  0  0  0  0  0  0  0  0
  156.2328  134.3609  187.2211 C   0  0  0  0  0  0  0  0  0  0  0  0
  159.3282  134.1597  188.5273 C   0  0  0  0  0  0  0  0  0  0  0  0
  157.9542  134.0626  188.8458 O   0  0  0  0  0  0  0  0  0  0  0  0
 36 37  1  0  0  0
 37 30  1  0  0  0
 30 31  2  0  0  0
 31 32  1  0  0  0
 32 33  2  0  0  0
 33 28  1  0  0  0
 28  1  1  0  0  0
  1  2  2  0  0  0
  2  3  1  0  0  0
  3  4  2  0  0  0
  4  5  1  0  0  0
  5  6  1  0  0  0
  6  7  1  0  0  0
  7  8  1  0  0  0
  8  9  1  0  0  0
  9 10  1  0  0  0
 10 11  1  0  0  0
  8 12  1  0  0  0
 12 13  2  0  0  0
 13 14  1  0  0  0
 14 15  2  0  0  0
 15 16  1  0  0  0
 16 17  2  0  0  0
 17 18  1  0  0  0
 18 19  1  0  0  0
 18 20  1  0  0  0
 18 21  1  0  0  0
  3 22  1  0  0  0
 22 23  1  0  0  0
 23 24  1  0  0  0
 24 25  1  0  0  0
 25 26  1  0  0  0
 26 27  1  0  0  0
 33 34  1  0  0  0
 34 35  2  0  0  0
 35 30  1  0  0  0
 11  1  1  0  0  0
 17 12  1  0  0  0
 27 22  1  0  0  0
 11  5  2  0  0  0
 28 29  1  0  0  0
M  END
> <minimizedAffinity>
-7.51170

> <CNNscore>
0.3409116864

> <CNNaffinity>
6.5342378616

> <CNN_VS>
2.2275979519

> <CNNaffinity_variance>
0.0275811367

$$$$
[H]O[C@@]1([H])C([H])([H])N([H])[C@]([H])(O[H])C([H])([H])[C@@]1([H])N([H])C(=O)N([H])c1nc2c([H])c([H])c(-c3c([H])c([H])c([H])c(C(F)(F)F)c3[H])c([H])c2s1


 36 39  0  0  0  0  0  0  0  0999 V2000
  153.3694  137.4306  186.0182 C   0  0  0  0  0  0  0  0  0  0  0  0
  153.1373  138.1463  184.9390 N   0  0  0  0  0  0  0  0  0  0  0  0
  154.0723  138.9075  184.4288 C   0  0  0  0  0  0  0  0  0  0  0  0
  153.9447  139.7281  183.2972 C   0  0  0  0  0  0  0  0  0  0  0  0
  154.9760  140.4984  182.8530 C   0  0  0  0  0  0  0  0  0  0  0  0
  156.2249  140.5195  183.4995 C   0  0  0  0  0  0  0  0  0  0  0  0
  156.3522  139.7174  184.6058 C   0  0  0  0  0  0  0  0  0  0  0  0
  155.2808  138.9231  185.0624 C   0  0  0  0  0  0  0  0  0  0  0  0
  154.9987  137.8467  186.3495 S   0  0  0  0  0  0  0  0  0  0  0  0
  150.2606  135.5751  187.1497 N   0  0  0  0  0  0  0  0  0  0  0  0
  151.1341  136.3592  186.5029 C   0  0  0  0  0  0  0  0  0  0  0  0
  150.7539  137.1221  185.4781 O   0  0  0  0  0  0  0  0  0  0  0  0
  152.5342  136.5454  186.7482 N   0  0  0  0  0  0  0  0  0  0  0  0
  150.7643  135.0441  188.0160 H   0  0  0  0  0  0  0  0  0  0  0  0
  152.9505  135.9871  187.5115 H   0  0  0  0  0  0  0  0  0  0  0  0
  147.0496  138.3591  186.3501 O   0  0  0  0  0  0  0  0  0  0  0  0
  147.7605  137.4592  187.1041 C   0  0  0  0  0  0  0  0  0  0  0  0
  148.0678  136.2466  186.2520 C   0  0  0  0  0  0  0  0  0  0  0  0
  148.8842  135.2377  187.0386 C   0  0  0  0  0  0  0  0  0  0  0  0
  148.1945  134.9840  188.3674 C   0  0  0  0  0  0  0  0  0  0  0  0
  148.8468  134.0820  189.1578 O   0  0  0  0  0  0  0  0  0  0  0  0
  147.8768  136.2452  189.0963 C   0  0  0  0  0  0  0  0  0  0  0  0
  146.9695  137.0199  188.2286 N   0  0  0  0  0  0  0  0  0  0  0  0
  147.6722  138.9017  185.8047 H   0  0  0  0  0  0  0  0  0  0  0  0
  148.4444  133.1852  189.2454 H   0  0  0  0  0  0  0  0  0  0  0  0
  146.2705  136.3254  187.8704 H   0  0  0  0  0  0  0  0  0  0  0  0
  157.2830  141.4015  183.0150 C   0  0  0  0  0  0  0  0  0  0  0  0
  157.2793  142.0439  181.8093 C   0  0  0  0  0  0  0  0  0  0  0  0
  158.3946  142.7990  181.4575 C   0  0  0  0  0  0  0  0  0  0  0  0
  159.4606  142.8941  182.3001 C   0  0  0  0  0  0  0  0  0  0  0  0
  159.4726  142.2566  183.5152 C   0  0  0  0  0  0  0  0  0  0  0  0
  158.3803  141.5071  183.8771 C   0  0  0  0  0  0  0  0  0  0  0  0
  160.6134  142.3332  184.4708 C   0  0  0  0  0  0  0  0  0  0  0  0
  161.6207  141.5116  184.0020 F   0  0  0  0  0  0  0  0  0  0  0  0
  160.1756  141.8671  185.7158 F   0  0  0  0  0  0  0  0  0  0  0  0
  161.0715  143.6387  184.6391 F   0  0  0  0  0  0  0  0  0  0  0  0
 16 17  1  0  0  0
 17 18  1  0  0  0
 18 19  1  0  0  0
 19 10  1  0  0  0
 10 11  1  0  0  0
 11 12  2  0  0  0
 11 13  1  0  0  0
 13  1  1  0  0  0
  1  2  2  0  0  0
  2  3  1  0  0  0
  3  4  2  0  0  0
  4  5  1  0  0  0
  5  6  2  0  0  0
  6  7  1  0  0  0
  7  8  2  0  0  0
  8  9  1  0  0  0
  6 27  1  0  0  0
 27 28  2  0  0  0
 28 29  1  0  0  0
 29 30  2  0  0  0
 30 31  1  0  0  0
 31 32  2  0  0  0
 31 33  1  0  0  0
 33 34  1  0  0  0
 33 35  1  0  0  0
 33 36  1  0  0  0
 19 20  1  0  0  0
 20 21  1  0  0  0
 20 22  1  0  0  0
 22 23  1  0  0  0
 23 17  1  0  0  0
  9  1  1  0  0  0
 32 27  1  0  0  0
  8  3  1  0  0  0
 16 24  1  0  0  0
 10 14  1  0  0  0
 13 15  1  0  0  0
 21 25  1  0  0  0
 23 26  1  0  0  0
M  END
> <minimizedAffinity>
-8.33631

> <CNNscore>
0.5489016771

> <CNNaffinity>
5.7609882355

> <CNN_VS>
3.1622161865

> <CNNaffinity_variance>
0.5129054785

$$$$
[H]O[C@@]1([H])C([H])([H])N([H])[C@]([H])(O[H])C([H])([H])[C@@]1([H])N([H])C(=O)N([H])c1nc2c([H])c([H])c(-c3c([H])c([H])c([H])c(C(F)(F)F)c3[H])c([H])c2s1


 36 39  0  0  0  0  0  0  0  0999 V2000
  153.9054  137.1444  186.9140 C   0  0  0  0  0  0  0  0  0  0  0  0
  153.5647  137.9088  185.8990 N   0  0  0  0  0  0  0  0  0  0  0  0
  154.4453  138.6906  185.3269 C   0  0  0  0  0  0  0  0  0  0  0  0
  154.2036  139.5621  184.2534 C   0  0  0  0  0  0  0  0  0  0  0  0
  155.1870  140.3498  183.7370 C   0  0  0  0  0  0  0  0  0  0  0  0
  156.4977  140.3391  184.2471 C   0  0  0  0  0  0  0  0  0  0  0  0
  156.7365  139.4873  185.2963 C   0  0  0  0  0  0  0  0  0  0  0  0
  155.7143  138.6751  185.8282 C   0  0  0  0  0  0  0  0  0  0  0  0
  155.5635  137.5418  187.0883 S   0  0  0  0  0  0  0  0  0  0  0  0
  151.0307  134.9303  188.0194 N   0  0  0  0  0  0  0  0  0  0  0  0
  151.8338  135.7654  187.3458 C   0  0  0  0  0  0  0  0  0  0  0  0
  151.4560  136.3069  186.1879 O   0  0  0  0  0  0  0  0  0  0  0  0
  153.1466  136.2284  187.6882 N   0  0  0  0  0  0  0  0  0  0  0  0
  151.5099  134.6160  188.9981 H   0  0  0  0  0  0  0  0  0  0  0  0
  153.5567  135.8584  188.5615 H   0  0  0  0  0  0  0  0  0  0  0  0
  147.2469  136.8037  188.9546 O   0  0  0  0  0  0  0  0  0  0  0  0
  148.2463  135.8737  189.0963 C   0  0  0  0  0  0  0  0  0  0  0  0
  148.6219  135.3511  187.7265 C   0  0  0  0  0  0  0  0  0  0  0  0
  149.7501  134.3418  187.8339 C   0  0  0  0  0  0  0  0  0  0  0  0
  149.3800  133.3085  188.8833 C   0  0  0  0  0  0  0  0  0  0  0  0
  150.3300  132.3438  189.0586 O   0  0  0  0  0  0  0  0  0  0  0  0
  148.9622  133.9284  190.1733 C   0  0  0  0  0  0  0  0  0  0  0  0
  147.7772  134.7572  189.8816 N   0  0  0  0  0  0  0  0  0  0  0  0
  147.6404  137.6832  188.7283 H   0  0  0  0  0  0  0  0  0  0  0  0
  150.1335  131.4465  188.6981 H   0  0  0  0  0  0  0  0  0  0  0  0
  147.1734  134.1664  189.2607 H   0  0  0  0  0  0  0  0  0  0  0  0
  157.5041  141.2403  183.6929 C   0  0  0  0  0  0  0  0  0  0  0  0
  157.4452  141.8183  182.4565 C   0  0  0  0  0  0  0  0  0  0  0  0
  158.5175  142.6022  182.0398 C   0  0  0  0  0  0  0  0  0  0  0  0
  159.5963  142.7877  182.8504 C   0  0  0  0  0  0  0  0  0  0  0  0
  159.6635  142.2154  184.0959 C   0  0  0  0  0  0  0  0  0  0  0  0
  158.6142  141.4385  184.5217 C   0  0  0  0  0  0  0  0  0  0  0  0
  160.8203  142.3914  185.0185 C   0  0  0  0  0  0  0  0  0  0  0  0
  160.4239  141.9974  186.2823 F   0  0  0  0  0  0  0  0  0  0  0  0
  161.1618  143.7485  185.0409 F   0  0  0  0  0  0  0  0  0  0  0  0
  161.9401  141.6748  184.6002 F   0  0  0  0  0  0  0  0  0  0  0  0
 16 17  1  0  0  0
 17 18  1  0  0  0
 18 19  1  0  0  0
 19 10  1  0  0  0
 10 11  1  0  0  0
 11 12  2  0  0  0
 11 13  1  0  0  0
 13  1  1  0  0  0
  1  2  2  0  0  0
  2  3  1  0  0  0
  3  4  2  0  0  0
  4  5  1  0  0  0
  5  6  2  0  0  0
  6  7  1  0  0  0
  7  8  2  0  0  0
  8  9  1  0  0  0
  6 27  1  0  0  0
 27 28  2  0  0  0
 28 29  1  0  0  0
 29 30  2  0  0  0
 30 31  1  0  0  0
 31 32  2  0  0  0
 31 33  1  0  0  0
 33 34  1  0  0  0
 33 35  1  0  0  0
 33 36  1  0  0  0
 19 20  1  0  0  0
 20 21  1  0  0  0
 20 22  1  0  0  0
 22 23  1  0  0  0
 23 17  1  0  0  0
  9  1  1  0  0  0
 32 27  1  0  0  0
  8  3  1  0  0  0
 16 24  1  0  0  0
 10 14  1  0  0  0
 13 15  1  0  0  0
 21 25  1  0  0  0
 23 26  1  0  0  0
M  END
> <minimizedAffinity>
-7.76432

> <CNNscore>
0.5103510022

> <CNNaffinity>
5.7417249680

> <CNN_VS>
2.9302949905

> <CNNaffinity_variance>
0.6378682852

$$$$
[H]O[C@@]1([H])C([H])([H])N([H])[C@]([H])(O[H])C([H])([H])[C@@]1([H])N([H])C(=O)N([H])c1nc2c([H])c([H])c(-c3c([H])c([H])c([H])c(C(F)(F)F)c3[H])c([H])c2s1


 36 39  0  0  0  0  0  0  0  0999 V2000
  153.0423  137.7116  184.8544 C   0  0  0  0  0  0  0  0  0  0  0  0
  153.1783  138.7098  184.0082 N   0  0  0  0  0  0  0  0  0  0  0  0
  154.3052  139.3716  183.9322 C   0  0  0  0  0  0  0  0  0  0  0  0
  154.5688  140.4614  183.0877 C   0  0  0  0  0  0  0  0  0  0  0  0
  155.7737  141.0958  183.0945 C   0  0  0  0  0  0  0  0  0  0  0  0
  156.8213  140.7003  183.9455 C   0  0  0  0  0  0  0  0  0  0  0  0
  156.5660  139.6346  184.7717 C   0  0  0  0  0  0  0  0  0  0  0  0
  155.3163  138.9824  184.7618 C   0  0  0  0  0  0  0  0  0  0  0  0
  154.5861  137.6934  185.5986 S   0  0  0  0  0  0  0  0  0  0  0  0
  150.1066  136.1286  186.6609 N   0  0  0  0  0  0  0  0  0  0  0  0
  151.1406  136.9045  186.3075 C   0  0  0  0  0  0  0  0  0  0  0  0
  151.5755  137.8834  187.1009 O   0  0  0  0  0  0  0  0  0  0  0  0
  151.9411  136.8564  185.1193 N   0  0  0  0  0  0  0  0  0  0  0  0
  149.9208  135.3283  185.8791 H   0  0  0  0  0  0  0  0  0  0  0  0
  151.6845  136.1456  184.4145 H   0  0  0  0  0  0  0  0  0  0  0  0
  147.9927  132.5619  187.8902 O   0  0  0  0  0  0  0  0  0  0  0  0
  148.1044  133.8329  187.3842 C   0  0  0  0  0  0  0  0  0  0  0  0
  149.0133  134.6378  188.2879 C   0  0  0  0  0  0  0  0  0  0  0  0
  149.1918  136.0439  187.7456 C   0  0  0  0  0  0  0  0  0  0  0  0
  147.8218  136.6304  187.4541 C   0  0  0  0  0  0  0  0  0  0  0  0
  147.8660  137.9033  186.9627 O   0  0  0  0  0  0  0  0  0  0  0  0
  146.9824  135.7306  186.6122 C   0  0  0  0  0  0  0  0  0  0  0  0
  146.8126  134.4765  187.3703 N   0  0  0  0  0  0  0  0  0  0  0  0
  148.7652  132.0175  187.5961 H   0  0  0  0  0  0  0  0  0  0  0  0
  147.5945  138.6313  187.5711 H   0  0  0  0  0  0  0  0  0  0  0  0
  146.5982  134.7746  188.3523 H   0  0  0  0  0  0  0  0  0  0  0  0
  158.0771  141.4453  183.9524 C   0  0  0  0  0  0  0  0  0  0  0  0
  159.1818  141.1157  184.6855 C   0  0  0  0  0  0  0  0  0  0  0  0
  160.2843  141.9644  184.6404 C   0  0  0  0  0  0  0  0  0  0  0  0
  160.2583  143.0941  183.8797 C   0  0  0  0  0  0  0  0  0  0  0  0
  159.1555  143.4320  183.1362 C   0  0  0  0  0  0  0  0  0  0  0  0
  158.0592  142.6056  183.1702 C   0  0  0  0  0  0  0  0  0  0  0  0
  159.0811  144.6546  182.2877 C   0  0  0  0  0  0  0  0  0  0  0  0
  159.9292  145.6027  182.8274 F   0  0  0  0  0  0  0  0  0  0  0  0
  157.7666  145.1339  182.3221 F   0  0  0  0  0  0  0  0  0  0  0  0
  159.4067  144.3924  180.9581 F   0  0  0  0  0  0  0  0  0  0  0  0
 16 17  1  0  0  0
 17 18  1  0  0  0
 18 19  1  0  0  0
 19 10  1  0  0  0
 10 11  1  0  0  0
 11 12  2  0  0  0
 11 13  1  0  0  0
 13  1  1  0  0  0
  1  2  2  0  0  0
  2  3  1  0  0  0
  3  4  2  0  0  0
  4  5  1  0  0  0
  5  6  2  0  0  0
  6  7  1  0  0  0
  7  8  2  0  0  0
  8  9  1  0  0  0
  6 27  1  0  0  0
 27 28  2  0  0  0
 28 29  1  0  0  0
 29 30  2  0  0  0
 30 31  1  0  0  0
 31 32  2  0  0  0
 31 33  1  0  0  0
 33 34  1  0  0  0
 33 35  1  0  0  0
 33 36  1  0  0  0
 19 20  1  0  0  0
 20 21  1  0  0  0
 20 22  1  0  0  0
 22 23  1  0  0  0
 23 17  1  0  0  0
  9  1  1  0  0  0
 32 27  1  0  0  0
  8  3  1  0  0  0
 16 24  1  0  0  0
 10 14  1  0  0  0
 13 15  1  0  0  0
 21 25  1  0  0  0
 23 26  1  0  0  0
M  END
> <minimizedAffinity>
-7.93164

> <CNNscore>
0.4235322773

> <CNNaffinity>
5.6273107529

> <CNN_VS>
2.3833477497

> <CNNaffinity_variance>
0.3652676046

$$$$
[H]O[C@@]1([H])C([H])([H])N([H])[C@]([H])(O[H])C([H])([H])[C@@]1([H])N([H])C(=O)N([H])c1nc2c([H])c([H])c(-c3c([H])c([H])c([H])c(C(F)(F)F)c3[H])c([H])c2s1


 36 39  0  0  0  0  0  0  0  0999 V2000
  153.7711  138.0898  185.8046 C   0  0  0  0  0  0  0  0  0  0  0  0
  155.0420  138.3739  185.9909 N   0  0  0  0  0  0  0  0  0  0  0  0
  155.6971  139.1033  185.1233 C   0  0  0  0  0  0  0  0  0  0  0  0
  157.0528  139.4595  185.1985 C   0  0  0  0  0  0  0  0  0  0  0  0
  157.6488  140.2117  184.2326 C   0  0  0  0  0  0  0  0  0  0  0  0
  156.9456  140.6735  183.1054 C   0  0  0  0  0  0  0  0  0  0  0  0
  155.6198  140.3270  183.0300 C   0  0  0  0  0  0  0  0  0  0  0  0
  155.0081  139.5466  184.0320 C   0  0  0  0  0  0  0  0  0  0  0  0
  153.4656  138.8883  184.3191 S   0  0  0  0  0  0  0  0  0  0  0  0
  150.6281  136.2186  186.8086 N   0  0  0  0  0  0  0  0  0  0  0  0
  151.5651  136.9069  186.1419 C   0  0  0  0  0  0  0  0  0  0  0  0
  151.3672  137.3105  184.8871 O   0  0  0  0  0  0  0  0  0  0  0  0
  152.8600  137.3324  186.5860 N   0  0  0  0  0  0  0  0  0  0  0  0
  150.9646  136.0098  187.8713 H   0  0  0  0  0  0  0  0  0  0  0  0
  153.1362  137.0585  187.5432 H   0  0  0  0  0  0  0  0  0  0  0  0
  147.0679  138.5474  186.0323 O   0  0  0  0  0  0  0  0  0  0  0  0
  147.8618  137.6836  186.7446 C   0  0  0  0  0  0  0  0  0  0  0  0
  148.4239  136.6462  185.7966 C   0  0  0  0  0  0  0  0  0  0  0  0
  149.3372  135.6879  186.5388 C   0  0  0  0  0  0  0  0  0  0  0  0
  148.6062  135.1706  187.7651 C   0  0  0  0  0  0  0  0  0  0  0  0
  149.3402  134.2913  188.5079 O   0  0  0  0  0  0  0  0  0  0  0  0
  148.0346  136.2691  188.5954 C   0  0  0  0  0  0  0  0  0  0  0  0
  147.0761  136.9935  187.7393 N   0  0  0  0  0  0  0  0  0  0  0  0
  147.6299  139.2423  185.6070 H   0  0  0  0  0  0  0  0  0  0  0  0
  149.0856  133.3390  188.4612 H   0  0  0  0  0  0  0  0  0  0  0  0
  146.5280  136.2478  187.2467 H   0  0  0  0  0  0  0  0  0  0  0  0
  157.6422  141.4333  182.0712 C   0  0  0  0  0  0  0  0  0  0  0  0
  158.0497  140.9312  180.8678 C   0  0  0  0  0  0  0  0  0  0  0  0
  158.7654  141.7628  180.0110 C   0  0  0  0  0  0  0  0  0  0  0  0
  159.0477  143.0468  180.3675 C   0  0  0  0  0  0  0  0  0  0  0  0
  158.6392  143.5624  181.5718 C   0  0  0  0  0  0  0  0  0  0  0  0
  157.9327  142.7548  182.4289 C   0  0  0  0  0  0  0  0  0  0  0  0
  158.9216  144.9601  182.0043 C   0  0  0  0  0  0  0  0  0  0  0  0
  159.4479  145.6442  180.9252 F   0  0  0  0  0  0  0  0  0  0  0  0
  159.8683  144.9184  183.0343 F   0  0  0  0  0  0  0  0  0  0  0  0
  157.7838  145.5990  182.4940 F   0  0  0  0  0  0  0  0  0  0  0  0
 16 17  1  0  0  0
 17 18  1  0  0  0
 18 19  1  0  0  0
 19 10  1  0  0  0
 10 11  1  0  0  0
 11 12  2  0  0  0
 11 13  1  0  0  0
 13  1  1  0  0  0
  1  2  2  0  0  0
  2  3  1  0  0  0
  3  4  2  0  0  0
  4  5  1  0  0  0
  5  6  2  0  0  0
  6  7  1  0  0  0
  7  8  2  0  0  0
  8  9  1  0  0  0
  6 27  1  0  0  0
 27 28  2  0  0  0
 28 29  1  0  0  0
 29 30  2  0  0  0
 30 31  1  0  0  0
 31 32  2  0  0  0
 31 33  1  0  0  0
 33 34  1  0  0  0
 33 35  1  0  0  0
 33 36  1  0  0  0
 19 20  1  0  0  0
 20 21  1  0  0  0
 20 22  1  0  0  0
 22 23  1  0  0  0
 23 17  1  0  0  0
  9  1  1  0  0  0
 32 27  1  0  0  0
  8  3  1  0  0  0
 16 24  1  0  0  0
 10 14  1  0  0  0
 13 15  1  0  0  0
 21 25  1  0  0  0
 23 26  1  0  0  0
M  END
> <minimizedAffinity>
-8.59933

> <CNNscore>
0.4211836159

> <CNNaffinity>
5.7078466415

> <CNN_VS>
2.4040515423

> <CNNaffinity_variance>
0.2902600169

$$$$
[H]O[C@@]1([H])C([H])([H])N([H])[C@]([H])(O[H])C([H])([H])[C@@]1([H])N([H])C(=O)N([H])c1nc2c([H])c([H])c(-c3c([H])c([H])c([H])c(C(F)(F)F)c3[H])c([H])c2s1


 36 39  0  0  0  0  0  0  0  0999 V2000
  154.1171  136.9759  188.1107 C   0  0  0  0  0  0  0  0  0  0  0  0
  153.6682  137.6047  187.0458 N   0  0  0  0  0  0  0  0  0  0  0  0
  154.4880  138.2570  186.2607 C   0  0  0  0  0  0  0  0  0  0  0  0
  154.1327  138.9789  185.1105 C   0  0  0  0  0  0  0  0  0  0  0  0
  155.0617  139.6401  184.3663 C   0  0  0  0  0  0  0  0  0  0  0  0
  156.4268  139.6412  184.7048 C   0  0  0  0  0  0  0  0  0  0  0  0
  156.7767  138.9355  185.8287 C   0  0  0  0  0  0  0  0  0  0  0  0
  155.8106  138.2540  186.5965 C   0  0  0  0  0  0  0  0  0  0  0  0
  155.7940  137.3175  188.0169 S   0  0  0  0  0  0  0  0  0  0  0  0
  152.7455  135.9234  191.4869 N   0  0  0  0  0  0  0  0  0  0  0  0
  153.3335  136.5834  190.4795 C   0  0  0  0  0  0  0  0  0  0  0  0
  153.9416  137.7527  190.6785 O   0  0  0  0  0  0  0  0  0  0  0  0
  153.4407  136.2139  189.0986 N   0  0  0  0  0  0  0  0  0  0  0  0
  152.3280  134.9323  191.1268 H   0  0  0  0  0  0  0  0  0  0  0  0
  152.9863  135.3294  188.8176 H   0  0  0  0  0  0  0  0  0  0  0  0
  152.4228  132.8194  194.4806 O   0  0  0  0  0  0  0  0  0  0  0  0
  151.9637  133.8496  193.6984 C   0  0  0  0  0  0  0  0  0  0  0  0
  152.9637  134.9844  193.7531 C   0  0  0  0  0  0  0  0  0  0  0  0
  152.5106  136.1346  192.8729 C   0  0  0  0  0  0  0  0  0  0  0  0
  151.0710  136.4731  193.2175 C   0  0  0  0  0  0  0  0  0  0  0  0
  150.5615  137.5045  192.4824 O   0  0  0  0  0  0  0  0  0  0  0  0
  150.1825  135.2759  193.1994 C   0  0  0  0  0  0  0  0  0  0  0  0
  150.7083  134.3418  194.2130 N   0  0  0  0  0  0  0  0  0  0  0  0
  153.0687  132.2734  193.9665 H   0  0  0  0  0  0  0  0  0  0  0  0
  150.4431  138.3700  192.9413 H   0  0  0  0  0  0  0  0  0  0  0  0
  150.9217  134.9351  195.0506 H   0  0  0  0  0  0  0  0  0  0  0  0
  157.3769  140.4082  183.9041 C   0  0  0  0  0  0  0  0  0  0  0  0
  157.3316  140.5409  182.5451 C   0  0  0  0  0  0  0  0  0  0  0  0
  158.3504  141.2495  181.9143 C   0  0  0  0  0  0  0  0  0  0  0  0
  159.3646  141.7979  182.6395 C   0  0  0  0  0  0  0  0  0  0  0  0
  159.4172  141.6743  184.0052 C   0  0  0  0  0  0  0  0  0  0  0  0
  158.4202  140.9778  184.6429 C   0  0  0  0  0  0  0  0  0  0  0  0
  160.5040  142.2584  184.8407 C   0  0  0  0  0  0  0  0  0  0  0  0
  161.6877  141.6299  184.5042 F   0  0  0  0  0  0  0  0  0  0  0  0
  160.2093  142.0044  186.1851 F   0  0  0  0  0  0  0  0  0  0  0  0
  160.6077  143.6388  184.6784 F   0  0  0  0  0  0  0  0  0  0  0  0
 16 17  1  0  0  0
 17 18  1  0  0  0
 18 19  1  0  0  0
 19 10  1  0  0  0
 10 11  1  0  0  0
 11 12  2  0  0  0
 11 13  1  0  0  0
 13  1  1  0  0  0
  1  2  2  0  0  0
  2  3  1  0  0  0
  3  4  2  0  0  0
  4  5  1  0  0  0
  5  6  2  0  0  0
  6  7  1  0  0  0
  7  8  2  0  0  0
  8  9  1  0  0  0
  6 27  1  0  0  0
 27 28  2  0  0  0
 28 29  1  0  0  0
 29 30  2  0  0  0
 30 31  1  0  0  0
 31 32  2  0  0  0
 31 33  1  0  0  0
 33 34  1  0  0  0
 33 35  1  0  0  0
 33 36  1  0  0  0
 19 20  1  0  0  0
 20 21  1  0  0  0
 20 22  1  0  0  0
 22 23  1  0  0  0
 23 17  1  0  0  0
  9  1  1  0  0  0
 32 27  1  0  0  0
  8  3  1  0  0  0
 16 24  1  0  0  0
 10 14  1  0  0  0
 13 15  1  0  0  0
 21 25  1  0  0  0
 23 26  1  0  0  0
M  END
> <minimizedAffinity>
-8.93211

> <CNNscore>
0.4110566080

> <CNNaffinity>
5.6596236229

> <CNN_VS>
2.3264257908

> <CNNaffinity_variance>
0.2880406082

$$$$
[H]O[C@@]1([H])C([H])([H])N([H])[C@]([H])(O[H])C([H])([H])[C@@]1([H])N([H])C(=O)N([H])c1nc2c([H])c([H])c(-c3c([H])c([H])c([H])c(C(F)(F)F)c3[H])c([H])c2s1


 36 39  0  0  0  0  0  0  0  0999 V2000
  154.0403  137.0109  188.0019 C   0  0  0  0  0  0  0  0  0  0  0  0
  153.6146  137.6638  186.9420 N   0  0  0  0  0  0  0  0  0  0  0  0
  154.4561  138.3030  186.1692 C   0  0  0  0  0  0  0  0  0  0  0  0
  154.1270  139.0475  185.0256 C   0  0  0  0  0  0  0  0  0  0  0  0
  155.0777  139.6921  184.2944 C   0  0  0  0  0  0  0  0  0  0  0  0
  156.4404  139.6527  184.6404 C   0  0  0  0  0  0  0  0  0  0  0  0
  156.7647  138.9248  185.7578 C   0  0  0  0  0  0  0  0  0  0  0  0
  155.7762  138.2606  186.5121 C   0  0  0  0  0  0  0  0  0  0  0  0
  155.7263  137.3084  187.9213 S   0  0  0  0  0  0  0  0  0  0  0  0
  152.6828  135.9149  191.3699 N   0  0  0  0  0  0  0  0  0  0  0  0
  153.2895  136.5749  190.3737 C   0  0  0  0  0  0  0  0  0  0  0  0
  153.9800  137.6920  190.6019 O   0  0  0  0  0  0  0  0  0  0  0  0
  153.3380  136.2558  188.9769 N   0  0  0  0  0  0  0  0  0  0  0  0
  152.1906  134.9694  190.9826 H   0  0  0  0  0  0  0  0  0  0  0  0
  152.8181  135.4158  188.6738 H   0  0  0  0  0  0  0  0  0  0  0  0
  152.3908  132.7199  194.2695 O   0  0  0  0  0  0  0  0  0  0  0  0
  151.9287  133.7843  193.5366 C   0  0  0  0  0  0  0  0  0  0  0  0
  152.9531  134.8969  193.5960 C   0  0  0  0  0  0  0  0  0  0  0  0
  152.4963  136.0844  192.7689 C   0  0  0  0  0  0  0  0  0  0  0  0
  151.0756  136.4394  193.1708 C   0  0  0  0  0  0  0  0  0  0  0  0
  150.5645  137.5045  192.4866 O   0  0  0  0  0  0  0  0  0  0  0  0
  150.1624  135.2612  193.1424 C   0  0  0  0  0  0  0  0  0  0  0  0
  150.7006  134.2837  194.1074 N   0  0  0  0  0  0  0  0  0  0  0  0
  153.0087  132.1787  193.7173 H   0  0  0  0  0  0  0  0  0  0  0  0
  150.4787  138.3565  192.9771 H   0  0  0  0  0  0  0  0  0  0  0  0
  150.9527  134.8445  194.9566 H   0  0  0  0  0  0  0  0  0  0  0  0
  157.4153  140.4032  183.8540 C   0  0  0  0  0  0  0  0  0  0  0  0
  158.7390  140.0868  183.7348 C   0  0  0  0  0  0  0  0  0  0  0  0
  159.5608  140.9399  183.0034 C   0  0  0  0  0  0  0  0  0  0  0  0
  159.0518  142.0606  182.4201 C   0  0  0  0  0  0  0  0  0  0  0  0
  157.7229  142.3851  182.5299 C   0  0  0  0  0  0  0  0  0  0  0  0
  156.8988  141.5544  183.2486 C   0  0  0  0  0  0  0  0  0  0  0  0
  157.1203  143.5977  181.9079 C   0  0  0  0  0  0  0  0  0  0  0  0
  157.4021  143.5703  180.5554 F   0  0  0  0  0  0  0  0  0  0  0  0
  157.7134  144.7274  182.4830 F   0  0  0  0  0  0  0  0  0  0  0  0
  155.7466  143.6750  182.1303 F   0  0  0  0  0  0  0  0  0  0  0  0
 16 17  1  0  0  0
 17 18  1  0  0  0
 18 19  1  0  0  0
 19 10  1  0  0  0
 10 11  1  0  0  0
 11 12  2  0  0  0
 11 13  1  0  0  0
 13  1  1  0  0  0
  1  2  2  0  0  0
  2  3  1  0  0  0
  3  4  2  0  0  0
  4  5  1  0  0  0
  5  6  2  0  0  0
  6  7  1  0  0  0
  7  8  2  0  0  0
  8  9  1  0  0  0
  6 27  1  0  0  0
 27 28  2  0  0  0
 28 29  1  0  0  0
 29 30  2  0  0  0
 30 31  1  0  0  0
 31 32  2  0  0  0
 31 33  1  0  0  0
 33 34  1  0  0  0
 33 35  1  0  0  0
 33 36  1  0  0  0
 19 20  1  0  0  0
 20 21  1  0  0  0
 20 22  1  0  0  0
 22 23  1  0  0  0
 23 17  1  0  0  0
  9  1  1  0  0  0
 32 27  1  0  0  0
  8  3  1  0  0  0
 16 24  1  0  0  0
 10 14  1  0  0  0
 13 15  1  0  0  0
 21 25  1  0  0  0
 23 26  1  0  0  0
M  END
> <minimizedAffinity>
-8.68741

> <CNNscore>
0.3848546743

> <CNNaffinity>
5.5764703751

> <CNN_VS>
2.1461308002

> <CNNaffinity_variance>
0.2473580837

$$$$
[H]O[C@@]1([H])C([H])([H])N([H])[C@]([H])(O[H])C([H])([H])[C@@]1([H])N([H])C(=O)N([H])c1nc2c([H])c([H])c(-c3c([H])c([H])c([H])c(C(F)(F)F)c3[H])c([H])c2s1


 36 39  0  0  0  0  0  0  0  0999 V2000
  154.1524  137.0059  187.2184 C   0  0  0  0  0  0  0  0  0  0  0  0
  153.7422  137.7240  186.1952 N   0  0  0  0  0  0  0  0  0  0  0  0
  154.5690  138.5173  185.5621 C   0  0  0  0  0  0  0  0  0  0  0  0
  154.2514  139.3439  184.4730 C   0  0  0  0  0  0  0  0  0  0  0  0
  155.1829  140.1485  183.8909 C   0  0  0  0  0  0  0  0  0  0  0  0
  156.5131  140.2010  184.3448 C   0  0  0  0  0  0  0  0  0  0  0  0
  156.8262  139.3932  185.4091 C   0  0  0  0  0  0  0  0  0  0  0  0
  155.8574  138.5632  186.0092 C   0  0  0  0  0  0  0  0  0  0  0  0
  155.8006  137.4673  187.3094 S   0  0  0  0  0  0  0  0  0  0  0  0
  152.3064  135.6064  190.2219 N   0  0  0  0  0  0  0  0  0  0  0  0
  152.9438  136.4027  189.3525 C   0  0  0  0  0  0  0  0  0  0  0  0
  153.1930  137.6808  189.6374 O   0  0  0  0  0  0  0  0  0  0  0  0
  153.4605  136.0896  188.0525 N   0  0  0  0  0  0  0  0  0  0  0  0
  152.2330  134.5494  189.8175 H   0  0  0  0  0  0  0  0  0  0  0  0
  153.3083  135.1261  187.7116 H   0  0  0  0  0  0  0  0  0  0  0  0
  152.9456  132.9485  193.5727 O   0  0  0  0  0  0  0  0  0  0  0  0
  152.2133  133.5462  192.5776 C   0  0  0  0  0  0  0  0  0  0  0  0
  152.4720  135.0371  192.6122 C   0  0  0  0  0  0  0  0  0  0  0  0
  151.7056  135.7350  191.5038 C   0  0  0  0  0  0  0  0  0  0  0  0
  150.2548  135.2902  191.5607 C   0  0  0  0  0  0  0  0  0  0  0  0
  149.4694  135.8650  190.6034 O   0  0  0  0  0  0  0  0  0  0  0  0
  150.1129  133.8063  191.5891 C   0  0  0  0  0  0  0  0  0  0  0  0
  150.8034  133.3371  192.8055 N   0  0  0  0  0  0  0  0  0  0  0  0
  153.8711  132.7939  193.2578 H   0  0  0  0  0  0  0  0  0  0  0  0
  148.8382  136.5641  190.8979 H   0  0  0  0  0  0  0  0  0  0  0  0
  150.5052  133.9967  193.5638 H   0  0  0  0  0  0  0  0  0  0  0  0
  157.4619  141.1185  183.7203 C   0  0  0  0  0  0  0  0  0  0  0  0
  157.3174  141.6742  182.4807 C   0  0  0  0  0  0  0  0  0  0  0  0
  158.3430  142.4786  181.9915 C   0  0  0  0  0  0  0  0  0  0  0  0
  159.4607  142.7053  182.7362 C   0  0  0  0  0  0  0  0  0  0  0  0
  159.6139  142.1556  183.9843 C   0  0  0  0  0  0  0  0  0  0  0  0
  158.6116  141.3591  184.4812 C   0  0  0  0  0  0  0  0  0  0  0  0
  160.8161  142.3768  184.8364 C   0  0  0  0  0  0  0  0  0  0  0  0
  160.4970  142.0115  186.1303 F   0  0  0  0  0  0  0  0  0  0  0  0
  161.1333  143.7396  184.8034 F   0  0  0  0  0  0  0  0  0  0  0  0
  161.9243  141.6679  184.3762 F   0  0  0  0  0  0  0  0  0  0  0  0
 16 17  1  0  0  0
 17 18  1  0  0  0
 18 19  1  0  0  0
 19 10  1  0  0  0
 10 11  1  0  0  0
 11 12  2  0  0  0
 11 13  1  0  0  0
 13  1  1  0  0  0
  1  2  2  0  0  0
  2  3  1  0  0  0
  3  4  2  0  0  0
  4  5  1  0  0  0
  5  6  2  0  0  0
  6  7  1  0  0  0
  7  8  2  0  0  0
  8  9  1  0  0  0
  6 27  1  0  0  0
 27 28  2  0  0  0
 28 29  1  0  0  0
 29 30  2  0  0  0
 30 31  1  0  0  0
 31 32  2  0  0  0
 31 33  1  0  0  0
 33 34  1  0  0  0
 33 35  1  0  0  0
 33 36  1  0  0  0
 19 20  1  0  0  0
 20 21  1  0  0  0
 20 22  1  0  0  0
 22 23  1  0  0  0
 23 17  1  0  0  0
  9  1  1  0  0  0
 32 27  1  0  0  0
  8  3  1  0  0  0
 16 24  1  0  0  0
 10 14  1  0  0  0
 13 15  1  0  0  0
 21 25  1  0  0  0
 23 26  1  0  0  0
M  END
> <minimizedAffinity>
-8.11255

> <CNNscore>
0.3738663495

> <CNNaffinity>
5.7012338638

> <CNN_VS>
2.1314995289

> <CNNaffinity_variance>
0.4545678496

$$$$
[H]O[C@@]1([H])C([H])([H])N([H])[C@]([H])(O[H])C([H])([H])[C@@]1([H])N([H])C(=O)N([H])c1nc2c([H])c([H])c(-c3c([H])c([H])c([H])c(C(F)(F)F)c3[H])c([H])c2s1


 36 39  0  0  0  0  0  0  0  0999 V2000
  152.1932  138.9253  182.3792 C   0  0  0  0  0  0  0  0  0  0  0  0
  153.1686  138.8221  183.2558 N   0  0  0  0  0  0  0  0  0  0  0  0
  154.1509  139.6874  183.2666 C   0  0  0  0  0  0  0  0  0  0  0  0
  155.2536  139.6760  184.1350 C   0  0  0  0  0  0  0  0  0  0  0  0
  156.2358  140.6157  184.0554 C   0  0  0  0  0  0  0  0  0  0  0  0
  156.2058  141.6486  183.1013 C   0  0  0  0  0  0  0  0  0  0  0  0
  155.1283  141.6622  182.2514 C   0  0  0  0  0  0  0  0  0  0  0  0
  154.1149  140.6859  182.3372 C   0  0  0  0  0  0  0  0  0  0  0  0
  152.6759  140.3194  181.5066 S   0  0  0  0  0  0  0  0  0  0  0  0
  150.0339  135.9433  181.4666 N   0  0  0  0  0  0  0  0  0  0  0  0
  151.0613  136.7658  181.7199 C   0  0  0  0  0  0  0  0  0  0  0  0
  152.3233  136.3692  181.5564 O   0  0  0  0  0  0  0  0  0  0  0  0
  151.0388  138.1269  182.1694 N   0  0  0  0  0  0  0  0  0  0  0  0
  149.0455  136.4781  181.6194 H   0  0  0  0  0  0  0  0  0  0  0  0
  150.1097  138.5408  182.3516 H   0  0  0  0  0  0  0  0  0  0  0  0
  146.9410  134.5040  178.8088 O   0  0  0  0  0  0  0  0  0  0  0  0
  147.6013  134.6191  180.0065 C   0  0  0  0  0  0  0  0  0  0  0  0
  149.0843  134.4391  179.7633 C   0  0  0  0  0  0  0  0  0  0  0  0
  149.8577  134.5925  181.0600 C   0  0  0  0  0  0  0  0  0  0  0  0
  149.2233  133.7014  182.1132 C   0  0  0  0  0  0  0  0  0  0  0  0
  149.8477  133.7594  183.3258 O   0  0  0  0  0  0  0  0  0  0  0  0
  147.7514  133.9103  182.2272 C   0  0  0  0  0  0  0  0  0  0  0  0
  147.1727  133.5793  180.9112 N   0  0  0  0  0  0  0  0  0  0  0  0
  146.9664  135.3699  178.3302 H   0  0  0  0  0  0  0  0  0  0  0  0
  150.3960  132.9820  183.5884 H   0  0  0  0  0  0  0  0  0  0  0  0
  147.6454  132.6910  180.6174 H   0  0  0  0  0  0  0  0  0  0  0  0
  157.3090  142.6019  183.0223 C   0  0  0  0  0  0  0  0  0  0  0  0
  157.3143  143.7358  182.2603 C   0  0  0  0  0  0  0  0  0  0  0  0
  158.4696  144.5120  182.2354 C   0  0  0  0  0  0  0  0  0  0  0  0
  159.5652  144.1469  182.9577 C   0  0  0  0  0  0  0  0  0  0  0  0
  159.5689  143.0124  183.7298 C   0  0  0  0  0  0  0  0  0  0  0  0
  158.4373  142.2352  183.7647 C   0  0  0  0  0  0  0  0  0  0  0  0
  160.7412  142.5740  184.5384 C   0  0  0  0  0  0  0  0  0  0  0  0
  161.5301  143.6815  184.7845 F   0  0  0  0  0  0  0  0  0  0  0  0
  161.4689  141.6430  183.7882 F   0  0  0  0  0  0  0  0  0  0  0  0
  160.3582  141.9591  185.7291 F   0  0  0  0  0  0  0  0  0  0  0  0
 16 17  1  0  0  0
 17 18  1  0  0  0
 18 19  1  0  0  0
 19 10  1  0  0  0
 10 11  1  0  0  0
 11 12  2  0  0  0
 11 13  1  0  0  0
 13  1  1  0  0  0
  1  2  2  0  0  0
  2  3  1  0  0  0
  3  4  2  0  0  0
  4  5  1  0  0  0
  5  6  2  0  0  0
  6  7  1  0  0  0
  7  8  2  0  0  0
  8  9  1  0  0  0
  6 27  1  0  0  0
 27 28  2  0  0  0
 28 29  1  0  0  0
 29 30  2  0  0  0
 30 31  1  0  0  0
 31 32  2  0  0  0
 31 33  1  0  0  0
 33 34  1  0  0  0
 33 35  1  0  0  0
 33 36  1  0  0  0
 19 20  1  0  0  0
 20 21  1  0  0  0
 20 22  1  0  0  0
 22 23  1  0  0  0
 23 17  1  0  0  0
  9  1  1  0  0  0
 32 27  1  0  0  0
  8  3  1  0  0  0
 16 24  1  0  0  0
 10 14  1  0  0  0
 13 15  1  0  0  0
 21 25  1  0  0  0
 23 26  1  0  0  0
M  END
> <minimizedAffinity>
-8.01813

> <CNNscore>
0.3664935231

> <CNNaffinity>
5.7484245300

> <CNN_VS>
2.1067602634

> <CNNaffinity_variance>
0.4535005689

$$$$
[H]O[C@@]1([H])C([H])([H])N([H])[C@]([H])(O[H])C([H])([H])[C@@]1([H])N([H])C(=O)N([H])c1nc2c([H])c([H])c(-c3c([H])c([H])c([H])c(C(F)(F)F)c3[H])c([H])c2s1


 36 39  0  0  0  0  0  0  0  0999 V2000
  154.3044  137.9723  185.9715 C   0  0  0  0  0  0  0  0  0  0  0  0
  155.5482  138.3767  186.1139 N   0  0  0  0  0  0  0  0  0  0  0  0
  156.1122  139.1332  185.2065 C   0  0  0  0  0  0  0  0  0  0  0  0
  157.4310  139.6133  185.2334 C   0  0  0  0  0  0  0  0  0  0  0  0
  157.9316  140.3841  184.2287 C   0  0  0  0  0  0  0  0  0  0  0  0
  157.1616  140.7425  183.1076 C   0  0  0  0  0  0  0  0  0  0  0  0
  155.8716  140.2748  183.0794 C   0  0  0  0  0  0  0  0  0  0  0  0
  155.3588  139.4757  184.1215 C   0  0  0  0  0  0  0  0  0  0  0  0
  153.8907  138.6901  184.4710 S   0  0  0  0  0  0  0  0  0  0  0  0
  152.6565  134.8858  187.4364 N   0  0  0  0  0  0  0  0  0  0  0  0
  153.4129  135.7321  186.7235 C   0  0  0  0  0  0  0  0  0  0  0  0
  154.2430  135.2915  185.7782 O   0  0  0  0  0  0  0  0  0  0  0  0
  153.4861  137.1617  186.8005 N   0  0  0  0  0  0  0  0  0  0  0  0
  151.9867  135.4543  188.1535 H   0  0  0  0  0  0  0  0  0  0  0  0
  152.8980  137.6192  187.5164 H   0  0  0  0  0  0  0  0  0  0  0  0
  149.9594  132.8789  190.1564 O   0  0  0  0  0  0  0  0  0  0  0  0
  151.1852  133.2249  189.6452 C   0  0  0  0  0  0  0  0  0  0  0  0
  151.1445  133.0737  188.1398 C   0  0  0  0  0  0  0  0  0  0  0  0
  152.4732  133.4792  187.5291 C   0  0  0  0  0  0  0  0  0  0  0  0
  153.5872  132.7514  188.2605 C   0  0  0  0  0  0  0  0  0  0  0  0
  154.8336  133.0421  187.7852 O   0  0  0  0  0  0  0  0  0  0  0  0
  153.4978  132.9097  189.7404 C   0  0  0  0  0  0  0  0  0  0  0  0
  152.2027  132.3349  190.1512 N   0  0  0  0  0  0  0  0  0  0  0  0
  149.3438  133.6516  190.0967 H   0  0  0  0  0  0  0  0  0  0  0  0
  155.2867  132.3460  187.2523 H   0  0  0  0  0  0  0  0  0  0  0  0
  152.1222  131.4320  189.6246 H   0  0  0  0  0  0  0  0  0  0  0  0
  157.7599  141.5278  182.0317 C   0  0  0  0  0  0  0  0  0  0  0  0
  158.0500  141.0561  180.7828 C   0  0  0  0  0  0  0  0  0  0  0  0
  158.6845  141.9085  179.8835 C   0  0  0  0  0  0  0  0  0  0  0  0
  159.0039  143.1826  180.2442 C   0  0  0  0  0  0  0  0  0  0  0  0
  158.7130  143.6677  181.4944 C   0  0  0  0  0  0  0  0  0  0  0  0
  158.0878  142.8393  182.3938 C   0  0  0  0  0  0  0  0  0  0  0  0
  159.0401  145.0535  181.9335 C   0  0  0  0  0  0  0  0  0  0  0  0
  159.9530  144.9709  182.9675 F   0  0  0  0  0  0  0  0  0  0  0  0
  157.8653  145.6559  182.3983 F   0  0  0  0  0  0  0  0  0  0  0  0
  159.5368  145.8322  180.8897 F   0  0  0  0  0  0  0  0  0  0  0  0
 16 17  1  0  0  0
 17 18  1  0  0  0
 18 19  1  0  0  0
 19 10  1  0  0  0
 10 11  1  0  0  0
 11 12  2  0  0  0
 11 13  1  0  0  0
 13  1  1  0  0  0
  1  2  2  0  0  0
  2  3  1  0  0  0
  3  4  2  0  0  0
  4  5  1  0  0  0
  5  6  2  0  0  0
  6  7  1  0  0  0
  7  8  2  0  0  0
  8  9  1  0  0  0
  6 27  1  0  0  0
 27 28  2  0  0  0
 28 29  1  0  0  0
 29 30  2  0  0  0
 30 31  1  0  0  0
 31 32  2  0  0  0
 31 33  1  0  0  0
 33 34  1  0  0  0
 33 35  1  0  0  0
 33 36  1  0  0  0
 19 20  1  0  0  0
 20 21  1  0  0  0
 20 22  1  0  0  0
 22 23  1  0  0  0
 23 17  1  0  0  0
  9  1  1  0  0  0
 32 27  1  0  0  0
  8  3  1  0  0  0
 16 24  1  0  0  0
 10 14  1  0  0  0
 13 15  1  0  0  0
 21 25  1  0  0  0
 23 26  1  0  0  0
M  END
> <minimizedAffinity>
-7.40824

> <CNNscore>
0.3642911017

> <CNNaffinity>
5.5545229912

> <CNN_VS>
2.0234632492

> <CNNaffinity_variance>
0.5355231762

$$$$
[H]c1nc([H])c2c([H])c([H])c(N([H])C(=O)N([H])C([H])([H])c3c(N4C([H])([H])C([H])([H])C([H])([H])C([H])(C([H])([H])[H])C4([H])[H])nc(C(F)(F)F)c([H])c3[H])c([H])c2c1[H]


 34 37  0  0  0  0  0  0  0  0999 V2000
  153.9887  139.8815  182.5526 C   0  0  0  0  0  0  0  0  0  0  0  0
  153.1079  140.0651  181.5070 N   0  0  0  0  0  0  0  0  0  0  0  0
  152.0409  139.2758  181.3416 C   0  0  0  0  0  0  0  0  0  0  0  0
  151.8021  138.2622  182.2163 C   0  0  0  0  0  0  0  0  0  0  0  0
  152.6906  138.0659  183.2829 C   0  0  0  0  0  0  0  0  0  0  0  0
  153.7830  138.8746  183.4510 C   0  0  0  0  0  0  0  0  0  0  0  0
  156.2287  144.2835  182.2316 C   0  0  0  0  0  0  0  0  0  0  0  0
  156.2744  142.8094  182.5857 C   0  0  0  0  0  0  0  0  0  0  0  0
  157.3678  142.1538  181.7889 C   0  0  0  0  0  0  0  0  0  0  0  0
  157.4306  140.6923  182.0996 C   0  0  0  0  0  0  0  0  0  0  0  0
  156.3614  140.2966  183.1302 C   0  0  0  0  0  0  0  0  0  0  0  0
  155.0817  140.7440  182.6701 N   0  0  0  0  0  0  0  0  0  0  0  0
  154.9422  142.1394  182.3243 C   0  0  0  0  0  0  0  0  0  0  0  0
  151.1331  139.5278  180.1936 C   0  0  0  0  0  0  0  0  0  0  0  0
  151.8864  140.0402  179.1652 F   0  0  0  0  0  0  0  0  0  0  0  0
  150.5375  138.3470  179.7704 F   0  0  0  0  0  0  0  0  0  0  0  0
  150.2125  140.4662  180.5656 F   0  0  0  0  0  0  0  0  0  0  0  0
  154.7068  138.6552  184.5620 C   0  0  0  0  0  0  0  0  0  0  0  0
  154.1432  138.5262  185.8176 N   0  0  0  0  0  0  0  0  0  0  0  0
  153.5795  138.4034  187.0638 C   0  0  0  0  0  0  0  0  0  0  0  0
  152.6871  139.1738  187.5139 O   0  0  0  0  0  0  0  0  0  0  0  0
  153.9976  137.3426  187.9526 N   0  0  0  0  0  0  0  0  0  0  0  0
  153.3525  139.6170  185.5927 H   0  0  0  0  0  0  0  0  0  0  0  0
  154.7460  136.7029  187.5517 H   0  0  0  0  0  0  0  0  0  0  0  0
  153.4953  137.1475  189.2177 C   0  0  0  0  0  0  0  0  0  0  0  0
  154.2908  137.6064  190.2891 C   0  0  0  0  0  0  0  0  0  0  0  0
  153.9070  137.4984  191.5935 C   0  0  0  0  0  0  0  0  0  0  0  0
  152.6899  136.9159  191.8697 C   0  0  0  0  0  0  0  0  0  0  0  0
  152.2627  136.7861  193.1942 C   0  0  0  0  0  0  0  0  0  0  0  0
  151.0775  136.2181  193.4821 N   0  0  0  0  0  0  0  0  0  0  0  0
  150.2588  135.7547  192.5238 C   0  0  0  0  0  0  0  0  0  0  0  0
  150.6793  135.8825  191.2151 C   0  0  0  0  0  0  0  0  0  0  0  0
  151.8710  136.4509  190.8785 C   0  0  0  0  0  0  0  0  0  0  0  0
  152.3100  136.5855  189.5560 C   0  0  0  0  0  0  0  0  0  0  0  0
  7  8  1  0  0  0
  8  9  1  0  0  0
  9 10  1  0  0  0
 10 11  1  0  0  0
 11 12  1  0  0  0
 12 13  1  0  0  0
 12  1  1  0  0  0
  1  2  2  0  0  0
  2  3  1  0  0  0
  3  4  2  0  0  0
  4  5  1  0  0  0
  5  6  2  0  0  0
  6 18  1  0  0  0
 18 19  1  0  0  0
 19 20  1  0  0  0
 20 21  2  0  0  0
 20 22  1  0  0  0
 22 25  1  0  0  0
 25 26  2  0  0  0
 26 27  1  0  0  0
 27 28  2  0  0  0
 28 29  1  0  0  0
 29 30  2  0  0  0
 30 31  1  0  0  0
 31 32  2  0  0  0
 32 33  1  0  0  0
 33 34  2  0  0  0
  3 14  1  0  0  0
 14 15  1  0  0  0
 14 16  1  0  0  0
 14 17  1  0  0  0
 13  8  1  0  0  0
  6  1  1  0  0  0
 34 25  1  0  0  0
 33 28  1  0  0  0
 19 23  1  0  0  0
 22 24  1  0  0  0
M  END
> <minimizedAffinity>
-8.93034

> <CNNscore>
0.4725354910

> <CNNaffinity>
6.1575260162

> <CNN_VS>
2.9096496105

> <CNNaffinity_variance>
0.0182266068

$$$$
[H]c1nc([H])c2c([H])c([H])c(N([H])C(=O)N([H])C([H])([H])c3c(N4C([H])([H])C([H])([H])C([H])([H])C([H])(C([H])([H])[H])C4([H])[H])nc(C(F)(F)F)c([H])c3[H])c([H])c2c1[H]


 34 37  0  0  0  0  0  0  0  0999 V2000
  155.5655  136.1653  188.4182 C   0  0  0  0  0  0  0  0  0  0  0  0
  155.5304  136.6966  189.6907 N   0  0  0  0  0  0  0  0  0  0  0  0
  154.8230  137.7962  189.9726 C   0  0  0  0  0  0  0  0  0  0  0  0
  154.1142  138.4191  188.9933 C   0  0  0  0  0  0  0  0  0  0  0  0
  154.1424  137.8880  187.6960 C   0  0  0  0  0  0  0  0  0  0  0  0
  154.8673  136.7623  187.4086 C   0  0  0  0  0  0  0  0  0  0  0  0
  159.7863  133.7039  187.6277 C   0  0  0  0  0  0  0  0  0  0  0  0
  158.2832  133.7021  187.8309 C   0  0  0  0  0  0  0  0  0  0  0  0
  157.6351  133.0455  186.6439 C   0  0  0  0  0  0  0  0  0  0  0  0
  156.1479  133.0419  186.8014 C   0  0  0  0  0  0  0  0  0  0  0  0
  155.7268  133.7117  188.1189 C   0  0  0  0  0  0  0  0  0  0  0  0
  156.3212  135.0121  188.1920 N   0  0  0  0  0  0  0  0  0  0  0  0
  157.7528  135.1067  188.0251 C   0  0  0  0  0  0  0  0  0  0  0  0
  154.8294  138.3164  191.3636 C   0  0  0  0  0  0  0  0  0  0  0  0
  155.9028  137.7605  192.0165 F   0  0  0  0  0  0  0  0  0  0  0  0
  154.9650  139.6984  191.3702 F   0  0  0  0  0  0  0  0  0  0  0  0
  153.6843  137.9068  191.9859 F   0  0  0  0  0  0  0  0  0  0  0  0
  154.8958  136.2226  186.0506 C   0  0  0  0  0  0  0  0  0  0  0  0
  153.8952  136.6468  185.1964 N   0  0  0  0  0  0  0  0  0  0  0  0
  152.8971  137.0690  184.3530 C   0  0  0  0  0  0  0  0  0  0  0  0
  151.7417  137.4008  184.7370 O   0  0  0  0  0  0  0  0  0  0  0  0
  153.1335  137.1580  182.9295 N   0  0  0  0  0  0  0  0  0  0  0  0
  153.0376  136.7965  186.2489 H   0  0  0  0  0  0  0  0  0  0  0  0
  154.1142  136.8789  182.6287 H   0  0  0  0  0  0  0  0  0  0  0  0
  152.1935  137.5621  182.0108 C   0  0  0  0  0  0  0  0  0  0  0  0
  152.4448  138.7818  181.3472 C   0  0  0  0  0  0  0  0  0  0  0  0
  151.6096  139.2917  180.3970 C   0  0  0  0  0  0  0  0  0  0  0  0
  150.4744  138.5807  180.0762 C   0  0  0  0  0  0  0  0  0  0  0  0
  149.5935  139.0717  179.1084 C   0  0  0  0  0  0  0  0  0  0  0  0
  148.4793  138.3909  178.7841 N   0  0  0  0  0  0  0  0  0  0  0  0
  148.1640  137.2228  179.3665 C   0  0  0  0  0  0  0  0  0  0  0  0
  149.0334  136.7365  180.3223 C   0  0  0  0  0  0  0  0  0  0  0  0
  150.1724  137.3924  180.6812 C   0  0  0  0  0  0  0  0  0  0  0  0
  151.0617  136.9113  181.6494 C   0  0  0  0  0  0  0  0  0  0  0  0
  7  8  1  0  0  0
  8  9  1  0  0  0
  9 10  1  0  0  0
 10 11  1  0  0  0
 11 12  1  0  0  0
 12 13  1  0  0  0
 12  1  1  0  0  0
  1  2  2  0  0  0
  2  3  1  0  0  0
  3  4  2  0  0  0
  4  5  1  0  0  0
  5  6  2  0  0  0
  6 18  1  0  0  0
 18 19  1  0  0  0
 19 20  1  0  0  0
 20 21  2  0  0  0
 20 22  1  0  0  0
 22 25  1  0  0  0
 25 26  2  0  0  0
 26 27  1  0  0  0
 27 28  2  0  0  0
 28 29  1  0  0  0
 29 30  2  0  0  0
 30 31  1  0  0  0
 31 32  2  0  0  0
 32 33  1  0  0  0
 33 34  2  0  0  0
  3 14  1  0  0  0
 14 15  1  0  0  0
 14 16  1  0  0  0
 14 17  1  0  0  0
 13  8  1  0  0  0
  6  1  1  0  0  0
 34 25  1  0  0  0
 33 28  1  0  0  0
 19 23  1  0  0  0
 22 24  1  0  0  0
M  END
> <minimizedAffinity>
-7.26647

> <CNNscore>
0.4212229252

> <CNNaffinity>
5.7327699661

> <CNN_VS>
2.4147741795

> <CNNaffinity_variance>
0.0338482633

$$$$
[H]c1nc([H])c2c([H])c([H])c(N([H])C(=O)N([H])C([H])([H])c3c(N4C([H])([H])C([H])([H])C([H])([H])C([H])(C([H])([H])[H])C4([H])[H])nc(C(F)(F)F)c([H])c3[H])c([H])c2c1[H]


 34 37  0  0  0  0  0  0  0  0999 V2000
  154.2719  140.0591  182.6280 C   0  0  0  0  0  0  0  0  0  0  0  0
  154.8136  141.2469  182.1827 N   0  0  0  0  0  0  0  0  0  0  0  0
  155.8440  141.8263  182.8083 C   0  0  0  0  0  0  0  0  0  0  0  0
  156.3844  141.2442  183.9123 C   0  0  0  0  0  0  0  0  0  0  0  0
  155.8420  140.0366  184.3741 C   0  0  0  0  0  0  0  0  0  0  0  0
  154.7867  139.4445  183.7327 C   0  0  0  0  0  0  0  0  0  0  0  0
  150.7736  140.0703  179.1265 C   0  0  0  0  0  0  0  0  0  0  0  0
  151.4878  139.3708  180.2672 C   0  0  0  0  0  0  0  0  0  0  0  0
  150.4798  139.0167  181.3249 C   0  0  0  0  0  0  0  0  0  0  0  0
  151.1526  138.3398  182.4762 C   0  0  0  0  0  0  0  0  0  0  0  0
  152.6659  138.2136  182.2398 C   0  0  0  0  0  0  0  0  0  0  0  0
  153.1983  139.5050  181.9260 N   0  0  0  0  0  0  0  0  0  0  0  0
  152.5881  140.2378  180.8412 C   0  0  0  0  0  0  0  0  0  0  0  0
  156.3785  143.1059  182.2769 C   0  0  0  0  0  0  0  0  0  0  0  0
  156.9457  142.8493  181.0521 F   0  0  0  0  0  0  0  0  0  0  0  0
  155.3587  144.0344  182.1150 F   0  0  0  0  0  0  0  0  0  0  0  0
  157.3549  143.5530  183.1214 F   0  0  0  0  0  0  0  0  0  0  0  0
  154.2244  138.1898  184.2284 C   0  0  0  0  0  0  0  0  0  0  0  0
  153.8082  138.1776  185.5464 N   0  0  0  0  0  0  0  0  0  0  0  0
  153.3923  138.1716  186.8552 C   0  0  0  0  0  0  0  0  0  0  0  0
  152.7995  139.1366  187.4120 O   0  0  0  0  0  0  0  0  0  0  0  0
  153.6221  137.0130  187.6888 N   0  0  0  0  0  0  0  0  0  0  0  0
  153.3131  139.4442  185.4190 H   0  0  0  0  0  0  0  0  0  0  0  0
  154.1181  136.2106  187.1986 H   0  0  0  0  0  0  0  0  0  0  0  0
  153.2483  136.9205  189.0088 C   0  0  0  0  0  0  0  0  0  0  0  0
  154.1628  137.4221  189.9592 C   0  0  0  0  0  0  0  0  0  0  0  0
  153.9131  137.4151  191.3001 C   0  0  0  0  0  0  0  0  0  0  0  0
  152.7155  136.8951  191.7384 C   0  0  0  0  0  0  0  0  0  0  0  0
  152.4242  136.8692  193.1052 C   0  0  0  0  0  0  0  0  0  0  0  0
  151.2599  136.3633  193.5508 N   0  0  0  0  0  0  0  0  0  0  0  0
  150.3339  135.8655  192.7154 C   0  0  0  0  0  0  0  0  0  0  0  0
  150.6201  135.8907  191.3650 C   0  0  0  0  0  0  0  0  0  0  0  0
  151.7859  136.3936  190.8703 C   0  0  0  0  0  0  0  0  0  0  0  0
  152.0891  136.4240  189.5040 C   0  0  0  0  0  0  0  0  0  0  0  0
  7  8  1  0  0  0
  8  9  1  0  0  0
  9 10  1  0  0  0
 10 11  1  0  0  0
 11 12  1  0  0  0
 12 13  1  0  0  0
 12  1  1  0  0  0
  1  2  2  0  0  0
  2  3  1  0  0  0
  3  4  2  0  0  0
  4  5  1  0  0  0
  5  6  2  0  0  0
  6 18  1  0  0  0
 18 19  1  0  0  0
 19 20  1  0  0  0
 20 21  2  0  0  0
 20 22  1  0  0  0
 22 25  1  0  0  0
 25 26  2  0  0  0
 26 27  1  0  0  0
 27 28  2  0  0  0
 28 29  1  0  0  0
 29 30  2  0  0  0
 30 31  1  0  0  0
 31 32  2  0  0  0
 32 33  1  0  0  0
 33 34  2  0  0  0
  3 14  1  0  0  0
 14 15  1  0  0  0
 14 16  1  0  0  0
 14 17  1  0  0  0
 13  8  1  0  0  0
  6  1  1  0  0  0
 34 25  1  0  0  0
 33 28  1  0  0  0
 19 23  1  0  0  0
 22 24  1  0  0  0
M  END
> <minimizedAffinity>
-8.84486

> <CNNscore>
0.2820510566

> <CNNaffinity>
5.8219809532

> <CNN_VS>
1.6420959234

> <CNNaffinity_variance>
0.0337706022

$$$$
[H]c1nc([H])c2c([H])c([H])c(N([H])C(=O)N([H])C([H])([H])c3c(N4C([H])([H])C([H])([H])C([H])([H])C([H])(C([H])([H])[H])C4([H])[H])nc(C(F)(F)F)c([H])c3[H])c([H])c2c1[H]


 34 37  0  0  0  0  0  0  0  0999 V2000
  156.8305  141.0560  184.2979 C   0  0  0  0  0  0  0  0  0  0  0  0
  156.1218  142.0828  183.7096 N   0  0  0  0  0  0  0  0  0  0  0  0
  154.8181  141.9676  183.4339 C   0  0  0  0  0  0  0  0  0  0  0  0
  154.1581  140.8170  183.7344 C   0  0  0  0  0  0  0  0  0  0  0  0
  154.8682  139.7665  184.3325 C   0  0  0  0  0  0  0  0  0  0  0  0
  156.2031  139.8857  184.6141 C   0  0  0  0  0  0  0  0  0  0  0  0
  160.6456  142.8380  186.8996 C   0  0  0  0  0  0  0  0  0  0  0  0
  160.1165  142.0183  185.7383 C   0  0  0  0  0  0  0  0  0  0  0  0
  160.6845  142.5679  184.4593 C   0  0  0  0  0  0  0  0  0  0  0  0
  160.1691  141.7935  183.2883 C   0  0  0  0  0  0  0  0  0  0  0  0
  159.2133  140.6769  183.7374 C   0  0  0  0  0  0  0  0  0  0  0  0
  158.1896  141.2430  184.5628 N   0  0  0  0  0  0  0  0  0  0  0  0
  158.6031  142.0277  185.7028 C   0  0  0  0  0  0  0  0  0  0  0  0
  154.1152  143.1112  182.7987 C   0  0  0  0  0  0  0  0  0  0  0  0
  153.5607  143.8730  183.7986 F   0  0  0  0  0  0  0  0  0  0  0  0
  155.0057  143.8950  182.0768 F   0  0  0  0  0  0  0  0  0  0  0  0
  153.1072  142.6218  182.0172 F   0  0  0  0  0  0  0  0  0  0  0  0
  156.9348  138.7807  185.2303 C   0  0  0  0  0  0  0  0  0  0  0  0
  156.3760  138.2280  186.3674 N   0  0  0  0  0  0  0  0  0  0  0  0
  155.8253  137.6739  187.4968 C   0  0  0  0  0  0  0  0  0  0  0  0
  156.2207  136.5952  188.0187 O   0  0  0  0  0  0  0  0  0  0  0  0
  154.7242  138.3275  188.1679 N   0  0  0  0  0  0  0  0  0  0  0  0
  157.2478  137.1783  186.3054 H   0  0  0  0  0  0  0  0  0  0  0  0
  154.4106  139.2366  187.7146 H   0  0  0  0  0  0  0  0  0  0  0  0
  154.1066  137.8435  189.2972 C   0  0  0  0  0  0  0  0  0  0  0  0
  154.6883  138.1961  190.5336 C   0  0  0  0  0  0  0  0  0  0  0  0
  154.1692  137.8049  191.7326 C   0  0  0  0  0  0  0  0  0  0  0  0
  153.0284  137.0331  191.7295 C   0  0  0  0  0  0  0  0  0  0  0  0
  152.4675  136.6115  192.9384 C   0  0  0  0  0  0  0  0  0  0  0  0
  151.3545  135.8558  192.9536 N   0  0  0  0  0  0  0  0  0  0  0  0
  150.7370  135.4752  191.8235 C   0  0  0  0  0  0  0  0  0  0  0  0
  151.2897  135.8912  190.6287 C   0  0  0  0  0  0  0  0  0  0  0  0
  152.4150  136.6570  190.5669 C   0  0  0  0  0  0  0  0  0  0  0  0
  152.9864  137.0845  189.3625 C   0  0  0  0  0  0  0  0  0  0  0  0
  7  8  1  0  0  0
  8  9  1  0  0  0
  9 10  1  0  0  0
 10 11  1  0  0  0
 11 12  1  0  0  0
 12 13  1  0  0  0
 12  1  1  0  0  0
  1  2  2  0  0  0
  2  3  1  0  0  0
  3  4  2  0  0  0
  4  5  1  0  0  0
  5  6  2  0  0  0
  6 18  1  0  0  0
 18 19  1  0  0  0
 19 20  1  0  0  0
 20 21  2  0  0  0
 20 22  1  0  0  0
 22 25  1  0  0  0
 25 26  2  0  0  0
 26 27  1  0  0  0
 27 28  2  0  0  0
 28 29  1  0  0  0
 29 30  2  0  0  0
 30 31  1  0  0  0
 31 32  2  0  0  0
 32 33  1  0  0  0
 33 34  2  0  0  0
  3 14  1  0  0  0
 14 15  1  0  0  0
 14 16  1  0  0  0
 14 17  1  0  0  0
 13  8  1  0  0  0
  6  1  1  0  0  0
 34 25  1  0  0  0
 33 28  1  0  0  0
 19 23  1  0  0  0
 22 24  1  0  0  0
M  END
> <minimizedAffinity>
-9.21636

> <CNNscore>
0.2780824006

> <CNNaffinity>
6.4482026100

> <CNN_VS>
1.7931317091

> <CNNaffinity_variance>
0.0600085743

$$$$
[H]c1nc([H])c2c([H])c([H])c(N([H])C(=O)N([H])C([H])([H])c3c(N4C([H])([H])C([H])([H])C([H])([H])C([H])(C([H])([H])[H])C4([H])[H])nc(C(F)(F)F)c([H])c3[H])c([H])c2c1[H]


 34 37  0  0  0  0  0  0  0  0999 V2000
  155.3827  136.6010  188.0500 C   0  0  0  0  0  0  0  0  0  0  0  0
  155.4324  136.8036  189.4135 N   0  0  0  0  0  0  0  0  0  0  0  0
  154.7609  137.8007  189.9997 C   0  0  0  0  0  0  0  0  0  0  0  0
  154.0046  138.6456  189.2487 C   0  0  0  0  0  0  0  0  0  0  0  0
  153.9465  138.4494  187.8618 C   0  0  0  0  0  0  0  0  0  0  0  0
  154.6349  137.4281  187.2628 C   0  0  0  0  0  0  0  0  0  0  0  0
  155.8145  132.1623  185.9028 C   0  0  0  0  0  0  0  0  0  0  0  0
  156.4531  133.4271  186.4442 C   0  0  0  0  0  0  0  0  0  0  0  0
  157.4477  133.0506  187.5068 C   0  0  0  0  0  0  0  0  0  0  0  0
  158.0858  134.2769  188.0775 C   0  0  0  0  0  0  0  0  0  0  0  0
  157.5341  135.5497  187.4160 C   0  0  0  0  0  0  0  0  0  0  0  0
  156.1050  135.5381  187.5017 N   0  0  0  0  0  0  0  0  0  0  0  0
  155.4110  134.3772  186.9948 C   0  0  0  0  0  0  0  0  0  0  0  0
  154.8589  137.9634  191.4726 C   0  0  0  0  0  0  0  0  0  0  0  0
  153.7295  137.4175  192.0329 F   0  0  0  0  0  0  0  0  0  0  0  0
  155.9732  137.2984  191.9668 F   0  0  0  0  0  0  0  0  0  0  0  0
  154.8839  139.2984  191.7615 F   0  0  0  0  0  0  0  0  0  0  0  0
  154.5732  137.2385  185.8149 C   0  0  0  0  0  0  0  0  0  0  0  0
  155.0163  138.2901  185.0349 N   0  0  0  0  0  0  0  0  0  0  0  0
  155.4501  139.3366  184.2586 C   0  0  0  0  0  0  0  0  0  0  0  0
  154.6809  140.1263  183.6445 O   0  0  0  0  0  0  0  0  0  0  0  0
  156.8644  139.5934  184.1040 N   0  0  0  0  0  0  0  0  0  0  0  0
  153.7282  138.6318  184.7350 H   0  0  0  0  0  0  0  0  0  0  0  0
  157.4936  138.9198  184.6336 H   0  0  0  0  0  0  0  0  0  0  0  0
  157.3894  140.6108  183.3426 C   0  0  0  0  0  0  0  0  0  0  0  0
  157.8450  141.7495  184.0405 C   0  0  0  0  0  0  0  0  0  0  0  0
  158.4080  142.8231  183.4153 C   0  0  0  0  0  0  0  0  0  0  0  0
  158.5344  142.7878  182.0442 C   0  0  0  0  0  0  0  0  0  0  0  0
  159.1049  143.8697  181.3678 C   0  0  0  0  0  0  0  0  0  0  0  0
  159.2345  143.8525  180.0287 N   0  0  0  0  0  0  0  0  0  0  0  0
  158.8276  142.8093  179.2875 C   0  0  0  0  0  0  0  0  0  0  0  0
  158.2642  141.7399  179.9544 C   0  0  0  0  0  0  0  0  0  0  0  0
  158.1138  141.7150  181.3084 C   0  0  0  0  0  0  0  0  0  0  0  0
  157.5431  140.6378  181.9968 C   0  0  0  0  0  0  0  0  0  0  0  0
  7  8  1  0  0  0
  8  9  1  0  0  0
  9 10  1  0  0  0
 10 11  1  0  0  0
 11 12  1  0  0  0
 12 13  1  0  0  0
 12  1  1  0  0  0
  1  2  2  0  0  0
  2  3  1  0  0  0
  3  4  2  0  0  0
  4  5  1  0  0  0
  5  6  2  0  0  0
  6 18  1  0  0  0
 18 19  1  0  0  0
 19 20  1  0  0  0
 20 21  2  0  0  0
 20 22  1  0  0  0
 22 25  1  0  0  0
 25 26  2  0  0  0
 26 27  1  0  0  0
 27 28  2  0  0  0
 28 29  1  0  0  0
 29 30  2  0  0  0
 30 31  1  0  0  0
 31 32  2  0  0  0
 32 33  1  0  0  0
 33 34  2  0  0  0
  3 14  1  0  0  0
 14 15  1  0  0  0
 14 16  1  0  0  0
 14 17  1  0  0  0
 13  8  1  0  0  0
  6  1  1  0  0  0
 34 25  1  0  0  0
 33 28  1  0  0  0
 19 23  1  0  0  0
 22 24  1  0  0  0
M  END
> <minimizedAffinity>
-8.29666

> <CNNscore>
0.2778621316

> <CNNaffinity>
6.2648367882

> <CNN_VS>
1.7407609224

> <CNNaffinity_variance>
0.0550227650

$$$$
[H]c1nc([H])c2c([H])c([H])c(N([H])C(=O)N([H])C([H])([H])c3c(N4C([H])([H])C([H])([H])C([H])([H])C([H])(C([H])([H])[H])C4([H])[H])nc(C(F)(F)F)c([H])c3[H])c([H])c2c1[H]


 34 37  0  0  0  0  0  0  0  0999 V2000
  153.6237  137.0674  187.9655 C   0  0  0  0  0  0  0  0  0  0  0  0
  153.7349  137.2295  189.3308 N   0  0  0  0  0  0  0  0  0  0  0  0
  154.8343  137.7483  189.8886 C   0  0  0  0  0  0  0  0  0  0  0  0
  155.8783  138.1316  189.1059 C   0  0  0  0  0  0  0  0  0  0  0  0
  155.7767  137.9716  187.7168 C   0  0  0  0  0  0  0  0  0  0  0  0
  154.6505  137.4400  187.1470 C   0  0  0  0  0  0  0  0  0  0  0  0
  150.6802  133.3261  186.6100 C   0  0  0  0  0  0  0  0  0  0  0  0
  150.9197  134.8144  186.7778 C   0  0  0  0  0  0  0  0  0  0  0  0
  150.7402  135.4869  185.4452 C   0  0  0  0  0  0  0  0  0  0  0  0
  150.9869  136.9567  185.5689 C   0  0  0  0  0  0  0  0  0  0  0  0
  151.3541  137.3394  187.0114 C   0  0  0  0  0  0  0  0  0  0  0  0
  152.4462  136.5226  187.4471 N   0  0  0  0  0  0  0  0  0  0  0  0
  152.2989  135.0898  187.3381 C   0  0  0  0  0  0  0  0  0  0  0  0
  154.8891  137.8942  191.3655 C   0  0  0  0  0  0  0  0  0  0  0  0
  154.8798  139.2368  191.6569 F   0  0  0  0  0  0  0  0  0  0  0  0
  153.7848  137.2971  191.9591 F   0  0  0  0  0  0  0  0  0  0  0  0
  156.0658  137.3622  191.8112 F   0  0  0  0  0  0  0  0  0  0  0  0
  154.5593  137.2703  185.6982 C   0  0  0  0  0  0  0  0  0  0  0  0
  155.0103  138.3226  184.9236 N   0  0  0  0  0  0  0  0  0  0  0  0
  155.4521  139.3696  184.1525 C   0  0  0  0  0  0  0  0  0  0  0  0
  154.6901  140.1455  183.5123 O   0  0  0  0  0  0  0  0  0  0  0  0
  156.8667  139.6432  184.0348 N   0  0  0  0  0  0  0  0  0  0  0  0
  153.7268  138.6459  184.5864 H   0  0  0  0  0  0  0  0  0  0  0  0
  157.4896  138.9811  184.5858 H   0  0  0  0  0  0  0  0  0  0  0  0
  157.3996  140.6625  183.2812 C   0  0  0  0  0  0  0  0  0  0  0  0
  157.8202  141.8119  183.9835 C   0  0  0  0  0  0  0  0  0  0  0  0
  158.3864  142.8887  183.3668 C   0  0  0  0  0  0  0  0  0  0  0  0
  158.5520  142.8458  182.0001 C   0  0  0  0  0  0  0  0  0  0  0  0
  159.1271  143.9306  181.3323 C   0  0  0  0  0  0  0  0  0  0  0  0
  159.2947  143.9061  179.9976 N   0  0  0  0  0  0  0  0  0  0  0  0
  158.9228  142.8526  179.2526 C   0  0  0  0  0  0  0  0  0  0  0  0
  158.3549  141.7802  179.9110 C   0  0  0  0  0  0  0  0  0  0  0  0
  158.1665  141.7625  181.2604 C   0  0  0  0  0  0  0  0  0  0  0  0
  157.5910  140.6824  181.9401 C   0  0  0  0  0  0  0  0  0  0  0  0
  7  8  1  0  0  0
  8  9  1  0  0  0
  9 10  1  0  0  0
 10 11  1  0  0  0
 11 12  1  0  0  0
 12 13  1  0  0  0
 12  1  1  0  0  0
  1  2  2  0  0  0
  2  3  1  0  0  0
  3  4  2  0  0  0
  4  5  1  0  0  0
  5  6  2  0  0  0
  6 18  1  0  0  0
 18 19  1  0  0  0
 19 20  1  0  0  0
 20 21  2  0  0  0
 20 22  1  0  0  0
 22 25  1  0  0  0
 25 26  2  0  0  0
 26 27  1  0  0  0
 27 28  2  0  0  0
 28 29  1  0  0  0
 29 30  2  0  0  0
 30 31  1  0  0  0
 31 32  2  0  0  0
 32 33  1  0  0  0
 33 34  2  0  0  0
  3 14  1  0  0  0
 14 15  1  0  0  0
 14 16  1  0  0  0
 14 17  1  0  0  0
 13  8  1  0  0  0
  6  1  1  0  0  0
 34 25  1  0  0  0
 33 28  1  0  0  0
 19 23  1  0  0  0
 22 24  1  0  0  0
M  END
> <minimizedAffinity>
-8.03856

> <CNNscore>
0.2618872225

> <CNNaffinity>
6.2361474037

> <CNN_VS>
1.6331672668

> <CNNaffinity_variance>
0.0449222848

$$$$
[H]c1nc([H])c2c([H])c([H])c(N([H])C(=O)N([H])C([H])([H])c3c(N4C([H])([H])C([H])([H])C([H])([H])C([H])(C([H])([H])[H])C4([H])[H])nc(C(F)(F)F)c([H])c3[H])c([H])c2c1[H]


 34 37  0  0  0  0  0  0  0  0999 V2000
  155.6385  136.3207  188.6416 C   0  0  0  0  0  0  0  0  0  0  0  0
  155.0739  135.9351  189.8396 N   0  0  0  0  0  0  0  0  0  0  0  0
  154.3307  136.7756  190.5677 C   0  0  0  0  0  0  0  0  0  0  0  0
  154.1151  138.0456  190.1317 C   0  0  0  0  0  0  0  0  0  0  0  0
  154.6840  138.4488  188.9154 C   0  0  0  0  0  0  0  0  0  0  0  0
  155.4451  137.5873  188.1710 C   0  0  0  0  0  0  0  0  0  0  0  0
  156.2422  132.5514  185.4910 C   0  0  0  0  0  0  0  0  0  0  0  0
  156.8344  133.6009  186.4121 C   0  0  0  0  0  0  0  0  0  0  0  0
  157.6738  132.9135  187.4528 C   0  0  0  0  0  0  0  0  0  0  0  0
  158.2607  133.9184  188.3920 C   0  0  0  0  0  0  0  0  0  0  0  0
  157.8290  135.3457  188.0198 C   0  0  0  0  0  0  0  0  0  0  0  0
  156.4011  135.3923  187.9283 N   0  0  0  0  0  0  0  0  0  0  0  0
  155.7519  134.4375  187.0604 C   0  0  0  0  0  0  0  0  0  0  0  0
  153.7530  136.2964  191.8492 C   0  0  0  0  0  0  0  0  0  0  0  0
  154.7855  135.8396  192.6321 F   0  0  0  0  0  0  0  0  0  0  0  0
  153.1077  137.3308  192.5139 F   0  0  0  0  0  0  0  0  0  0  0  0
  152.9150  135.2507  191.5839 F   0  0  0  0  0  0  0  0  0  0  0  0
  156.0399  138.0215  186.9085 C   0  0  0  0  0  0  0  0  0  0  0  0
  155.1617  138.3689  185.8992 N   0  0  0  0  0  0  0  0  0  0  0  0
  154.2909  138.7204  184.8971 C   0  0  0  0  0  0  0  0  0  0  0  0
  154.1246  139.9029  184.4891 O   0  0  0  0  0  0  0  0  0  0  0  0
  153.4938  137.7118  184.2358 N   0  0  0  0  0  0  0  0  0  0  0  0
  155.5088  139.6837  186.0273 H   0  0  0  0  0  0  0  0  0  0  0  0
  153.6533  136.7228  184.5915 H   0  0  0  0  0  0  0  0  0  0  0  0
  152.5928  137.9715  183.2301 C   0  0  0  0  0  0  0  0  0  0  0  0
  151.3224  137.3693  183.3513 C   0  0  0  0  0  0  0  0  0  0  0  0
  150.3254  137.5575  182.4398 C   0  0  0  0  0  0  0  0  0  0  0  0
  150.5758  138.3714  181.3572 C   0  0  0  0  0  0  0  0  0  0  0  0
  149.5795  138.5873  180.4010 C   0  0  0  0  0  0  0  0  0  0  0  0
  149.8077  139.3779  179.3366 N   0  0  0  0  0  0  0  0  0  0  0  0
  150.9875  139.9895  179.1440 C   0  0  0  0  0  0  0  0  0  0  0  0
  151.9725  139.7774  180.0878 C   0  0  0  0  0  0  0  0  0  0  0  0
  151.7847  138.9852  181.1804 C   0  0  0  0  0  0  0  0  0  0  0  0
  152.7750  138.7607  182.1441 C   0  0  0  0  0  0  0  0  0  0  0  0
  7  8  1  0  0  0
  8  9  1  0  0  0
  9 10  1  0  0  0
 10 11  1  0  0  0
 11 12  1  0  0  0
 12 13  1  0  0  0
 12  1  1  0  0  0
  1  2  2  0  0  0
  2  3  1  0  0  0
  3  4  2  0  0  0
  4  5  1  0  0  0
  5  6  2  0  0  0
  6 18  1  0  0  0
 18 19  1  0  0  0
 19 20  1  0  0  0
 20 21  2  0  0  0
 20 22  1  0  0  0
 22 25  1  0  0  0
 25 26  2  0  0  0
 26 27  1  0  0  0
 27 28  2  0  0  0
 28 29  1  0  0  0
 29 30  2  0  0  0
 30 31  1  0  0  0
 31 32  2  0  0  0
 32 33  1  0  0  0
 33 34  2  0  0  0
  3 14  1  0  0  0
 14 15  1  0  0  0
 14 16  1  0  0  0
 14 17  1  0  0  0
 13  8  1  0  0  0
  6  1  1  0  0  0
 34 25  1  0  0  0
 33 28  1  0  0  0
 19 23  1  0  0  0
 22 24  1  0  0  0
M  END
> <minimizedAffinity>
-7.43058

> <CNNscore>
0.2592600882

> <CNNaffinity>
5.7880811691

> <CNN_VS>
1.5006184578

> <CNNaffinity_variance>
0.0463383310

$$$$
[H]c1nc([H])c2c([H])c([H])c(N([H])C(=O)N([H])C([H])([H])c3c(N4C([H])([H])C([H])([H])C([H])([H])C([H])(C([H])([H])[H])C4([H])[H])nc(C(F)(F)F)c([H])c3[H])c([H])c2c1[H]


 34 37  0  0  0  0  0  0  0  0999 V2000
  154.9612  135.5583  190.5582 C   0  0  0  0  0  0  0  0  0  0  0  0
  154.2383  134.8921  191.5257 N   0  0  0  0  0  0  0  0  0  0  0  0
  153.3679  135.5306  192.3155 C   0  0  0  0  0  0  0  0  0  0  0  0
  153.1774  136.8699  192.1751 C   0  0  0  0  0  0  0  0  0  0  0  0
  153.9067  137.5576  191.1950 C   0  0  0  0  0  0  0  0  0  0  0  0
  154.7978  136.9027  190.3872 C   0  0  0  0  0  0  0  0  0  0  0  0
  159.3649  133.5548  189.5134 C   0  0  0  0  0  0  0  0  0  0  0  0
  157.9117  133.7942  189.1509 C   0  0  0  0  0  0  0  0  0  0  0  0
  157.8518  134.4562  187.8025 C   0  0  0  0  0  0  0  0  0  0  0  0
  156.4314  134.7246  187.4194 C   0  0  0  0  0  0  0  0  0  0  0  0
  155.4616  134.2521  188.5140 C   0  0  0  0  0  0  0  0  0  0  0  0
  155.8513  134.8308  189.7641 N   0  0  0  0  0  0  0  0  0  0  0  0
  157.2161  134.6394  190.1967 C   0  0  0  0  0  0  0  0  0  0  0  0
  152.6229  134.7532  193.3382 C   0  0  0  0  0  0  0  0  0  0  0  0
  151.3099  135.1557  193.2995 F   0  0  0  0  0  0  0  0  0  0  0  0
  152.6852  133.3935  193.0629 F   0  0  0  0  0  0  0  0  0  0  0  0
  153.1324  135.0547  194.5694 F   0  0  0  0  0  0  0  0  0  0  0  0
  155.5585  137.6318  189.3744 C   0  0  0  0  0  0  0  0  0  0  0  0
  154.8597  138.0444  188.2554 N   0  0  0  0  0  0  0  0  0  0  0  0
  154.1601  138.4558  187.1476 C   0  0  0  0  0  0  0  0  0  0  0  0
  152.9681  138.8688  187.1786 O   0  0  0  0  0  0  0  0  0  0  0  0
  154.7820  138.4353  185.8426 N   0  0  0  0  0  0  0  0  0  0  0  0
  153.7587  138.3075  189.0198 H   0  0  0  0  0  0  0  0  0  0  0  0
  155.7870  138.0889  185.8403 H   0  0  0  0  0  0  0  0  0  0  0  0
  154.1576  138.8205  184.6796 C   0  0  0  0  0  0  0  0  0  0  0  0
  154.5068  140.0880  184.1671 C   0  0  0  0  0  0  0  0  0  0  0  0
  153.9826  140.5877  183.0113 C   0  0  0  0  0  0  0  0  0  0  0  0
  153.0743  139.8170  182.3197 C   0  0  0  0  0  0  0  0  0  0  0  0
  152.5142  140.2955  181.1319 C   0  0  0  0  0  0  0  0  0  0  0  0
  151.6243  139.5566  180.4446 N   0  0  0  0  0  0  0  0  0  0  0  0
  151.2366  138.3403  180.8609 C   0  0  0  0  0  0  0  0  0  0  0  0
  151.7893  137.8662  182.0338 C   0  0  0  0  0  0  0  0  0  0  0  0
  152.6935  138.5803  182.7612 C   0  0  0  0  0  0  0  0  0  0  0  0
  153.2605  138.1121  183.9524 C   0  0  0  0  0  0  0  0  0  0  0  0
  7  8  1  0  0  0
  8  9  1  0  0  0
  9 10  1  0  0  0
 10 11  1  0  0  0
 11 12  1  0  0  0
 12 13  1  0  0  0
 12  1  1  0  0  0
  1  2  2  0  0  0
  2  3  1  0  0  0
  3  4  2  0  0  0
  4  5  1  0  0  0
  5  6  2  0  0  0
  6 18  1  0  0  0
 18 19  1  0  0  0
 19 20  1  0  0  0
 20 21  2  0  0  0
 20 22  1  0  0  0
 22 25  1  0  0  0
 25 26  2  0  0  0
 26 27  1  0  0  0
 27 28  2  0  0  0
 28 29  1  0  0  0
 29 30  2  0  0  0
 30 31  1  0  0  0
 31 32  2  0  0  0
 32 33  1  0  0  0
 33 34  2  0  0  0
  3 14  1  0  0  0
 14 15  1  0  0  0
 14 16  1  0  0  0
 14 17  1  0  0  0
 13  8  1  0  0  0
  6  1  1  0  0  0
 34 25  1  0  0  0
 33 28  1  0  0  0
 19 23  1  0  0  0
 22 24  1  0  0  0
M  END
> <minimizedAffinity>
-7.57981

> <CNNscore>
0.2573730648

> <CNNaffinity>
5.7476630211

> <CNN_VS>
1.4792937040

> <CNNaffinity_variance>
0.0836079270

$$$$
[H]c1nc([H])c2c([H])c([H])c(N([H])C(=O)N([H])C([H])([H])c3c(N4C([H])([H])C([H])([H])C([H])([H])C([H])(C([H])([H])[H])C4([H])[H])nc(C(F)(F)F)c([H])c3[H])c([H])c2c1[H]


 34 37  0  0  0  0  0  0  0  0999 V2000
  153.9431  138.0033  185.2463 C   0  0  0  0  0  0  0  0  0  0  0  0
  154.3075  139.2300  184.7316 N   0  0  0  0  0  0  0  0  0  0  0  0
  153.8655  139.6509  183.5415 C   0  0  0  0  0  0  0  0  0  0  0  0
  153.0350  138.8635  182.8067 C   0  0  0  0  0  0  0  0  0  0  0  0
  152.6579  137.6144  183.3198 C   0  0  0  0  0  0  0  0  0  0  0  0
  153.1114  137.1846  184.5384 C   0  0  0  0  0  0  0  0  0  0  0  0
  154.5811  138.5586  190.1231 C   0  0  0  0  0  0  0  0  0  0  0  0
  154.8000  137.7597  188.8526 C   0  0  0  0  0  0  0  0  0  0  0  0
  156.2777  137.5793  188.6426 C   0  0  0  0  0  0  0  0  0  0  0  0
  156.5326  136.8095  187.3861 C   0  0  0  0  0  0  0  0  0  0  0  0
  155.2164  136.4391  186.6843 C   0  0  0  0  0  0  0  0  0  0  0  0
  154.4374  137.6257  186.4975 N   0  0  0  0  0  0  0  0  0  0  0  0
  154.1660  138.4410  187.6584 C   0  0  0  0  0  0  0  0  0  0  0  0
  154.2976  140.9823  183.0454 C   0  0  0  0  0  0  0  0  0  0  0  0
  153.5004  141.3128  181.9764 F   0  0  0  0  0  0  0  0  0  0  0  0
  154.1481  141.9465  184.0335 F   0  0  0  0  0  0  0  0  0  0  0  0
  155.5887  140.8855  182.6095 F   0  0  0  0  0  0  0  0  0  0  0  0
  152.7180  135.8769  185.0593 C   0  0  0  0  0  0  0  0  0  0  0  0
  152.0856  135.8665  186.2883 N   0  0  0  0  0  0  0  0  0  0  0  0
  151.4517  135.8587  187.5066 C   0  0  0  0  0  0  0  0  0  0  0  0
  150.2697  136.2608  187.6899 O   0  0  0  0  0  0  0  0  0  0  0  0
  152.1358  135.3685  188.6821 N   0  0  0  0  0  0  0  0  0  0  0  0
  150.9597  136.4036  185.7319 H   0  0  0  0  0  0  0  0  0  0  0  0
  153.1278  135.0303  188.5040 H   0  0  0  0  0  0  0  0  0  0  0  0
  151.5843  135.3301  189.9411 C   0  0  0  0  0  0  0  0  0  0  0  0
  151.7732  136.4731  190.7468 C   0  0  0  0  0  0  0  0  0  0  0  0
  151.2631  136.5812  192.0071 C   0  0  0  0  0  0  0  0  0  0  0  0
  150.5333  135.5262  192.5087 C   0  0  0  0  0  0  0  0  0  0  0  0
  149.9957  135.5992  193.7968 C   0  0  0  0  0  0  0  0  0  0  0  0
  149.2818  134.5773  194.3030 N   0  0  0  0  0  0  0  0  0  0  0  0
  149.0542  133.4532  193.6046 C   0  0  0  0  0  0  0  0  0  0  0  0
  149.5843  133.3799  192.3320 C   0  0  0  0  0  0  0  0  0  0  0  0
  150.3129  134.3905  191.7802 C   0  0  0  0  0  0  0  0  0  0  0  0
  150.8570  134.3286  190.4918 C   0  0  0  0  0  0  0  0  0  0  0  0
  7  8  1  0  0  0
  8  9  1  0  0  0
  9 10  1  0  0  0
 10 11  1  0  0  0
 11 12  1  0  0  0
 12 13  1  0  0  0
 12  1  1  0  0  0
  1  2  2  0  0  0
  2  3  1  0  0  0
  3  4  2  0  0  0
  4  5  1  0  0  0
  5  6  2  0  0  0
  6 18  1  0  0  0
 18 19  1  0  0  0
 19 20  1  0  0  0
 20 21  2  0  0  0
 20 22  1  0  0  0
 22 25  1  0  0  0
 25 26  2  0  0  0
 26 27  1  0  0  0
 27 28  2  0  0  0
 28 29  1  0  0  0
 29 30  2  0  0  0
 30 31  1  0  0  0
 31 32  2  0  0  0
 32 33  1  0  0  0
 33 34  2  0  0  0
  3 14  1  0  0  0
 14 15  1  0  0  0
 14 16  1  0  0  0
 14 17  1  0  0  0
 13  8  1  0  0  0
  6  1  1  0  0  0
 34 25  1  0  0  0
 33 28  1  0  0  0
 19 23  1  0  0  0
 22 24  1  0  0  0
M  END
> <minimizedAffinity>
-6.58432

> <CNNscore>
0.2530124485

> <CNNaffinity>
5.7954607010

> <CNN_VS>
1.4663237333

> <CNNaffinity_variance>
0.0435604602

$$$$
[H]C1=C(c2c([H])c([H])c(N([H])C(=O)c3nc([H])c(C([H])([H])OS(=O)(=O)C([H])([H])[H])o3)c([H])c2[H])C([H])([H])C([H])([H])N(c2c([H])c([H])c([H])c([H])c2C(F)(F)F)C1([H])[H]


 37 40  0  0  0  0  0  0  0  0999 V2000
  154.2871  138.4030  184.6105 C   0  0  0  0  0  0  0  0  0  0  0  0
  153.3586  137.6747  183.8645 C   0  0  0  0  0  0  0  0  0  0  0  0
  152.3138  136.9717  184.4205 C   0  0  0  0  0  0  0  0  0  0  0  0
  152.1497  136.9678  185.7824 C   0  0  0  0  0  0  0  0  0  0  0  0
  153.0529  137.6804  186.5693 C   0  0  0  0  0  0  0  0  0  0  0  0
  154.0943  138.3777  185.9652 C   0  0  0  0  0  0  0  0  0  0  0  0
  151.0556  136.2234  186.3858 C   0  0  0  0  0  0  0  0  0  0  0  0
  151.1206  134.9224  186.4985 C   0  0  0  0  0  0  0  0  0  0  0  0
  150.0280  134.1025  187.1082 C   0  0  0  0  0  0  0  0  0  0  0  0
  148.8871  134.8725  187.5011 N   0  0  0  0  0  0  0  0  0  0  0  0
  148.6567  136.1695  186.9611 C   0  0  0  0  0  0  0  0  0  0  0  0
  149.8885  136.9881  186.8489 C   0  0  0  0  0  0  0  0  0  0  0  0
  147.9559  134.3092  188.4205 C   0  0  0  0  0  0  0  0  0  0  0  0
  146.8293  133.7316  187.7985 C   0  0  0  0  0  0  0  0  0  0  0  0
  145.8805  133.1010  188.5300 C   0  0  0  0  0  0  0  0  0  0  0  0
  146.0208  133.0252  189.8938 C   0  0  0  0  0  0  0  0  0  0  0  0
  147.0966  133.5730  190.5312 C   0  0  0  0  0  0  0  0  0  0  0  0
  148.0770  134.2273  189.7645 C   0  0  0  0  0  0  0  0  0  0  0  0
  149.2013  134.8740  190.4675 C   0  0  0  0  0  0  0  0  0  0  0  0
  150.3622  134.1326  190.1805 F   0  0  0  0  0  0  0  0  0  0  0  0
  149.3592  136.1750  190.1458 F   0  0  0  0  0  0  0  0  0  0  0  0
  149.0733  134.7661  191.8538 F   0  0  0  0  0  0  0  0  0  0  0  0
  155.2946  140.4023  183.4230 C   0  0  0  0  0  0  0  0  0  0  0  0
  154.2926  141.1246  183.4355 O   0  0  0  0  0  0  0  0  0  0  0  0
  155.3209  139.1182  183.9714 N   0  0  0  0  0  0  0  0  0  0  0  0
  156.2579  138.5721  183.9046 H   0  0  0  0  0  0  0  0  0  0  0  0
  158.5727  141.5790  182.5330 C   0  0  0  0  0  0  0  0  0  0  0  0
  157.8994  141.7519  181.3254 C   0  0  0  0  0  0  0  0  0  0  0  0
  156.6402  141.3416  181.5289 N   0  0  0  0  0  0  0  0  0  0  0  0
  156.5171  140.9292  182.7954 C   0  0  0  0  0  0  0  0  0  0  0  0
  157.6938  141.0869  183.3635 O   0  0  0  0  0  0  0  0  0  0  0  0
  160.0178  141.9012  182.8003 C   0  0  0  0  0  0  0  0  0  0  0  0
  160.4029  141.3409  183.9910 O   0  0  0  0  0  0  0  0  0  0  0  0
  160.0423  142.4038  186.6333 C   0  0  0  0  0  0  0  0  0  0  0  0
  160.8429  142.5678  185.0456 S   0  0  0  0  0  0  0  0  0  0  0  0
  162.3331  142.4160  185.2929 O   0  0  0  0  0  0  0  0  0  0  0  0
  160.5462  143.9351  184.4609 O   0  0  0  0  0  0  0  0  0  0  0  0
 34 35  1  0  0  0
 35 36  2  0  0  0
 35 37  2  0  0  0
 35 33  1  0  0  0
 33 32  1  0  0  0
 32 27  1  0  0  0
 27 28  2  0  0  0
 28 29  1  0  0  0
 29 30  2  0  0  0
 30 31  1  0  0  0
 30 23  1  0  0  0
 23 24  2  0  0  0
 23 25  1  0  0  0
 25  1  1  0  0  0
  1  2  2  0  0  0
  2  3  1  0  0  0
  3  4  2  0  0  0
  4  5  1  0  0  0
  5  6  2  0  0  0
  4  7  1  0  0  0
  7  8  2  0  0  0
  8  9  1  0  0  0
  9 10  1  0  0  0
 10 11  1  0  0  0
 11 12  1  0  0  0
 10 13  1  0  0  0
 13 14  2  0  0  0
 14 15  1  0  0  0
 15 16  2  0  0  0
 16 17  1  0  0  0
 17 18  2  0  0  0
 18 19  1  0  0  0
 19 20  1  0  0  0
 19 21  1  0  0  0
 19 22  1  0  0  0
 31 27  1  0  0  0
  6  1  1  0  0  0
 12  7  1  0  0  0
 18 13  1  0  0  0
 25 26  1  0  0  0
M  END
> <minimizedAffinity>
-6.57851

> <CNNscore>
0.2728461921

> <CNNaffinity>
5.7264437675

> <CNN_VS>
1.5624383688

> <CNNaffinity_variance>
0.2030847371

$$$$
[H]C1=C(c2c([H])c([H])c(N([H])C(=O)c3nc([H])c(C([H])([H])OS(=O)(=O)C([H])([H])[H])o3)c([H])c2[H])C([H])([H])C([H])([H])N(c2c([H])c([H])c([H])c([H])c2C(F)(F)F)C1([H])[H]


 37 40  0  0  0  0  0  0  0  0999 V2000
  151.5347  138.9832  181.6860 C   0  0  0  0  0  0  0  0  0  0  0  0
  152.1729  140.1744  181.3356 C   0  0  0  0  0  0  0  0  0  0  0  0
  153.3493  140.6073  181.9043 C   0  0  0  0  0  0  0  0  0  0  0  0
  153.9528  139.8464  182.8731 C   0  0  0  0  0  0  0  0  0  0  0  0
  153.3521  138.6486  183.2566 C   0  0  0  0  0  0  0  0  0  0  0  0
  152.1631  138.2488  182.6550 C   0  0  0  0  0  0  0  0  0  0  0  0
  155.1919  140.2939  183.4893 C   0  0  0  0  0  0  0  0  0  0  0  0
  155.8887  139.4838  184.2428 C   0  0  0  0  0  0  0  0  0  0  0  0
  157.1689  139.8860  184.9040 C   0  0  0  0  0  0  0  0  0  0  0  0
  157.5233  141.2544  184.6781 N   0  0  0  0  0  0  0  0  0  0  0  0
  156.5488  142.2048  184.2611 C   0  0  0  0  0  0  0  0  0  0  0  0
  155.6142  141.6792  183.2364 C   0  0  0  0  0  0  0  0  0  0  0  0
  158.8665  141.6682  184.9107 C   0  0  0  0  0  0  0  0  0  0  0  0
  159.0976  142.1173  186.2278 C   0  0  0  0  0  0  0  0  0  0  0  0
  160.3369  142.4888  186.6264 C   0  0  0  0  0  0  0  0  0  0  0  0
  161.3788  142.4259  185.7341 C   0  0  0  0  0  0  0  0  0  0  0  0
  161.1936  141.9977  184.4512 C   0  0  0  0  0  0  0  0  0  0  0  0
  159.9032  141.6149  184.0447 C   0  0  0  0  0  0  0  0  0  0  0  0
  159.6997  141.2174  182.6386 C   0  0  0  0  0  0  0  0  0  0  0  0
  160.9134  141.4299  181.9591 F   0  0  0  0  0  0  0  0  0  0  0  0
  159.2753  139.9443  182.4961 F   0  0  0  0  0  0  0  0  0  0  0  0
  158.8021  142.0660  181.9875 F   0  0  0  0  0  0  0  0  0  0  0  0
  149.0787  138.3643  181.5977 C   0  0  0  0  0  0  0  0  0  0  0  0
  148.8321  138.4933  182.8012 O   0  0  0  0  0  0  0  0  0  0  0  0
  150.3411  138.5913  181.0453 N   0  0  0  0  0  0  0  0  0  0  0  0
  150.4437  138.4480  179.9731 H   0  0  0  0  0  0  0  0  0  0  0  0
  146.9206  137.2384  178.9524 C   0  0  0  0  0  0  0  0  0  0  0  0
  145.9883  137.4918  179.9564 C   0  0  0  0  0  0  0  0  0  0  0  0
  146.6802  137.9268  181.0182 N   0  0  0  0  0  0  0  0  0  0  0  0
  147.9814  137.9491  180.7092 C   0  0  0  0  0  0  0  0  0  0  0  0
  148.0849  137.5308  179.4656 O   0  0  0  0  0  0  0  0  0  0  0  0
  146.6219  136.7318  177.5676 C   0  0  0  0  0  0  0  0  0  0  0  0
  145.8855  137.6647  176.8838 O   0  0  0  0  0  0  0  0  0  0  0  0
  145.8758  139.3548  174.5632 C   0  0  0  0  0  0  0  0  0  0  0  0
  146.6723  138.0235  175.4474 S   0  0  0  0  0  0  0  0  0  0  0  0
  148.0579  138.5187  175.8217 O   0  0  0  0  0  0  0  0  0  0  0  0
  146.7768  136.8041  174.5522 O   0  0  0  0  0  0  0  0  0  0  0  0
 34 35  1  0  0  0
 35 36  2  0  0  0
 35 37  2  0  0  0
 35 33  1  0  0  0
 33 32  1  0  0  0
 32 27  1  0  0  0
 27 28  2  0  0  0
 28 29  1  0  0  0
 29 30  2  0  0  0
 30 31  1  0  0  0
 30 23  1  0  0  0
 23 24  2  0  0  0
 23 25  1  0  0  0
 25  1  1  0  0  0
  1  2  2  0  0  0
  2  3  1  0  0  0
  3  4  2  0  0  0
  4  5  1  0  0  0
  5  6  2  0  0  0
  4  7  1  0  0  0
  7  8  2  0  0  0
  8  9  1  0  0  0
  9 10  1  0  0  0
 10 11  1  0  0  0
 11 12  1  0  0  0
 10 13  1  0  0  0
 13 14  2  0  0  0
 14 15  1  0  0  0
 15 16  2  0  0  0
 16 17  1  0  0  0
 17 18  2  0  0  0
 18 19  1  0  0  0
 19 20  1  0  0  0
 19 21  1  0  0  0
 19 22  1  0  0  0
 31 27  1  0  0  0
  6  1  1  0  0  0
 12  7  1  0  0  0
 18 13  1  0  0  0
 25 26  1  0  0  0
M  END
> <minimizedAffinity>
-8.96889

> <CNNscore>
0.2629830539

> <CNNaffinity>
5.9780550003

> <CNN_VS>
1.5721271038

> <CNNaffinity_variance>
0.0634123385

$$$$
[H]C1=C(c2c([H])c([H])c(N([H])C(=O)c3nc([H])c(C([H])([H])OS(=O)(=O)C([H])([H])[H])o3)c([H])c2[H])C([H])([H])C([H])([H])N(c2c([H])c([H])c([H])c([H])c2C(F)(F)F)C1([H])[H]


 37 40  0  0  0  0  0  0  0  0999 V2000
  151.3312  138.8327  181.7153 C   0  0  0  0  0  0  0  0  0  0  0  0
  152.1956  138.3475  182.6983 C   0  0  0  0  0  0  0  0  0  0  0  0
  153.3562  138.9833  183.0772 C   0  0  0  0  0  0  0  0  0  0  0  0
  153.7101  140.1626  182.4724 C   0  0  0  0  0  0  0  0  0  0  0  0
  152.8783  140.6860  181.4841 C   0  0  0  0  0  0  0  0  0  0  0  0
  151.7140  140.0104  181.1326 C   0  0  0  0  0  0  0  0  0  0  0  0
  154.9373  140.8425  182.8559 C   0  0  0  0  0  0  0  0  0  0  0  0
  154.9031  142.0688  183.3083 C   0  0  0  0  0  0  0  0  0  0  0  0
  156.1303  142.8202  183.7170 C   0  0  0  0  0  0  0  0  0  0  0  0
  157.3434  142.0887  183.5109 N   0  0  0  0  0  0  0  0  0  0  0  0
  157.3892  140.9822  182.6163 C   0  0  0  0  0  0  0  0  0  0  0  0
  156.1986  140.1022  182.7065 C   0  0  0  0  0  0  0  0  0  0  0  0
  158.5251  142.5041  184.1895 C   0  0  0  0  0  0  0  0  0  0  0  0
  158.7629  141.8004  185.3888 C   0  0  0  0  0  0  0  0  0  0  0  0
  159.8772  142.0349  186.1211 C   0  0  0  0  0  0  0  0  0  0  0  0
  160.7842  142.9701  185.6873 C   0  0  0  0  0  0  0  0  0  0  0  0
  160.5878  143.6715  184.5327 C   0  0  0  0  0  0  0  0  0  0  0  0
  159.4275  143.4230  183.7785 C   0  0  0  0  0  0  0  0  0  0  0  0
  159.1908  144.2325  182.5681 C   0  0  0  0  0  0  0  0  0  0  0  0
  160.0922  145.3125  182.5986 F   0  0  0  0  0  0  0  0  0  0  0  0
  159.3062  143.5308  181.4212 F   0  0  0  0  0  0  0  0  0  0  0  0
  157.9369  144.8464  182.5953 F   0  0  0  0  0  0  0  0  0  0  0  0
  148.8493  138.3429  181.8683 C   0  0  0  0  0  0  0  0  0  0  0  0
  148.5568  139.2232  182.6840 O   0  0  0  0  0  0  0  0  0  0  0  0
  150.1465  138.1387  181.3930 N   0  0  0  0  0  0  0  0  0  0  0  0
  150.2886  137.3347  180.6760 H   0  0  0  0  0  0  0  0  0  0  0  0
  146.5256  136.3008  180.0373 C   0  0  0  0  0  0  0  0  0  0  0  0
  146.0045  136.1941  181.3251 C   0  0  0  0  0  0  0  0  0  0  0  0
  146.7974  136.9263  182.1191 N   0  0  0  0  0  0  0  0  0  0  0  0
  147.7705  137.4695  181.3794 C   0  0  0  0  0  0  0  0  0  0  0  0
  147.5738  137.0723  180.1401 O   0  0  0  0  0  0  0  0  0  0  0  0
  145.9748  135.6504  178.7975 C   0  0  0  0  0  0  0  0  0  0  0  0
  147.0038  135.3208  177.9532 O   0  0  0  0  0  0  0  0  0  0  0  0
  145.8740  132.7907  178.7040 C   0  0  0  0  0  0  0  0  0  0  0  0
  146.8516  133.7072  177.5239 S   0  0  0  0  0  0  0  0  0  0  0  0
  146.0896  133.6759  176.2111 O   0  0  0  0  0  0  0  0  0  0  0  0
  148.2066  133.0470  177.3580 O   0  0  0  0  0  0  0  0  0  0  0  0
 34 35  1  0  0  0
 35 36  2  0  0  0
 35 37  2  0  0  0
 35 33  1  0  0  0
 33 32  1  0  0  0
 32 27  1  0  0  0
 27 28  2  0  0  0
 28 29  1  0  0  0
 29 30  2  0  0  0
 30 31  1  0  0  0
 30 23  1  0  0  0
 23 24  2  0  0  0
 23 25  1  0  0  0
 25  1  1  0  0  0
  1  2  2  0  0  0
  2  3  1  0  0  0
  3  4  2  0  0  0
  4  5  1  0  0  0
  5  6  2  0  0  0
  4  7  1  0  0  0
  7  8  2  0  0  0
  8  9  1  0  0  0
  9 10  1  0  0  0
 10 11  1  0  0  0
 11 12  1  0  0  0
 10 13  1  0  0  0
 13 14  2  0  0  0
 14 15  1  0  0  0
 15 16  2  0  0  0
 16 17  1  0  0  0
 17 18  2  0  0  0
 18 19  1  0  0  0
 19 20  1  0  0  0
 19 21  1  0  0  0
 19 22  1  0  0  0
 31 27  1  0  0  0
  6  1  1  0  0  0
 12  7  1  0  0  0
 18 13  1  0  0  0
 25 26  1  0  0  0
M  END
> <minimizedAffinity>
-7.85099

> <CNNscore>
0.2624373436

> <CNNaffinity>
6.1795177460

> <CNN_VS>
1.6217361689

> <CNNaffinity_variance>
0.1522403061

$$$$
[H]C1=C(c2c([H])c([H])c(N([H])C(=O)c3nc([H])c(C([H])([H])OS(=O)(=O)C([H])([H])[H])o3)c([H])c2[H])C([H])([H])C([H])([H])N(c2c([H])c([H])c([H])c([H])c2C(F)(F)F)C1([H])[H]


 37 40  0  0  0  0  0  0  0  0999 V2000
  151.6685  138.7398  182.1623 C   0  0  0  0  0  0  0  0  0  0  0  0
  151.9121  139.8876  181.4059 C   0  0  0  0  0  0  0  0  0  0  0  0
  153.0329  140.6739  181.5491 C   0  0  0  0  0  0  0  0  0  0  0  0
  153.9821  140.3358  182.4799 C   0  0  0  0  0  0  0  0  0  0  0  0
  153.7822  139.1980  183.2596 C   0  0  0  0  0  0  0  0  0  0  0  0
  152.6348  138.4316  183.0810 C   0  0  0  0  0  0  0  0  0  0  0  0
  155.1680  141.1607  182.6490 C   0  0  0  0  0  0  0  0  0  0  0  0
  155.0575  142.4281  182.9507 C   0  0  0  0  0  0  0  0  0  0  0  0
  156.2388  143.3269  183.1361 C   0  0  0  0  0  0  0  0  0  0  0  0
  157.4926  142.6796  182.8954 N   0  0  0  0  0  0  0  0  0  0  0  0
  157.5623  141.4740  182.1414 C   0  0  0  0  0  0  0  0  0  0  0  0
  156.4758  140.5161  182.4603 C   0  0  0  0  0  0  0  0  0  0  0  0
  158.6862  143.2776  183.3926 C   0  0  0  0  0  0  0  0  0  0  0  0
  159.0477  144.4611  182.7155 C   0  0  0  0  0  0  0  0  0  0  0  0
  160.1243  145.1826  183.1067 C   0  0  0  0  0  0  0  0  0  0  0  0
  160.8708  144.7531  184.1762 C   0  0  0  0  0  0  0  0  0  0  0  0
  160.5527  143.6124  184.8553 C   0  0  0  0  0  0  0  0  0  0  0  0
  159.4337  142.8681  184.4420 C   0  0  0  0  0  0  0  0  0  0  0  0
  159.1368  141.6022  185.1390 C   0  0  0  0  0  0  0  0  0  0  0  0
  159.5198  140.5502  184.2867 F   0  0  0  0  0  0  0  0  0  0  0  0
  159.7357  141.4990  186.3439 F   0  0  0  0  0  0  0  0  0  0  0  0
  157.7630  141.4133  185.3022 F   0  0  0  0  0  0  0  0  0  0  0  0
  149.1699  138.3158  182.1501 C   0  0  0  0  0  0  0  0  0  0  0  0
  148.8123  139.4213  182.5696 O   0  0  0  0  0  0  0  0  0  0  0  0
  150.5073  137.9692  181.9463 N   0  0  0  0  0  0  0  0  0  0  0  0
  150.7063  136.9683  181.5730 H   0  0  0  0  0  0  0  0  0  0  0  0
  146.9618  135.8205  180.8009 C   0  0  0  0  0  0  0  0  0  0  0  0
  146.3852  136.0263  182.0526 C   0  0  0  0  0  0  0  0  0  0  0  0
  147.1305  136.9545  182.6677 N   0  0  0  0  0  0  0  0  0  0  0  0
  148.1274  137.3200  181.8542 C   0  0  0  0  0  0  0  0  0  0  0  0
  147.9925  136.6201  180.7478 O   0  0  0  0  0  0  0  0  0  0  0  0
  146.4771  134.8661  179.7437 C   0  0  0  0  0  0  0  0  0  0  0  0
  147.5069  134.5590  178.8920 O   0  0  0  0  0  0  0  0  0  0  0  0
  146.1162  134.9711  176.4146 C   0  0  0  0  0  0  0  0  0  0  0  0
  146.8753  133.8053  177.5340 S   0  0  0  0  0  0  0  0  0  0  0  0
  148.0486  133.1911  176.7915 O   0  0  0  0  0  0  0  0  0  0  0  0
  145.8743  132.7304  177.9109 O   0  0  0  0  0  0  0  0  0  0  0  0
 34 35  1  0  0  0
 35 36  2  0  0  0
 35 37  2  0  0  0
 35 33  1  0  0  0
 33 32  1  0  0  0
 32 27  1  0  0  0
 27 28  2  0  0  0
 28 29  1  0  0  0
 29 30  2  0  0  0
 30 31  1  0  0  0
 30 23  1  0  0  0
 23 24  2  0  0  0
 23 25  1  0  0  0
 25  1  1  0  0  0
  1  2  2  0  0  0
  2  3  1  0  0  0
  3  4  2  0  0  0
  4  5  1  0  0  0
  5  6  2  0  0  0
  4  7  1  0  0  0
  7  8  2  0  0  0
  8  9  1  0  0  0
  9 10  1  0  0  0
 10 11  1  0  0  0
 11 12  1  0  0  0
 10 13  1  0  0  0
 13 14  2  0  0  0
 14 15  1  0  0  0
 15 16  2  0  0  0
 16 17  1  0  0  0
 17 18  2  0  0  0
 18 19  1  0  0  0
 19 20  1  0  0  0
 19 21  1  0  0  0
 19 22  1  0  0  0
 31 27  1  0  0  0
  6  1  1  0  0  0
 12  7  1  0  0  0
 18 13  1  0  0  0
 25 26  1  0  0  0
M  END
> <minimizedAffinity>
-7.69133

> <CNNscore>
0.2486440092

> <CNNaffinity>
6.2066016197

> <CNN_VS>
1.5432343483

> <CNNaffinity_variance>
0.1727044880

$$$$
[H]C1=C(c2c([H])c([H])c(N([H])C(=O)c3nc([H])c(C([H])([H])OS(=O)(=O)C([H])([H])[H])o3)c([H])c2[H])C([H])([H])C([H])([H])N(c2c([H])c([H])c([H])c([H])c2C(F)(F)F)C1([H])[H]


 37 40  0  0  0  0  0  0  0  0999 V2000
  155.0653  137.9676  187.0646 C   0  0  0  0  0  0  0  0  0  0  0  0
  154.0744  138.4432  187.9254 C   0  0  0  0  0  0  0  0  0  0  0  0
  153.4810  137.6789  188.9044 C   0  0  0  0  0  0  0  0  0  0  0  0
  153.8642  136.3719  189.0677 C   0  0  0  0  0  0  0  0  0  0  0  0
  154.8502  135.8520  188.2308 C   0  0  0  0  0  0  0  0  0  0  0  0
  155.4238  136.6605  187.2546 C   0  0  0  0  0  0  0  0  0  0  0  0
  153.2412  135.5488  190.0923 C   0  0  0  0  0  0  0  0  0  0  0  0
  153.8891  134.5438  190.6211 C   0  0  0  0  0  0  0  0  0  0  0  0
  153.3018  133.6613  191.6766 C   0  0  0  0  0  0  0  0  0  0  0  0
  151.9480  133.9888  192.0068 N   0  0  0  0  0  0  0  0  0  0  0  0
  151.1421  134.7566  191.1192 C   0  0  0  0  0  0  0  0  0  0  0  0
  151.8685  135.8886  190.4941 C   0  0  0  0  0  0  0  0  0  0  0  0
  151.3978  133.5049  193.2286 C   0  0  0  0  0  0  0  0  0  0  0  0
  150.8839  132.1945  193.1350 C   0  0  0  0  0  0  0  0  0  0  0  0
  150.3804  131.5677  194.2242 C   0  0  0  0  0  0  0  0  0  0  0  0
  150.3719  132.2194  195.4329 C   0  0  0  0  0  0  0  0  0  0  0  0
  150.8594  133.4879  195.5620 C   0  0  0  0  0  0  0  0  0  0  0  0
  151.3795  134.1325  194.4258 C   0  0  0  0  0  0  0  0  0  0  0  0
  151.8424  135.5267  194.5605 C   0  0  0  0  0  0  0  0  0  0  0  0
  150.9947  136.3315  193.7772 F   0  0  0  0  0  0  0  0  0  0  0  0
  151.8836  135.9581  195.8385 F   0  0  0  0  0  0  0  0  0  0  0  0
  153.1005  135.7105  193.9833 F   0  0  0  0  0  0  0  0  0  0  0  0
  155.2551  139.0382  184.7754 C   0  0  0  0  0  0  0  0  0  0  0  0
  154.2809  138.4865  184.2533 O   0  0  0  0  0  0  0  0  0  0  0  0
  155.6451  138.8146  186.0976 N   0  0  0  0  0  0  0  0  0  0  0  0
  156.5182  139.3552  186.4527 H   0  0  0  0  0  0  0  0  0  0  0  0
  157.5484  141.4229  183.3696 C   0  0  0  0  0  0  0  0  0  0  0  0
  156.7407  141.1591  182.2653 C   0  0  0  0  0  0  0  0  0  0  0  0
  155.8260  140.2659  182.6666 N   0  0  0  0  0  0  0  0  0  0  0  0
  156.0387  139.9755  183.9549 C   0  0  0  0  0  0  0  0  0  0  0  0
  157.0768  140.6872  184.3396 O   0  0  0  0  0  0  0  0  0  0  0  0
  158.7190  142.3671  183.4108 C   0  0  0  0  0  0  0  0  0  0  0  0
  159.8868  141.6517  183.4790 O   0  0  0  0  0  0  0  0  0  0  0  0
  160.8744  144.1241  184.5528 C   0  0  0  0  0  0  0  0  0  0  0  0
  160.8727  142.3410  184.6469 S   0  0  0  0  0  0  0  0  0  0  0  0
  160.2724  141.9777  185.9933 O   0  0  0  0  0  0  0  0  0  0  0  0
  162.2939  141.8213  184.5505 O   0  0  0  0  0  0  0  0  0  0  0  0
 34 35  1  0  0  0
 35 36  2  0  0  0
 35 37  2  0  0  0
 35 33  1  0  0  0
 33 32  1  0  0  0
 32 27  1  0  0  0
 27 28  2  0  0  0
 28 29  1  0  0  0
 29 30  2  0  0  0
 30 31  1  0  0  0
 30 23  1  0  0  0
 23 24  2  0  0  0
 23 25  1  0  0  0
 25  1  1  0  0  0
  1  2  2  0  0  0
  2  3  1  0  0  0
  3  4  2  0  0  0
  4  5  1  0  0  0
  5  6  2  0  0  0
  4  7  1  0  0  0
  7  8  2  0  0  0
  8  9  1  0  0  0
  9 10  1  0  0  0
 10 11  1  0  0  0
 11 12  1  0  0  0
 10 13  1  0  0  0
 13 14  2  0  0  0
 14 15  1  0  0  0
 15 16  2  0  0  0
 16 17  1  0  0  0
 17 18  2  0  0  0
 18 19  1  0  0  0
 19 20  1  0  0  0
 19 21  1  0  0  0
 19 22  1  0  0  0
 31 27  1  0  0  0
  6  1  1  0  0  0
 12  7  1  0  0  0
 18 13  1  0  0  0
 25 26  1  0  0  0
M  END
> <minimizedAffinity>
-7.46257

> <CNNscore>
0.2393457443

> <CNNaffinity>
5.8440880775

> <CNN_VS>
1.3987575769

> <CNNaffinity_variance>
0.1487299353

$$$$
[H]C1=C(c2c([H])c([H])c(N([H])C(=O)c3nc([H])c(C([H])([H])OS(=O)(=O)C([H])([H])[H])o3)c([H])c2[H])C([H])([H])C([H])([H])N(c2c([H])c([H])c([H])c([H])c2C(F)(F)F)C1([H])[H]


 37 40  0  0  0  0  0  0  0  0999 V2000
  155.3332  138.2592  186.7627 C   0  0  0  0  0  0  0  0  0  0  0  0
  154.1097  138.7209  187.2516 C   0  0  0  0  0  0  0  0  0  0  0  0
  153.3710  138.0619  188.2080 C   0  0  0  0  0  0  0  0  0  0  0  0
  153.8378  136.8820  188.7294 C   0  0  0  0  0  0  0  0  0  0  0  0
  155.0551  136.3809  188.2715 C   0  0  0  0  0  0  0  0  0  0  0  0
  155.7693  137.0803  187.3037 C   0  0  0  0  0  0  0  0  0  0  0  0
  153.0653  136.1696  189.7348 C   0  0  0  0  0  0  0  0  0  0  0  0
  152.5348  136.8120  190.7426 C   0  0  0  0  0  0  0  0  0  0  0  0
  151.7318  136.1349  191.8078 C   0  0  0  0  0  0  0  0  0  0  0  0
  151.6508  134.7149  191.6465 N   0  0  0  0  0  0  0  0  0  0  0  0
  152.5899  134.0142  190.8380 C   0  0  0  0  0  0  0  0  0  0  0  0
  152.9171  134.7159  189.5729 C   0  0  0  0  0  0  0  0  0  0  0  0
  150.6324  133.9975  192.3378 C   0  0  0  0  0  0  0  0  0  0  0  0
  149.5111  133.6979  191.5361 C   0  0  0  0  0  0  0  0  0  0  0  0
  148.4822  132.9681  192.0276 C   0  0  0  0  0  0  0  0  0  0  0  0
  148.5352  132.5160  193.3232 C   0  0  0  0  0  0  0  0  0  0  0  0
  149.6030  132.7868  194.1294 C   0  0  0  0  0  0  0  0  0  0  0  0
  150.6669  133.5465  193.6118 C   0  0  0  0  0  0  0  0  0  0  0  0
  151.7853  133.8907  194.5102 C   0  0  0  0  0  0  0  0  0  0  0  0
  151.5587  133.2391  195.7366 F   0  0  0  0  0  0  0  0  0  0  0  0
  152.9966  133.5762  194.0052 F   0  0  0  0  0  0  0  0  0  0  0  0
  151.7772  135.2455  194.8481 F   0  0  0  0  0  0  0  0  0  0  0  0
  155.6364  139.4196  184.5301 C   0  0  0  0  0  0  0  0  0  0  0  0
  154.5154  139.1845  184.0677 O   0  0  0  0  0  0  0  0  0  0  0  0
  156.0469  138.9986  185.7968 N   0  0  0  0  0  0  0  0  0  0  0  0
  157.0558  139.2626  186.1017 H   0  0  0  0  0  0  0  0  0  0  0  0
  158.2168  141.4879  183.1207 C   0  0  0  0  0  0  0  0  0  0  0  0
  157.6019  141.0166  181.9625 C   0  0  0  0  0  0  0  0  0  0  0  0
  156.6021  140.2178  182.3597 N   0  0  0  0  0  0  0  0  0  0  0  0
  156.5807  140.1810  183.6967 C   0  0  0  0  0  0  0  0  0  0  0  0
  157.5611  140.9531  184.1149 O   0  0  0  0  0  0  0  0  0  0  0  0
  159.3944  142.4219  183.1862 C   0  0  0  0  0  0  0  0  0  0  0  0
  160.4509  141.7908  183.7908 O   0  0  0  0  0  0  0  0  0  0  0  0
  160.1086  142.4908  186.5539 C   0  0  0  0  0  0  0  0  0  0  0  0
  161.0139  142.7593  185.0383 S   0  0  0  0  0  0  0  0  0  0  0  0
  162.4465  142.3345  185.3070 O   0  0  0  0  0  0  0  0  0  0  0  0
  160.9651  144.2284  184.6656 O   0  0  0  0  0  0  0  0  0  0  0  0
 34 35  1  0  0  0
 35 36  2  0  0  0
 35 37  2  0  0  0
 35 33  1  0  0  0
 33 32  1  0  0  0
 32 27  1  0  0  0
 27 28  2  0  0  0
 28 29  1  0  0  0
 29 30  2  0  0  0
 30 31  1  0  0  0
 30 23  1  0  0  0
 23 24  2  0  0  0
 23 25  1  0  0  0
 25  1  1  0  0  0
  1  2  2  0  0  0
  2  3  1  0  0  0
  3  4  2  0  0  0
  4  5  1  0  0  0
  5  6  2  0  0  0
  4  7  1  0  0  0
  7  8  2  0  0  0
  8  9  1  0  0  0
  9 10  1  0  0  0
 10 11  1  0  0  0
 11 12  1  0  0  0
 10 13  1  0  0  0
 13 14  2  0  0  0
 14 15  1  0  0  0
 15 16  2  0  0  0
 16 17  1  0  0  0
 17 18  2  0  0  0
 18 19  1  0  0  0
 19 20  1  0  0  0
 19 21  1  0  0  0
 19 22  1  0  0  0
 31 27  1  0  0  0
  6  1  1  0  0  0
 12  7  1  0  0  0
 18 13  1  0  0  0
 25 26  1  0  0  0
M  END
> <minimizedAffinity>
-7.27942

> <CNNscore>
0.2385575026

> <CNNaffinity>
5.8505926132

> <CNN_VS>
1.3957027197

> <CNNaffinity_variance>
0.1234164461

$$$$
[H]C1=C(c2c([H])c([H])c(N([H])C(=O)c3nc([H])c(C([H])([H])OS(=O)(=O)C([H])([H])[H])o3)c([H])c2[H])C([H])([H])C([H])([H])N(c2c([H])c([H])c([H])c([H])c2C(F)(F)F)C1([H])[H]


 37 40  0  0  0  0  0  0  0  0999 V2000
  155.5230  138.1201  187.0762 C   0  0  0  0  0  0  0  0  0  0  0  0
  154.2359  138.4793  187.4804 C   0  0  0  0  0  0  0  0  0  0  0  0
  153.5545  137.8584  188.5026 C   0  0  0  0  0  0  0  0  0  0  0  0
  154.1479  136.8246  189.1815 C   0  0  0  0  0  0  0  0  0  0  0  0
  155.4329  136.4298  188.8130 C   0  0  0  0  0  0  0  0  0  0  0  0
  156.0854  137.0857  187.7739 C   0  0  0  0  0  0  0  0  0  0  0  0
  153.4381  136.1530  190.2587 C   0  0  0  0  0  0  0  0  0  0  0  0
  153.7567  134.9329  190.6041 C   0  0  0  0  0  0  0  0  0  0  0  0
  153.0632  134.1901  191.7019 C   0  0  0  0  0  0  0  0  0  0  0  0
  151.9850  134.9219  192.2944 N   0  0  0  0  0  0  0  0  0  0  0  0
  151.3804  136.0163  191.6136 C   0  0  0  0  0  0  0  0  0  0  0  0
  152.3579  136.8945  190.9256 C   0  0  0  0  0  0  0  0  0  0  0  0
  151.4942  134.5187  193.5696 C   0  0  0  0  0  0  0  0  0  0  0  0
  152.2787  134.9808  194.6470 C   0  0  0  0  0  0  0  0  0  0  0  0
  151.9131  134.7340  195.9270 C   0  0  0  0  0  0  0  0  0  0  0  0
  150.7637  134.0247  196.1746 C   0  0  0  0  0  0  0  0  0  0  0  0
  149.9796  133.5605  195.1580 C   0  0  0  0  0  0  0  0  0  0  0  0
  150.3669  133.8200  193.8315 C   0  0  0  0  0  0  0  0  0  0  0  0
  149.5499  133.2576  192.7395 C   0  0  0  0  0  0  0  0  0  0  0  0
  148.8483  134.3224  192.1446 F   0  0  0  0  0  0  0  0  0  0  0  0
  150.2710  132.5751  191.8255 F   0  0  0  0  0  0  0  0  0  0  0  0
  148.5395  132.4260  193.2269 F   0  0  0  0  0  0  0  0  0  0  0  0
  155.7076  139.1036  184.7478 C   0  0  0  0  0  0  0  0  0  0  0  0
  154.5930  138.7654  184.3364 O   0  0  0  0  0  0  0  0  0  0  0  0
  156.1698  138.8156  186.0337 N   0  0  0  0  0  0  0  0  0  0  0  0
  157.1674  139.1626  186.2888 H   0  0  0  0  0  0  0  0  0  0  0  0
  158.3405  140.8387  183.0215 C   0  0  0  0  0  0  0  0  0  0  0  0
  157.3134  140.9291  182.0842 C   0  0  0  0  0  0  0  0  0  0  0  0
  156.2536  140.3074  182.6187 N   0  0  0  0  0  0  0  0  0  0  0  0
  156.5860  139.8456  183.8293 C   0  0  0  0  0  0  0  0  0  0  0  0
  157.8415  140.1832  184.0343 O   0  0  0  0  0  0  0  0  0  0  0  0
  159.7317  141.3918  182.8735 C   0  0  0  0  0  0  0  0  0  0  0  0
  160.4850  141.0445  183.9654 O   0  0  0  0  0  0  0  0  0  0  0  0
  162.1348  142.5694  185.7526 C   0  0  0  0  0  0  0  0  0  0  0  0
  160.5182  142.3393  185.0300 S   0  0  0  0  0  0  0  0  0  0  0  0
  160.2275  143.5842  184.2109 O   0  0  0  0  0  0  0  0  0  0  0  0
  159.4839  142.1820  186.1276 O   0  0  0  0  0  0  0  0  0  0  0  0
 34 35  1  0  0  0
 35 36  2  0  0  0
 35 37  2  0  0  0
 35 33  1  0  0  0
 33 32  1  0  0  0
 32 27  1  0  0  0
 27 28  2  0  0  0
 28 29  1  0  0  0
 29 30  2  0  0  0
 30 31  1  0  0  0
 30 23  1  0  0  0
 23 24  2  0  0  0
 23 25  1  0  0  0
 25  1  1  0  0  0
  1  2  2  0  0  0
  2  3  1  0  0  0
  3  4  2  0  0  0
  4  5  1  0  0  0
  5  6  2  0  0  0
  4  7  1  0  0  0
  7  8  2  0  0  0
  8  9  1  0  0  0
  9 10  1  0  0  0
 10 11  1  0  0  0
 11 12  1  0  0  0
 10 13  1  0  0  0
 13 14  2  0  0  0
 14 15  1  0  0  0
 15 16  2  0  0  0
 16 17  1  0  0  0
 17 18  2  0  0  0
 18 19  1  0  0  0
 19 20  1  0  0  0
 19 21  1  0  0  0
 19 22  1  0  0  0
 31 27  1  0  0  0
  6  1  1  0  0  0
 12  7  1  0  0  0
 18 13  1  0  0  0
 25 26  1  0  0  0
M  END
> <minimizedAffinity>
-7.73179

> <CNNscore>
0.2311716676

> <CNNaffinity>
5.7586798668

> <CNN_VS>
1.3312436342

> <CNNaffinity_variance>
0.0547895543

$$$$
[H]C1=C(c2c([H])c([H])c(N([H])C(=O)c3nc([H])c(C([H])([H])OS(=O)(=O)C([H])([H])[H])o3)c([H])c2[H])C([H])([H])C([H])([H])N(c2c([H])c([H])c([H])c([H])c2C(F)(F)F)C1([H])[H]


 37 40  0  0  0  0  0  0  0  0999 V2000
  151.9481  136.8985  186.6508 C   0  0  0  0  0  0  0  0  0  0  0  0
  152.6253  137.9778  187.2214 C   0  0  0  0  0  0  0  0  0  0  0  0
  153.4745  138.8041  186.5208 C   0  0  0  0  0  0  0  0  0  0  0  0
  153.6876  138.5794  185.1845 C   0  0  0  0  0  0  0  0  0  0  0  0
  153.0336  137.5125  184.5707 C   0  0  0  0  0  0  0  0  0  0  0  0
  152.1832  136.7027  185.3169 C   0  0  0  0  0  0  0  0  0  0  0  0
  154.5880  139.4386  184.4321 C   0  0  0  0  0  0  0  0  0  0  0  0
  155.8043  139.6603  184.8578 C   0  0  0  0  0  0  0  0  0  0  0  0
  156.7752  140.5344  184.1292 C   0  0  0  0  0  0  0  0  0  0  0  0
  156.2256  141.1462  182.9576 N   0  0  0  0  0  0  0  0  0  0  0  0
  154.8174  141.2579  182.7809 C   0  0  0  0  0  0  0  0  0  0  0  0
  154.0737  140.0431  183.1946 C   0  0  0  0  0  0  0  0  0  0  0  0
  157.1100  141.6791  181.9761 C   0  0  0  0  0  0  0  0  0  0  0  0
  157.8786  140.6966  181.3174 C   0  0  0  0  0  0  0  0  0  0  0  0
  158.7240  141.0341  180.3153 C   0  0  0  0  0  0  0  0  0  0  0  0
  158.8313  142.3503  179.9388 C   0  0  0  0  0  0  0  0  0  0  0  0
  158.1047  143.3289  180.5535 C   0  0  0  0  0  0  0  0  0  0  0  0
  157.2299  142.9704  181.5941 C   0  0  0  0  0  0  0  0  0  0  0  0
  156.4992  144.0421  182.2969 C   0  0  0  0  0  0  0  0  0  0  0  0
  157.3163  145.1877  182.2874 F   0  0  0  0  0  0  0  0  0  0  0  0
  155.2857  144.3019  181.7670 F   0  0  0  0  0  0  0  0  0  0  0  0
  156.3449  143.7563  183.6550 F   0  0  0  0  0  0  0  0  0  0  0  0
  149.6814  136.1451  187.4976 C   0  0  0  0  0  0  0  0  0  0  0  0
  148.9900  136.9306  186.8412 O   0  0  0  0  0  0  0  0  0  0  0  0
  151.0755  136.1063  187.4252 N   0  0  0  0  0  0  0  0  0  0  0  0
  151.5817  135.3733  188.0474 H   0  0  0  0  0  0  0  0  0  0  0  0
  147.7162  133.5958  189.0981 C   0  0  0  0  0  0  0  0  0  0  0  0
  148.3282  134.1826  190.2038 C   0  0  0  0  0  0  0  0  0  0  0  0
  149.1035  135.1683  189.7319 N   0  0  0  0  0  0  0  0  0  0  0  0
  148.9929  135.2079  188.3995 C   0  0  0  0  0  0  0  0  0  0  0  0
  148.1544  134.2525  188.0583 O   0  0  0  0  0  0  0  0  0  0  0  0
  146.7508  132.4422  189.1232 C   0  0  0  0  0  0  0  0  0  0  0  0
  146.9745  131.6774  190.2390 O   0  0  0  0  0  0  0  0  0  0  0  0
  147.7145  129.9944  188.0341 C   0  0  0  0  0  0  0  0  0  0  0  0
  147.8264  130.3052  189.7889 S   0  0  0  0  0  0  0  0  0  0  0  0
  149.2887  130.5826  190.0885 O   0  0  0  0  0  0  0  0  0  0  0  0
  147.3577  129.0844  190.5565 O   0  0  0  0  0  0  0  0  0  0  0  0
 34 35  1  0  0  0
 35 36  2  0  0  0
 35 37  2  0  0  0
 35 33  1  0  0  0
 33 32  1  0  0  0
 32 27  1  0  0  0
 27 28  2  0  0  0
 28 29  1  0  0  0
 29 30  2  0  0  0
 30 31  1  0  0  0
 30 23  1  0  0  0
 23 24  2  0  0  0
 23 25  1  0  0  0
 25  1  1  0  0  0
  1  2  2  0  0  0
  2  3  1  0  0  0
  3  4  2  0  0  0
  4  5  1  0  0  0
  5  6  2  0  0  0
  4  7  1  0  0  0
  7  8  2  0  0  0
  8  9  1  0  0  0
  9 10  1  0  0  0
 10 11  1  0  0  0
 11 12  1  0  0  0
 10 13  1  0  0  0
 13 14  2  0  0  0
 14 15  1  0  0  0
 15 16  2  0  0  0
 16 17  1  0  0  0
 17 18  2  0  0  0
 18 19  1  0  0  0
 19 20  1  0  0  0
 19 21  1  0  0  0
 19 22  1  0  0  0
 31 27  1  0  0  0
  6  1  1  0  0  0
 12  7  1  0  0  0
 18 13  1  0  0  0
 25 26  1  0  0  0
M  END
> <minimizedAffinity>
-6.87369

> <CNNscore>
0.2287464887

> <CNNaffinity>
5.7922248840

> <CNN_VS>
1.3249510527

> <CNNaffinity_variance>
0.5702277422

$$$$
[H]C1=C(c2c([H])c([H])c(N([H])C(=O)c3nc([H])c(C([H])([H])OS(=O)(=O)C([H])([H])[H])o3)c([H])c2[H])C([H])([H])C([H])([H])N(c2c([H])c([H])c([H])c([H])c2C(F)(F)F)C1([H])[H]


 37 40  0  0  0  0  0  0  0  0999 V2000
  153.9350  136.1580  187.5740 C   0  0  0  0  0  0  0  0  0  0  0  0
  154.8608  137.1176  187.9878 C   0  0  0  0  0  0  0  0  0  0  0  0
  155.4162  138.0561  187.1479 C   0  0  0  0  0  0  0  0  0  0  0  0
  155.0592  138.0746  185.8235 C   0  0  0  0  0  0  0  0  0  0  0  0
  154.1381  137.1351  185.3636 C   0  0  0  0  0  0  0  0  0  0  0  0
  153.6011  136.2046  186.2476 C   0  0  0  0  0  0  0  0  0  0  0  0
  155.6430  139.0548  184.9216 C   0  0  0  0  0  0  0  0  0  0  0  0
  156.7831  139.6262  185.2102 C   0  0  0  0  0  0  0  0  0  0  0  0
  157.4324  140.6414  184.3239 C   0  0  0  0  0  0  0  0  0  0  0  0
  156.6585  140.9657  183.1641 N   0  0  0  0  0  0  0  0  0  0  0  0
  155.2626  140.6907  183.1138 C   0  0  0  0  0  0  0  0  0  0  0  0
  154.9003  139.3745  183.6937 C   0  0  0  0  0  0  0  0  0  0  0  0
  157.2977  141.6048  182.0629 C   0  0  0  0  0  0  0  0  0  0  0  0
  158.1542  140.7515  181.3361 C   0  0  0  0  0  0  0  0  0  0  0  0
  158.7904  141.1904  180.2246 C   0  0  0  0  0  0  0  0  0  0  0  0
  158.5964  142.4828  179.8032 C   0  0  0  0  0  0  0  0  0  0  0  0
  157.7761  143.3380  180.4810 C   0  0  0  0  0  0  0  0  0  0  0  0
  157.1201  142.8748  181.6351 C   0  0  0  0  0  0  0  0  0  0  0  0
  156.2887  143.8249  182.3984 C   0  0  0  0  0  0  0  0  0  0  0  0
  156.8836  145.0948  182.2833 F   0  0  0  0  0  0  0  0  0  0  0  0
  154.9993  143.8504  182.0009 F   0  0  0  0  0  0  0  0  0  0  0  0
  156.3313  143.5618  183.7691 F   0  0  0  0  0  0  0  0  0  0  0  0
  152.1400  135.2532  189.1174 C   0  0  0  0  0  0  0  0  0  0  0  0
  151.2935  136.1307  188.9192 O   0  0  0  0  0  0  0  0  0  0  0  0
  153.3903  135.2398  188.4955 N   0  0  0  0  0  0  0  0  0  0  0  0
  154.0564  134.4181  188.7440 H   0  0  0  0  0  0  0  0  0  0  0  0
  150.6546  132.8524  191.3428 C   0  0  0  0  0  0  0  0  0  0  0  0
  151.9937  132.4732  191.4101 C   0  0  0  0  0  0  0  0  0  0  0  0
  152.6673  133.3087  190.6078 N   0  0  0  0  0  0  0  0  0  0  0  0
  151.8059  134.1723  190.0587 C   0  0  0  0  0  0  0  0  0  0  0  0
  150.6127  133.8674  190.5228 O   0  0  0  0  0  0  0  0  0  0  0  0
  149.5093  132.2080  192.0752 C   0  0  0  0  0  0  0  0  0  0  0  0
  148.5917  133.1635  192.4291 O   0  0  0  0  0  0  0  0  0  0  0  0
  147.0259  131.1894  191.0533 C   0  0  0  0  0  0  0  0  0  0  0  0
  147.1743  132.8903  191.5762 S   0  0  0  0  0  0  0  0  0  0  0  0
  146.0296  133.1500  192.5393 O   0  0  0  0  0  0  0  0  0  0  0  0
  147.0645  133.8076  190.3738 O   0  0  0  0  0  0  0  0  0  0  0  0
 34 35  1  0  0  0
 35 36  2  0  0  0
 35 37  2  0  0  0
 35 33  1  0  0  0
 33 32  1  0  0  0
 32 27  1  0  0  0
 27 28  2  0  0  0
 28 29  1  0  0  0
 29 30  2  0  0  0
 30 31  1  0  0  0
 30 23  1  0  0  0
 23 24  2  0  0  0
 23 25  1  0  0  0
 25  1  1  0  0  0
  1  2  2  0  0  0
  2  3  1  0  0  0
  3  4  2  0  0  0
  4  5  1  0  0  0
  5  6  2  0  0  0
  4  7  1  0  0  0
  7  8  2  0  0  0
  8  9  1  0  0  0
  9 10  1  0  0  0
 10 11  1  0  0  0
 11 12  1  0  0  0
 10 13  1  0  0  0
 13 14  2  0  0  0
 14 15  1  0  0  0
 15 16  2  0  0  0
 16 17  1  0  0  0
 17 18  2  0  0  0
 18 19  1  0  0  0
 19 20  1  0  0  0
 19 21  1  0  0  0
 19 22  1  0  0  0
 31 27  1  0  0  0
  6  1  1  0  0  0
 12  7  1  0  0  0
 18 13  1  0  0  0
 25 26  1  0  0  0
M  END
> <minimizedAffinity>
-6.92101

> <CNNscore>
0.2177752256

> <CNNaffinity>
5.9261193275

> <CNN_VS>
1.2905619144

> <CNNaffinity_variance>
0.9011702538

$$$$
[H]c1nc(N2C([H])([H])C([H])([H])c3nc(N4C([H])([H])C([H])([H])OC([H])([H])C4([H])[H])nc(N([H])c4c([H])c([H])c(C([H])(C([H])([H])[H])C([H])([H])[H])c([H])c4[H])c3C([H])([H])C2([H])[H])c(C(F)(F)F)c([H])c1[H]


 38 42  0  0  0  0  0  0  0  0999 V2000
  153.4776  138.6738  183.7900 C   0  0  0  0  0  0  0  0  0  0  0  0
  152.4415  138.5424  182.9064 N   0  0  0  0  0  0  0  0  0  0  0  0
  152.0842  139.4575  182.0048 C   0  0  0  0  0  0  0  0  0  0  0  0
  152.8071  140.6063  181.9634 N   0  0  0  0  0  0  0  0  0  0  0  0
  153.8250  140.8169  182.7812 C   0  0  0  0  0  0  0  0  0  0  0  0
  154.4981  142.1071  182.5433 C   0  0  0  0  0  0  0  0  0  0  0  0
  155.9651  141.9044  182.2404 C   0  0  0  0  0  0  0  0  0  0  0  0
  156.7644  141.2477  183.2033 N   0  0  0  0  0  0  0  0  0  0  0  0
  156.5885  140.1332  184.0624 C   0  0  0  0  0  0  0  0  0  0  0  0
  155.2393  140.0149  184.6717 C   0  0  0  0  0  0  0  0  0  0  0  0
  154.1665  139.8249  183.7191 C   0  0  0  0  0  0  0  0  0  0  0  0
  158.0996  141.7772  183.2906 C   0  0  0  0  0  0  0  0  0  0  0  0
  158.4955  141.9233  184.6005 N   0  0  0  0  0  0  0  0  0  0  0  0
  159.7039  142.3635  184.8834 C   0  0  0  0  0  0  0  0  0  0  0  0
  160.5701  142.6774  183.8763 C   0  0  0  0  0  0  0  0  0  0  0  0
  160.1981  142.5408  182.5780 C   0  0  0  0  0  0  0  0  0  0  0  0
  158.9009  142.0689  182.2499 C   0  0  0  0  0  0  0  0  0  0  0  0
  158.4906  141.9496  180.8586 C   0  0  0  0  0  0  0  0  0  0  0  0
  157.5781  142.9249  180.4462 F   0  0  0  0  0  0  0  0  0  0  0  0
  158.1920  140.7153  180.3839 F   0  0  0  0  0  0  0  0  0  0  0  0
  159.6507  142.3256  180.1025 F   0  0  0  0  0  0  0  0  0  0  0  0
  151.0048  139.2620  181.1167 N   0  0  0  0  0  0  0  0  0  0  0  0
  149.7317  138.8327  181.6281 C   0  0  0  0  0  0  0  0  0  0  0  0
  148.8694  138.1104  180.6486 C   0  0  0  0  0  0  0  0  0  0  0  0
  149.5481  137.8225  179.4610 O   0  0  0  0  0  0  0  0  0  0  0  0
  149.9670  139.0633  178.9467 C   0  0  0  0  0  0  0  0  0  0  0  0
  151.1810  139.4945  179.7138 C   0  0  0  0  0  0  0  0  0  0  0  0
  153.8175  137.6247  184.6460 N   0  0  0  0  0  0  0  0  0  0  0  0
  153.8108  136.6378  184.2747 H   0  0  0  0  0  0  0  0  0  0  0  0
  154.5889  138.1010  188.7976 C   0  0  0  0  0  0  0  0  0  0  0  0
  153.4291  138.5429  188.2026 C   0  0  0  0  0  0  0  0  0  0  0  0
  153.2289  138.3762  186.8535 C   0  0  0  0  0  0  0  0  0  0  0  0
  154.1654  137.7631  186.0198 C   0  0  0  0  0  0  0  0  0  0  0  0
  155.3056  137.3286  186.6082 C   0  0  0  0  0  0  0  0  0  0  0  0
  155.5104  137.4988  187.9843 C   0  0  0  0  0  0  0  0  0  0  0  0
  156.2574  138.0492  190.6401 C   0  0  0  0  0  0  0  0  0  0  0  0
  154.8139  138.2752  190.2532 C   0  0  0  0  0  0  0  0  0  0  0  0
  153.9605  137.3131  191.0717 C   0  0  0  0  0  0  0  0  0  0  0  0
 36 37  1  0  0  0
 37 38  1  0  0  0
 37 30  1  0  0  0
 30 31  2  0  0  0
 31 32  1  0  0  0
 32 33  2  0  0  0
 33 28  1  0  0  0
 28  1  1  0  0  0
  1  2  2  0  0  0
  2  3  1  0  0  0
  3  4  2  0  0  0
  4  5  1  0  0  0
  5  6  1  0  0  0
  6  7  1  0  0  0
  7  8  1  0  0  0
  8  9  1  0  0  0
  9 10  1  0  0  0
 10 11  1  0  0  0
  8 12  1  0  0  0
 12 13  2  0  0  0
 13 14  1  0  0  0
 14 15  2  0  0  0
 15 16  1  0  0  0
 16 17  2  0  0  0
 17 18  1  0  0  0
 18 19  1  0  0  0
 18 20  1  0  0  0
 18 21  1  0  0  0
  3 22  1  0  0  0
 22 23  1  0  0  0
 23 24  1  0  0  0
 24 25  1  0  0  0
 25 26  1  0  0  0
 26 27  1  0  0  0
 33 34  1  0  0  0
 34 35  2  0  0  0
 35 30  1  0  0  0
 11  1  1  0  0  0
 17 12  1  0  0  0
 27 22  1  0  0  0
 11  5  2  0  0  0
 28 29  1  0  0  0
M  END
> <minimizedAffinity>
-10.32977

> <CNNscore>
0.5983302593

> <CNNaffinity>
7.3774704933

> <CNN_VS>
4.4141640663

> <CNNaffinity_variance>
0.0420884900

$$$$
[H]c1nc(N2C([H])([H])C([H])([H])c3nc(N4C([H])([H])C([H])([H])OC([H])([H])C4([H])[H])nc(N([H])c4c([H])c([H])c(C([H])(C([H])([H])[H])C([H])([H])[H])c([H])c4[H])c3C([H])([H])C2([H])[H])c(C(F)(F)F)c([H])c1[H]


 38 42  0  0  0  0  0  0  0  0999 V2000
  153.8665  137.6073  184.5599 C   0  0  0  0  0  0  0  0  0  0  0  0
  153.8829  136.6958  183.5398 N   0  0  0  0  0  0  0  0  0  0  0  0
  154.1667  135.4001  183.6760 C   0  0  0  0  0  0  0  0  0  0  0  0
  154.4606  134.9550  184.9248 N   0  0  0  0  0  0  0  0  0  0  0  0
  154.4683  135.7674  185.9685 C   0  0  0  0  0  0  0  0  0  0  0  0
  154.7720  135.0760  187.2349 C   0  0  0  0  0  0  0  0  0  0  0  0
  153.6612  135.2755  188.2404 C   0  0  0  0  0  0  0  0  0  0  0  0
  153.3259  136.5958  188.6166 N   0  0  0  0  0  0  0  0  0  0  0  0
  153.1920  137.8309  187.9328 C   0  0  0  0  0  0  0  0  0  0  0  0
  154.2022  138.0761  186.8722 C   0  0  0  0  0  0  0  0  0  0  0  0
  154.1649  137.1285  185.7790 C   0  0  0  0  0  0  0  0  0  0  0  0
  152.9596  136.7164  190.0029 C   0  0  0  0  0  0  0  0  0  0  0  0
  151.6886  136.2389  190.2281 N   0  0  0  0  0  0  0  0  0  0  0  0
  151.1879  136.2334  191.4460 C   0  0  0  0  0  0  0  0  0  0  0  0
  151.9292  136.7023  192.4919 C   0  0  0  0  0  0  0  0  0  0  0  0
  153.1844  137.1779  192.2901 C   0  0  0  0  0  0  0  0  0  0  0  0
  153.7438  137.1940  190.9863 C   0  0  0  0  0  0  0  0  0  0  0  0
  155.0784  137.7306  190.7640 C   0  0  0  0  0  0  0  0  0  0  0  0
  155.1281  139.1254  190.6868 F   0  0  0  0  0  0  0  0  0  0  0  0
  155.8657  137.1241  189.8419 F   0  0  0  0  0  0  0  0  0  0  0  0
  155.7738  137.5017  191.9980 F   0  0  0  0  0  0  0  0  0  0  0  0
  154.1646  134.5072  182.5830 N   0  0  0  0  0  0  0  0  0  0  0  0
  155.3253  133.7003  182.3215 C   0  0  0  0  0  0  0  0  0  0  0  0
  155.4807  133.2587  180.9054 C   0  0  0  0  0  0  0  0  0  0  0  0
  154.5574  133.8759  180.0566 O   0  0  0  0  0  0  0  0  0  0  0  0
  153.2872  133.5341  180.5560 C   0  0  0  0  0  0  0  0  0  0  0  0
  153.0081  134.4065  181.7430 C   0  0  0  0  0  0  0  0  0  0  0  0
  153.4839  138.9289  184.3244 N   0  0  0  0  0  0  0  0  0  0  0  0
  152.5331  139.2522  184.6459 H   0  0  0  0  0  0  0  0  0  0  0  0
  156.0637  141.7056  182.4029 C   0  0  0  0  0  0  0  0  0  0  0  0
  156.5186  140.7725  183.3068 C   0  0  0  0  0  0  0  0  0  0  0  0
  155.6442  139.9020  183.9114 C   0  0  0  0  0  0  0  0  0  0  0  0
  154.2724  139.9073  183.6544 C   0  0  0  0  0  0  0  0  0  0  0  0
  153.8277  140.8262  182.7640 C   0  0  0  0  0  0  0  0  0  0  0  0
  154.7193  141.7147  182.1473 C   0  0  0  0  0  0  0  0  0  0  0  0
  158.4276  142.4483  182.1976 C   0  0  0  0  0  0  0  0  0  0  0  0
  156.9998  142.6489  181.7441 C   0  0  0  0  0  0  0  0  0  0  0  0
  156.6252  144.0994  182.0263 C   0  0  0  0  0  0  0  0  0  0  0  0
 36 37  1  0  0  0
 37 38  1  0  0  0
 37 30  1  0  0  0
 30 31  2  0  0  0
 31 32  1  0  0  0
 32 33  2  0  0  0
 33 28  1  0  0  0
 28  1  1  0  0  0
  1  2  2  0  0  0
  2  3  1  0  0  0
  3  4  2  0  0  0
  4  5  1  0  0  0
  5  6  1  0  0  0
  6  7  1  0  0  0
  7  8  1  0  0  0
  8  9  1  0  0  0
  9 10  1  0  0  0
 10 11  1  0  0  0
  8 12  1  0  0  0
 12 13  2  0  0  0
 13 14  1  0  0  0
 14 15  2  0  0  0
 15 16  1  0  0  0
 16 17  2  0  0  0
 17 18  1  0  0  0
 18 19  1  0  0  0
 18 20  1  0  0  0
 18 21  1  0  0  0
  3 22  1  0  0  0
 22 23  1  0  0  0
 23 24  1  0  0  0
 24 25  1  0  0  0
 25 26  1  0  0  0
 26 27  1  0  0  0
 33 34  1  0  0  0
 34 35  2  0  0  0
 35 30  1  0  0  0
 11  1  1  0  0  0
 17 12  1  0  0  0
 27 22  1  0  0  0
 11  5  2  0  0  0
 28 29  1  0  0  0
M  END
> <minimizedAffinity>
-8.38326

> <CNNscore>
0.5610714555

> <CNNaffinity>
6.8963537216

> <CNN_VS>
3.8693473339

> <CNNaffinity_variance>
0.0757113919

$$$$
[H]c1nc(N2C([H])([H])C([H])([H])c3nc(N4C([H])([H])C([H])([H])OC([H])([H])C4([H])[H])nc(N([H])c4c([H])c([H])c(C([H])(C([H])([H])[H])C([H])([H])[H])c([H])c4[H])c3C([H])([H])C2([H])[H])c(C(F)(F)F)c([H])c1[H]


 38 42  0  0  0  0  0  0  0  0999 V2000
  153.9247  138.8518  183.9204 C   0  0  0  0  0  0  0  0  0  0  0  0
  154.8655  139.8406  184.0146 N   0  0  0  0  0  0  0  0  0  0  0  0
  155.1105  140.7554  183.0760 C   0  0  0  0  0  0  0  0  0  0  0  0
  154.3664  140.6982  181.9414 N   0  0  0  0  0  0  0  0  0  0  0  0
  153.4354  139.7752  181.7665 C   0  0  0  0  0  0  0  0  0  0  0  0
  152.7179  139.9157  180.4860 C   0  0  0  0  0  0  0  0  0  0  0  0
  151.2313  140.0689  180.7126 C   0  0  0  0  0  0  0  0  0  0  0  0
  150.5486  139.0420  181.4029 N   0  0  0  0  0  0  0  0  0  0  0  0
  150.8330  138.2288  182.5293 C   0  0  0  0  0  0  0  0  0  0  0  0
  152.2402  137.7651  182.6316 C   0  0  0  0  0  0  0  0  0  0  0  0
  153.2114  138.8274  182.7824 C   0  0  0  0  0  0  0  0  0  0  0  0
  149.2203  138.8060  180.9021 C   0  0  0  0  0  0  0  0  0  0  0  0
  149.2300  138.5800  179.5446 N   0  0  0  0  0  0  0  0  0  0  0  0
  148.1089  138.3099  178.9089 C   0  0  0  0  0  0  0  0  0  0  0  0
  146.9305  138.2530  179.5954 C   0  0  0  0  0  0  0  0  0  0  0  0
  146.9002  138.4736  180.9343 C   0  0  0  0  0  0  0  0  0  0  0  0
  148.0957  138.7670  181.6397 C   0  0  0  0  0  0  0  0  0  0  0  0
  148.0607  139.0325  183.0703 C   0  0  0  0  0  0  0  0  0  0  0  0
  147.8873  140.3804  183.3974 F   0  0  0  0  0  0  0  0  0  0  0  0
  148.9740  138.4131  183.8580 F   0  0  0  0  0  0  0  0  0  0  0  0
  146.8115  138.4825  183.5130 F   0  0  0  0  0  0  0  0  0  0  0  0
  156.0949  141.7545  183.2333 N   0  0  0  0  0  0  0  0  0  0  0  0
  155.8184  143.0991  182.8063 C   0  0  0  0  0  0  0  0  0  0  0  0
  157.0209  143.9119  182.4628 C   0  0  0  0  0  0  0  0  0  0  0  0
  158.1883  143.1434  182.4432 O   0  0  0  0  0  0  0  0  0  0  0  0
  158.3049  142.5877  183.7306 C   0  0  0  0  0  0  0  0  0  0  0  0
  157.3609  141.4262  183.8189 C   0  0  0  0  0  0  0  0  0  0  0  0
  153.6948  137.9869  184.9917 N   0  0  0  0  0  0  0  0  0  0  0  0
  152.9818  137.2174  184.8852 H   0  0  0  0  0  0  0  0  0  0  0  0
  155.3626  138.2164  188.8935 C   0  0  0  0  0  0  0  0  0  0  0  0
  154.0472  138.5241  188.6292 C   0  0  0  0  0  0  0  0  0  0  0  0
  153.5555  138.4456  187.3485 C   0  0  0  0  0  0  0  0  0  0  0  0
  154.3384  138.0582  186.2600 C   0  0  0  0  0  0  0  0  0  0  0  0
  155.6322  137.7554  186.5232 C   0  0  0  0  0  0  0  0  0  0  0  0
  156.1344  137.8358  187.8293 C   0  0  0  0  0  0  0  0  0  0  0  0
  156.2505  136.9364  190.8312 C   0  0  0  0  0  0  0  0  0  0  0  0
  155.9025  138.2971  190.2726 C   0  0  0  0  0  0  0  0  0  0  0  0
  154.9077  138.9473  191.2272 C   0  0  0  0  0  0  0  0  0  0  0  0
 36 37  1  0  0  0
 37 38  1  0  0  0
 37 30  1  0  0  0
 30 31  2  0  0  0
 31 32  1  0  0  0
 32 33  2  0  0  0
 33 28  1  0  0  0
 28  1  1  0  0  0
  1  2  2  0  0  0
  2  3  1  0  0  0
  3  4  2  0  0  0
  4  5  1  0  0  0
  5  6  1  0  0  0
  6  7  1  0  0  0
  7  8  1  0  0  0
  8  9  1  0  0  0
  9 10  1  0  0  0
 10 11  1  0  0  0
  8 12  1  0  0  0
 12 13  2  0  0  0
 13 14  1  0  0  0
 14 15  2  0  0  0
 15 16  1  0  0  0
 16 17  2  0  0  0
 17 18  1  0  0  0
 18 19  1  0  0  0
 18 20  1  0  0  0
 18 21  1  0  0  0
  3 22  1  0  0  0
 22 23  1  0  0  0
 23 24  1  0  0  0
 24 25  1  0  0  0
 25 26  1  0  0  0
 26 27  1  0  0  0
 33 34  1  0  0  0
 34 35  2  0  0  0
 35 30  1  0  0  0
 11  1  1  0  0  0
 17 12  1  0  0  0
 27 22  1  0  0  0
 11  5  2  0  0  0
 28 29  1  0  0  0
M  END
> <minimizedAffinity>
-9.68540

> <CNNscore>
0.4728244245

> <CNNaffinity>
6.8956155777

> <CNN_VS>
3.2604155540

> <CNNaffinity_variance>
0.0375698656

$$$$
[H]c1nc(N2C([H])([H])C([H])([H])c3nc(N4C([H])([H])C([H])([H])OC([H])([H])C4([H])[H])nc(N([H])c4c([H])c([H])c(C([H])(C([H])([H])[H])C([H])([H])[H])c([H])c4[H])c3C([H])([H])C2([H])[H])c(C(F)(F)F)c([H])c1[H]


 38 42  0  0  0  0  0  0  0  0999 V2000
  154.5059  138.0108  185.5102 C   0  0  0  0  0  0  0  0  0  0  0  0
  153.6816  138.1949  184.4339 N   0  0  0  0  0  0  0  0  0  0  0  0
  152.5369  137.5432  184.2267 C   0  0  0  0  0  0  0  0  0  0  0  0
  152.1639  136.6280  185.1581 N   0  0  0  0  0  0  0  0  0  0  0  0
  152.9010  136.3864  186.2294 C   0  0  0  0  0  0  0  0  0  0  0  0
  152.2969  135.3889  187.1317 C   0  0  0  0  0  0  0  0  0  0  0  0
  152.1022  135.9603  188.5174 C   0  0  0  0  0  0  0  0  0  0  0  0
  153.2364  136.4401  189.2107 N   0  0  0  0  0  0  0  0  0  0  0  0
  154.3896  137.1847  188.8547 C   0  0  0  0  0  0  0  0  0  0  0  0
  154.9763  136.8434  187.5338 C   0  0  0  0  0  0  0  0  0  0  0  0
  154.1034  137.0956  186.4075 C   0  0  0  0  0  0  0  0  0  0  0  0
  153.1877  136.1849  190.6260 C   0  0  0  0  0  0  0  0  0  0  0  0
  152.2748  137.0034  191.2511 N   0  0  0  0  0  0  0  0  0  0  0  0
  152.0631  136.8940  192.5462 C   0  0  0  0  0  0  0  0  0  0  0  0
  152.7497  135.9663  193.2750 C   0  0  0  0  0  0  0  0  0  0  0  0
  153.6546  135.1503  192.6769 C   0  0  0  0  0  0  0  0  0  0  0  0
  153.8994  135.2510  191.2830 C   0  0  0  0  0  0  0  0  0  0  0  0
  154.8904  134.3968  190.6455 C   0  0  0  0  0  0  0  0  0  0  0  0
  156.1766  134.9429  190.6082 F   0  0  0  0  0  0  0  0  0  0  0  0
  154.5494  133.7741  189.4905 F   0  0  0  0  0  0  0  0  0  0  0  0
  155.0823  133.3119  191.5648 F   0  0  0  0  0  0  0  0  0  0  0  0
  151.7269  137.7799  183.0954 N   0  0  0  0  0  0  0  0  0  0  0  0
  152.2510  138.5363  181.9910 C   0  0  0  0  0  0  0  0  0  0  0  0
  151.2255  139.2213  181.1521 C   0  0  0  0  0  0  0  0  0  0  0  0
  149.9487  139.1481  181.7164 O   0  0  0  0  0  0  0  0  0  0  0  0
  149.6626  137.7765  181.8447 C   0  0  0  0  0  0  0  0  0  0  0  0
  150.3907  137.2642  183.0511 C   0  0  0  0  0  0  0  0  0  0  0  0
  155.6475  138.7976  185.6723 N   0  0  0  0  0  0  0  0  0  0  0  0
  156.1400  138.8001  186.6046 H   0  0  0  0  0  0  0  0  0  0  0  0
  157.5939  141.1805  182.7412 C   0  0  0  0  0  0  0  0  0  0  0  0
  158.2841  140.4478  183.6801 C   0  0  0  0  0  0  0  0  0  0  0  0
  157.6105  139.7003  184.6157 C   0  0  0  0  0  0  0  0  0  0  0  0
  156.2174  139.6370  184.6730 C   0  0  0  0  0  0  0  0  0  0  0  0
  155.5408  140.3585  183.7475 C   0  0  0  0  0  0  0  0  0  0  0  0
  156.2276  141.1215  182.7932 C   0  0  0  0  0  0  0  0  0  0  0  0
  157.6778  143.3465  181.5235 C   0  0  0  0  0  0  0  0  0  0  0  0
  158.3120  141.9896  181.7265 C   0  0  0  0  0  0  0  0  0  0  0  0
  158.3468  141.2893  180.3730 C   0  0  0  0  0  0  0  0  0  0  0  0
 36 37  1  0  0  0
 37 38  1  0  0  0
 37 30  1  0  0  0
 30 31  2  0  0  0
 31 32  1  0  0  0
 32 33  2  0  0  0
 33 28  1  0  0  0
 28  1  1  0  0  0
  1  2  2  0  0  0
  2  3  1  0  0  0
  3  4  2  0  0  0
  4  5  1  0  0  0
  5  6  1  0  0  0
  6  7  1  0  0  0
  7  8  1  0  0  0
  8  9  1  0  0  0
  9 10  1  0  0  0
 10 11  1  0  0  0
  8 12  1  0  0  0
 12 13  2  0  0  0
 13 14  1  0  0  0
 14 15  2  0  0  0
 15 16  1  0  0  0
 16 17  2  0  0  0
 17 18  1  0  0  0
 18 19  1  0  0  0
 18 20  1  0  0  0
 18 21  1  0  0  0
  3 22  1  0  0  0
 22 23  1  0  0  0
 23 24  1  0  0  0
 24 25  1  0  0  0
 25 26  1  0  0  0
 26 27  1  0  0  0
 33 34  1  0  0  0
 34 35  2  0  0  0
 35 30  1  0  0  0
 11  1  1  0  0  0
 17 12  1  0  0  0
 27 22  1  0  0  0
 11  5  2  0  0  0
 28 29  1  0  0  0
M  END
> <minimizedAffinity>
-7.48505

> <CNNscore>
0.3580940068

> <CNNaffinity>
6.5787534714

> <CNN_VS>
2.3558120728

> <CNNaffinity_variance>
0.0596070886

$$$$
[H]c1nc(N2C([H])([H])C([H])([H])c3nc(N4C([H])([H])C([H])([H])OC([H])([H])C4([H])[H])nc(N([H])c4c([H])c([H])c(C([H])(C([H])([H])[H])C([H])([H])[H])c([H])c4[H])c3C([H])([H])C2([H])[H])c(C(F)(F)F)c([H])c1[H]


 38 42  0  0  0  0  0  0  0  0999 V2000
  153.6842  136.1428  184.6362 C   0  0  0  0  0  0  0  0  0  0  0  0
  154.5831  135.1601  184.3230 N   0  0  0  0  0  0  0  0  0  0  0  0
  154.3156  134.0885  183.5760 C   0  0  0  0  0  0  0  0  0  0  0  0
  153.0534  133.9674  183.0901 N   0  0  0  0  0  0  0  0  0  0  0  0
  152.1212  134.8708  183.3438 C   0  0  0  0  0  0  0  0  0  0  0  0
  150.8345  134.5707  182.6892 C   0  0  0  0  0  0  0  0  0  0  0  0
  150.4042  135.7099  181.7937 C   0  0  0  0  0  0  0  0  0  0  0  0
  150.2310  136.9883  182.3707 N   0  0  0  0  0  0  0  0  0  0  0  0
  150.9281  137.7556  183.3383 C   0  0  0  0  0  0  0  0  0  0  0  0
  151.4591  136.9836  184.4905 C   0  0  0  0  0  0  0  0  0  0  0  0
  152.4463  135.9855  184.1389 C   0  0  0  0  0  0  0  0  0  0  0  0
  149.1368  137.7269  181.7982 C   0  0  0  0  0  0  0  0  0  0  0  0
  147.9358  137.3586  182.3602 N   0  0  0  0  0  0  0  0  0  0  0  0
  146.8198  137.9507  181.9886 C   0  0  0  0  0  0  0  0  0  0  0  0
  146.8502  138.9340  181.0424 C   0  0  0  0  0  0  0  0  0  0  0  0
  148.0247  139.3110  180.4759 C   0  0  0  0  0  0  0  0  0  0  0  0
  149.2391  138.6864  180.8605 C   0  0  0  0  0  0  0  0  0  0  0  0
  150.4953  139.0692  180.2330 C   0  0  0  0  0  0  0  0  0  0  0  0
  150.3444  139.8128  179.0590 F   0  0  0  0  0  0  0  0  0  0  0  0
  151.4751  138.1365  180.1428 F   0  0  0  0  0  0  0  0  0  0  0  0
  151.0553  140.0569  181.1103 F   0  0  0  0  0  0  0  0  0  0  0  0
  155.2885  133.1083  183.2852 N   0  0  0  0  0  0  0  0  0  0  0  0
  155.8962  132.3690  184.3580 C   0  0  0  0  0  0  0  0  0  0  0  0
  157.2509  131.8214  184.0588 C   0  0  0  0  0  0  0  0  0  0  0  0
  157.7543  132.2953  182.8439 O   0  0  0  0  0  0  0  0  0  0  0  0
  156.8236  131.9052  181.8633 C   0  0  0  0  0  0  0  0  0  0  0  0
  155.6632  132.8525  181.9259 C   0  0  0  0  0  0  0  0  0  0  0  0
  154.0842  137.2639  185.3655 N   0  0  0  0  0  0  0  0  0  0  0  0
  153.8755  137.3046  186.3982 H   0  0  0  0  0  0  0  0  0  0  0  0
  155.8311  140.7392  183.6542 C   0  0  0  0  0  0  0  0  0  0  0  0
  154.5773  140.2903  183.3061 C   0  0  0  0  0  0  0  0  0  0  0  0
  154.0583  139.1543  183.8789 C   0  0  0  0  0  0  0  0  0  0  0  0
  154.7516  138.4008  184.8273 C   0  0  0  0  0  0  0  0  0  0  0  0
  155.9850  138.8452  185.1684 C   0  0  0  0  0  0  0  0  0  0  0  0
  156.5149  140.0038  184.5841 C   0  0  0  0  0  0  0  0  0  0  0  0
  155.3493  143.0257  182.8049 C   0  0  0  0  0  0  0  0  0  0  0  0
  156.3995  141.9649  183.0424 C   0  0  0  0  0  0  0  0  0  0  0  0
  157.0654  141.6666  181.7040 C   0  0  0  0  0  0  0  0  0  0  0  0
 36 37  1  0  0  0
 37 38  1  0  0  0
 37 30  1  0  0  0
 30 31  2  0  0  0
 31 32  1  0  0  0
 32 33  2  0  0  0
 33 28  1  0  0  0
 28  1  1  0  0  0
  1  2  2  0  0  0
  2  3  1  0  0  0
  3  4  2  0  0  0
  4  5  1  0  0  0
  5  6  1  0  0  0
  6  7  1  0  0  0
  7  8  1  0  0  0
  8  9  1  0  0  0
  9 10  1  0  0  0
 10 11  1  0  0  0
  8 12  1  0  0  0
 12 13  2  0  0  0
 13 14  1  0  0  0
 14 15  2  0  0  0
 15 16  1  0  0  0
 16 17  2  0  0  0
 17 18  1  0  0  0
 18 19  1  0  0  0
 18 20  1  0  0  0
 18 21  1  0  0  0
  3 22  1  0  0  0
 22 23  1  0  0  0
 23 24  1  0  0  0
 24 25  1  0  0  0
 25 26  1  0  0  0
 26 27  1  0  0  0
 33 34  1  0  0  0
 34 35  2  0  0  0
 35 30  1  0  0  0
 11  1  1  0  0  0
 17 12  1  0  0  0
 27 22  1  0  0  0
 11  5  2  0  0  0
 28 29  1  0  0  0
M  END
> <minimizedAffinity>
-6.70648

> <CNNscore>
0.3191605806

> <CNNaffinity>
6.5743780136

> <CNN_VS>
2.0982823372

> <CNNaffinity_variance>
0.0174500290

$$$$
[H]c1nc(N2C([H])([H])C([H])([H])c3nc(N4C([H])([H])C([H])([H])OC([H])([H])C4([H])[H])nc(N([H])c4c([H])c([H])c(C([H])(C([H])([H])[H])C([H])([H])[H])c([H])c4[H])c3C([H])([H])C2([H])[H])c(C(F)(F)F)c([H])c1[H]


 38 42  0  0  0  0  0  0  0  0999 V2000
  155.1865  139.0847  184.6422 C   0  0  0  0  0  0  0  0  0  0  0  0
  154.2788  139.3326  183.6491 N   0  0  0  0  0  0  0  0  0  0  0  0
  153.1609  138.6357  183.4430 C   0  0  0  0  0  0  0  0  0  0  0  0
  152.9071  137.6019  184.2861 N   0  0  0  0  0  0  0  0  0  0  0  0
  153.7308  137.2919  185.2734 C   0  0  0  0  0  0  0  0  0  0  0  0
  153.2494  136.1648  186.0933 C   0  0  0  0  0  0  0  0  0  0  0  0
  153.1216  136.5672  187.5447 C   0  0  0  0  0  0  0  0  0  0  0  0
  154.2733  137.0396  188.2138 N   0  0  0  0  0  0  0  0  0  0  0  0
  155.3545  137.8910  187.8716 C   0  0  0  0  0  0  0  0  0  0  0  0
  155.8644  137.7348  186.4855 C   0  0  0  0  0  0  0  0  0  0  0  0
  154.9009  138.0527  185.4535 C   0  0  0  0  0  0  0  0  0  0  0  0
  154.3396  136.6281  189.5911 C   0  0  0  0  0  0  0  0  0  0  0  0
  153.3549  137.2295  190.3412 N   0  0  0  0  0  0  0  0  0  0  0  0
  153.2326  136.9501  191.6222 C   0  0  0  0  0  0  0  0  0  0  0  0
  154.0839  136.0611  192.2121 C   0  0  0  0  0  0  0  0  0  0  0  0
  155.0620  135.4581  191.4895 C   0  0  0  0  0  0  0  0  0  0  0  0
  155.2127  135.7444  190.1081 C   0  0  0  0  0  0  0  0  0  0  0  0
  156.2791  135.1208  189.3386 C   0  0  0  0  0  0  0  0  0  0  0  0
  157.4317  135.9029  189.2211 F   0  0  0  0  0  0  0  0  0  0  0  0
  155.9501  134.4916  188.1836 F   0  0  0  0  0  0  0  0  0  0  0  0
  156.7569  134.0562  190.1735 F   0  0  0  0  0  0  0  0  0  0  0  0
  152.2606  138.9427  182.4003 N   0  0  0  0  0  0  0  0  0  0  0  0
  151.1088  138.1093  182.1866 C   0  0  0  0  0  0  0  0  0  0  0  0
  150.5669  138.1261  180.7971 C   0  0  0  0  0  0  0  0  0  0  0  0
  151.4043  138.8128  179.9133 O   0  0  0  0  0  0  0  0  0  0  0  0
  151.5188  140.1178  180.4268 C   0  0  0  0  0  0  0  0  0  0  0  0
  152.4957  140.0820  181.5636 C   0  0  0  0  0  0  0  0  0  0  0  0
  156.2906  139.9204  184.8192 N   0  0  0  0  0  0  0  0  0  0  0  0
  156.6214  140.1320  185.7977 H   0  0  0  0  0  0  0  0  0  0  0  0
  158.4195  142.0393  181.8132 C   0  0  0  0  0  0  0  0  0  0  0  0
  157.5526  142.6583  182.6850 C   0  0  0  0  0  0  0  0  0  0  0  0
  156.8777  141.9292  183.6341 C   0  0  0  0  0  0  0  0  0  0  0  0
  157.0239  140.5481  183.7723 C   0  0  0  0  0  0  0  0  0  0  0  0
  157.8782  139.9417  182.9135 C   0  0  0  0  0  0  0  0  0  0  0  0
  158.5665  140.6850  181.9449 C   0  0  0  0  0  0  0  0  0  0  0  0
  159.1008  144.3051  181.0495 C   0  0  0  0  0  0  0  0  0  0  0  0
  159.1535  142.8177  180.7860 C   0  0  0  0  0  0  0  0  0  0  0  0
  158.5900  142.5759  179.3904 C   0  0  0  0  0  0  0  0  0  0  0  0
 36 37  1  0  0  0
 37 38  1  0  0  0
 37 30  1  0  0  0
 30 31  2  0  0  0
 31 32  1  0  0  0
 32 33  2  0  0  0
 33 28  1  0  0  0
 28  1  1  0  0  0
  1  2  2  0  0  0
  2  3  1  0  0  0
  3  4  2  0  0  0
  4  5  1  0  0  0
  5  6  1  0  0  0
  6  7  1  0  0  0
  7  8  1  0  0  0
  8  9  1  0  0  0
  9 10  1  0  0  0
 10 11  1  0  0  0
  8 12  1  0  0  0
 12 13  2  0  0  0
 13 14  1  0  0  0
 14 15  2  0  0  0
 15 16  1  0  0  0
 16 17  2  0  0  0
 17 18  1  0  0  0
 18 19  1  0  0  0
 18 20  1  0  0  0
 18 21  1  0  0  0
  3 22  1  0  0  0
 22 23  1  0  0  0
 23 24  1  0  0  0
 24 25  1  0  0  0
 25 26  1  0  0  0
 26 27  1  0  0  0
 33 34  1  0  0  0
 34 35  2  0  0  0
 35 30  1  0  0  0
 11  1  1  0  0  0
 17 12  1  0  0  0
 27 22  1  0  0  0
 11  5  2  0  0  0
 28 29  1  0  0  0
M  END
> <minimizedAffinity>
-8.69985

> <CNNscore>
0.3163183331

> <CNNaffinity>
6.7187156677

> <CNN_VS>
2.1252529621

> <CNNaffinity_variance>
0.0561680309

$$$$
[H]c1nc(N2C([H])([H])C([H])([H])c3nc(N4C([H])([H])C([H])([H])OC([H])([H])C4([H])[H])nc(N([H])c4c([H])c([H])c(C([H])(C([H])([H])[H])C([H])([H])[H])c([H])c4[H])c3C([H])([H])C2([H])[H])c(C(F)(F)F)c([H])c1[H]


 38 42  0  0  0  0  0  0  0  0999 V2000
  153.9952  139.7467  183.6784 C   0  0  0  0  0  0  0  0  0  0  0  0
  153.1546  139.6817  182.6011 N   0  0  0  0  0  0  0  0  0  0  0  0
  152.5337  138.5791  182.1806 C   0  0  0  0  0  0  0  0  0  0  0  0
  152.7549  137.4354  182.8784 N   0  0  0  0  0  0  0  0  0  0  0  0
  153.5530  137.4077  183.9328 C   0  0  0  0  0  0  0  0  0  0  0  0
  153.6228  136.0789  184.5681 C   0  0  0  0  0  0  0  0  0  0  0  0
  153.2130  136.1516  186.0212 C   0  0  0  0  0  0  0  0  0  0  0  0
  153.9394  137.0060  186.8812 N   0  0  0  0  0  0  0  0  0  0  0  0
  154.4921  138.3073  186.7708 C   0  0  0  0  0  0  0  0  0  0  0  0
  155.1106  138.6191  185.4571 C   0  0  0  0  0  0  0  0  0  0  0  0
  154.1901  138.5944  184.3408 C   0  0  0  0  0  0  0  0  0  0  0  0
  154.0992  136.4743  188.2088 C   0  0  0  0  0  0  0  0  0  0  0  0
  153.0647  136.8600  189.0303 N   0  0  0  0  0  0  0  0  0  0  0  0
  153.0173  136.4424  190.2783 C   0  0  0  0  0  0  0  0  0  0  0  0
  153.9963  135.6238  190.7627 C   0  0  0  0  0  0  0  0  0  0  0  0
  155.0251  135.2330  189.9683 C   0  0  0  0  0  0  0  0  0  0  0  0
  155.0969  135.6711  188.6208 C   0  0  0  0  0  0  0  0  0  0  0  0
  156.2148  135.2765  187.7764 C   0  0  0  0  0  0  0  0  0  0  0  0
  157.0826  136.3230  187.4511 F   0  0  0  0  0  0  0  0  0  0  0  0
  155.9646  134.4549  186.7274 F   0  0  0  0  0  0  0  0  0  0  0  0
  157.0533  134.4830  188.6285 F   0  0  0  0  0  0  0  0  0  0  0  0
  151.6742  138.5763  181.0611 N   0  0  0  0  0  0  0  0  0  0  0  0
  151.9395  139.4598  179.9585 C   0  0  0  0  0  0  0  0  0  0  0  0
  150.7471  139.8210  179.1384 C   0  0  0  0  0  0  0  0  0  0  0  0
  149.5553  139.3747  179.7165 O   0  0  0  0  0  0  0  0  0  0  0  0
  149.6837  137.9785  179.8340 C   0  0  0  0  0  0  0  0  0  0  0  0
  150.5462  137.6933  181.0268 C   0  0  0  0  0  0  0  0  0  0  0  0
  154.5387  140.9677  184.0816 N   0  0  0  0  0  0  0  0  0  0  0  0
  154.2746  141.3598  185.0242 H   0  0  0  0  0  0  0  0  0  0  0  0
  157.3004  143.1187  181.6726 C   0  0  0  0  0  0  0  0  0  0  0  0
  157.4086  141.7651  181.8973 C   0  0  0  0  0  0  0  0  0  0  0  0
  156.4970  141.1143  182.6932 C   0  0  0  0  0  0  0  0  0  0  0  0
  155.4288  141.7675  183.3098 C   0  0  0  0  0  0  0  0  0  0  0  0
  155.3245  143.0995  183.0864 C   0  0  0  0  0  0  0  0  0  0  0  0
  156.2544  143.7638  182.2749 C   0  0  0  0  0  0  0  0  0  0  0  0
  159.2127  142.8787  180.1019 C   0  0  0  0  0  0  0  0  0  0  0  0
  158.2787  143.8300  180.8141 C   0  0  0  0  0  0  0  0  0  0  0  0
  159.1345  144.7982  181.6228 C   0  0  0  0  0  0  0  0  0  0  0  0
 36 37  1  0  0  0
 37 38  1  0  0  0
 37 30  1  0  0  0
 30 31  2  0  0  0
 31 32  1  0  0  0
 32 33  2  0  0  0
 33 28  1  0  0  0
 28  1  1  0  0  0
  1  2  2  0  0  0
  2  3  1  0  0  0
  3  4  2  0  0  0
  4  5  1  0  0  0
  5  6  1  0  0  0
  6  7  1  0  0  0
  7  8  1  0  0  0
  8  9  1  0  0  0
  9 10  1  0  0  0
 10 11  1  0  0  0
  8 12  1  0  0  0
 12 13  2  0  0  0
 13 14  1  0  0  0
 14 15  2  0  0  0
 15 16  1  0  0  0
 16 17  2  0  0  0
 17 18  1  0  0  0
 18 19  1  0  0  0
 18 20  1  0  0  0
 18 21  1  0  0  0
  3 22  1  0  0  0
 22 23  1  0  0  0
 23 24  1  0  0  0
 24 25  1  0  0  0
 25 26  1  0  0  0
 26 27  1  0  0  0
 33 34  1  0  0  0
 34 35  2  0  0  0
 35 30  1  0  0  0
 11  1  1  0  0  0
 17 12  1  0  0  0
 27 22  1  0  0  0
 11  5  2  0  0  0
 28 29  1  0  0  0
M  END
> <minimizedAffinity>
-8.72246

> <CNNscore>
0.3123418689

> <CNNaffinity>
6.7171468735

> <CNN_VS>
2.0980463028

> <CNNaffinity_variance>
0.0705378056

$$$$
[H]c1nc(N2C([H])([H])C([H])([H])c3nc(N4C([H])([H])C([H])([H])OC([H])([H])C4([H])[H])nc(N([H])c4c([H])c([H])c(C([H])(C([H])([H])[H])C([H])([H])[H])c([H])c4[H])c3C([H])([H])C2([H])[H])c(C(F)(F)F)c([H])c1[H]


 38 42  0  0  0  0  0  0  0  0999 V2000
  154.0062  137.1582  185.6862 C   0  0  0  0  0  0  0  0  0  0  0  0
  154.8262  136.1321  186.0687 N   0  0  0  0  0  0  0  0  0  0  0  0
  154.5935  134.8398  185.8370 C   0  0  0  0  0  0  0  0  0  0  0  0
  153.4545  134.5221  185.1693 N   0  0  0  0  0  0  0  0  0  0  0  0
  152.6050  135.4508  184.7628 C   0  0  0  0  0  0  0  0  0  0  0  0
  151.4559  134.8968  184.0233 C   0  0  0  0  0  0  0  0  0  0  0  0
  151.3606  135.4997  182.6405 C   0  0  0  0  0  0  0  0  0  0  0  0
  151.2256  136.9020  182.5279 N   0  0  0  0  0  0  0  0  0  0  0  0
  151.7932  138.0213  183.1882 C   0  0  0  0  0  0  0  0  0  0  0  0
  151.9769  137.8613  184.6532 C   0  0  0  0  0  0  0  0  0  0  0  0
  152.8888  136.8029  185.0305 C   0  0  0  0  0  0  0  0  0  0  0  0
  150.3707  137.3055  181.4430 C   0  0  0  0  0  0  0  0  0  0  0  0
  149.1835  136.6095  181.4557 N   0  0  0  0  0  0  0  0  0  0  0  0
  148.2548  136.8650  180.5577 C   0  0  0  0  0  0  0  0  0  0  0  0
  148.4668  137.8231  179.6089 C   0  0  0  0  0  0  0  0  0  0  0  0
  149.6313  138.5199  179.5794 C   0  0  0  0  0  0  0  0  0  0  0  0
  150.6460  138.2610  180.5365 C   0  0  0  0  0  0  0  0  0  0  0  0
  151.9066  138.9868  180.4883 C   0  0  0  0  0  0  0  0  0  0  0  0
  152.1904  139.7170  181.6460 F   0  0  0  0  0  0  0  0  0  0  0  0
  152.2131  139.6609  179.3527 F   0  0  0  0  0  0  0  0  0  0  0  0
  152.9162  137.9693  180.5545 F   0  0  0  0  0  0  0  0  0  0  0  0
  155.4811  133.8254  186.2555 N   0  0  0  0  0  0  0  0  0  0  0  0
  156.3885  134.0777  187.3416 C   0  0  0  0  0  0  0  0  0  0  0  0
  157.6251  133.2438  187.3374 C   0  0  0  0  0  0  0  0  0  0  0  0
  157.7541  132.4987  186.1618 O   0  0  0  0  0  0  0  0  0  0  0  0
  156.6020  131.6945  186.0874 C   0  0  0  0  0  0  0  0  0  0  0  0
  155.4721  132.5511  185.6001 C   0  0  0  0  0  0  0  0  0  0  0  0
  154.3771  138.4849  185.9123 N   0  0  0  0  0  0  0  0  0  0  0  0
  153.9553  139.0030  186.7280 H   0  0  0  0  0  0  0  0  0  0  0  0
  157.2956  140.5845  183.6470 C   0  0  0  0  0  0  0  0  0  0  0  0
  157.6114  139.8567  184.7717 C   0  0  0  0  0  0  0  0  0  0  0  0
  156.6311  139.2029  185.4785 C   0  0  0  0  0  0  0  0  0  0  0  0
  155.2851  139.2337  185.1107 C   0  0  0  0  0  0  0  0  0  0  0  0
  154.9773  139.9503  184.0031 C   0  0  0  0  0  0  0  0  0  0  0  0
  155.9770  140.6176  183.2820 C   0  0  0  0  0  0  0  0  0  0  0  0
  159.7314  141.0297  183.4226 C   0  0  0  0  0  0  0  0  0  0  0  0
  158.3467  141.2928  182.8766 C   0  0  0  0  0  0  0  0  0  0  0  0
  158.1267  142.8012  182.8836 C   0  0  0  0  0  0  0  0  0  0  0  0
 36 37  1  0  0  0
 37 38  1  0  0  0
 37 30  1  0  0  0
 30 31  2  0  0  0
 31 32  1  0  0  0
 32 33  2  0  0  0
 33 28  1  0  0  0
 28  1  1  0  0  0
  1  2  2  0  0  0
  2  3  1  0  0  0
  3  4  2  0  0  0
  4  5  1  0  0  0
  5  6  1  0  0  0
  6  7  1  0  0  0
  7  8  1  0  0  0
  8  9  1  0  0  0
  9 10  1  0  0  0
 10 11  1  0  0  0
  8 12  1  0  0  0
 12 13  2  0  0  0
 13 14  1  0  0  0
 14 15  2  0  0  0
 15 16  1  0  0  0
 16 17  2  0  0  0
 17 18  1  0  0  0
 18 19  1  0  0  0
 18 20  1  0  0  0
 18 21  1  0  0  0
  3 22  1  0  0  0
 22 23  1  0  0  0
 23 24  1  0  0  0
 24 25  1  0  0  0
 25 26  1  0  0  0
 26 27  1  0  0  0
 33 34  1  0  0  0
 34 35  2  0  0  0
 35 30  1  0  0  0
 11  1  1  0  0  0
 17 12  1  0  0  0
 27 22  1  0  0  0
 11  5  2  0  0  0
 28 29  1  0  0  0
M  END
> <minimizedAffinity>
-6.67365

> <CNNscore>
0.3084770441

> <CNNaffinity>
6.5151772499

> <CNN_VS>
2.0097825527

> <CNNaffinity_variance>
0.1291660070

$$$$
[H]c1nc(N2C([H])([H])C([H])([H])c3nc(N4C([H])([H])C([H])([H])OC([H])([H])C4([H])[H])nc(N([H])c4c([H])c([H])c(C([H])(C([H])([H])[H])C([H])([H])[H])c([H])c4[H])c3C([H])([H])C2([H])[H])c(C(F)(F)F)c([H])c1[H]


 38 42  0  0  0  0  0  0  0  0999 V2000
  154.7149  139.3116  184.3546 C   0  0  0  0  0  0  0  0  0  0  0  0
  153.6607  139.2375  183.4857 N   0  0  0  0  0  0  0  0  0  0  0  0
  152.9118  138.1533  183.2822 C   0  0  0  0  0  0  0  0  0  0  0  0
  153.2220  137.0395  183.9944 N   0  0  0  0  0  0  0  0  0  0  0  0
  154.2253  137.0225  184.8562 C   0  0  0  0  0  0  0  0  0  0  0  0
  154.3655  135.7301  185.5521 C   0  0  0  0  0  0  0  0  0  0  0  0
  154.2806  135.9102  187.0505 C   0  0  0  0  0  0  0  0  0  0  0  0
  155.2147  136.7656  187.6773 N   0  0  0  0  0  0  0  0  0  0  0  0
  155.7930  138.0219  187.3640 C   0  0  0  0  0  0  0  0  0  0  0  0
  156.1299  138.2201  185.9312 C   0  0  0  0  0  0  0  0  0  0  0  0
  154.9914  138.1888  185.0384 C   0  0  0  0  0  0  0  0  0  0  0  0
  155.6296  136.3012  188.9746 C   0  0  0  0  0  0  0  0  0  0  0  0
  156.5874  135.3184  188.8716 N   0  0  0  0  0  0  0  0  0  0  0  0
  157.1170  134.7917  189.9561 C   0  0  0  0  0  0  0  0  0  0  0  0
  156.7170  135.2195  191.1891 C   0  0  0  0  0  0  0  0  0  0  0  0
  155.7732  136.1873  191.3114 C   0  0  0  0  0  0  0  0  0  0  0  0
  155.1885  136.7684  190.1567 C   0  0  0  0  0  0  0  0  0  0  0  0
  154.1555  137.7854  190.2865 C   0  0  0  0  0  0  0  0  0  0  0  0
  152.9011  137.3897  189.8134 F   0  0  0  0  0  0  0  0  0  0  0  0
  154.4675  139.0604  189.9473 F   0  0  0  0  0  0  0  0  0  0  0  0
  153.9004  137.8686  191.6961 F   0  0  0  0  0  0  0  0  0  0  0  0
  151.8333  138.1400  182.3719 N   0  0  0  0  0  0  0  0  0  0  0  0
  152.0494  138.5368  181.0072 C   0  0  0  0  0  0  0  0  0  0  0  0
  150.8399  139.0476  180.2995 C   0  0  0  0  0  0  0  0  0  0  0  0
  149.7560  139.2193  181.1654 O   0  0  0  0  0  0  0  0  0  0  0  0
  149.5130  137.9550  181.7332 C   0  0  0  0  0  0  0  0  0  0  0  0
  150.5321  137.7292  182.8096 C   0  0  0  0  0  0  0  0  0  0  0  0
  155.3903  140.5177  184.5495 N   0  0  0  0  0  0  0  0  0  0  0  0
  155.2813  141.0233  185.4684 H   0  0  0  0  0  0  0  0  0  0  0  0
  158.0259  142.1959  181.6695 C   0  0  0  0  0  0  0  0  0  0  0  0
  158.3107  141.0322  182.3473 C   0  0  0  0  0  0  0  0  0  0  0  0
  157.4319  140.5335  183.2784 C   0  0  0  0  0  0  0  0  0  0  0  0
  156.2236  141.1590  183.5893 C   0  0  0  0  0  0  0  0  0  0  0  0
  155.9456  142.3036  182.9203 C   0  0  0  0  0  0  0  0  0  0  0  0
  156.8420  142.8129  181.9707 C   0  0  0  0  0  0  0  0  0  0  0  0
  159.1679  144.2320  180.8142 C   0  0  0  0  0  0  0  0  0  0  0  0
  158.9675  142.7417  180.6618 C   0  0  0  0  0  0  0  0  0  0  0  0
  158.4793  142.4845  179.2408 C   0  0  0  0  0  0  0  0  0  0  0  0
 36 37  1  0  0  0
 37 38  1  0  0  0
 37 30  1  0  0  0
 30 31  2  0  0  0
 31 32  1  0  0  0
 32 33  2  0  0  0
 33 28  1  0  0  0
 28  1  1  0  0  0
  1  2  2  0  0  0
  2  3  1  0  0  0
  3  4  2  0  0  0
  4  5  1  0  0  0
  5  6  1  0  0  0
  6  7  1  0  0  0
  7  8  1  0  0  0
  8  9  1  0  0  0
  9 10  1  0  0  0
 10 11  1  0  0  0
  8 12  1  0  0  0
 12 13  2  0  0  0
 13 14  1  0  0  0
 14 15  2  0  0  0
 15 16  1  0  0  0
 16 17  2  0  0  0
 17 18  1  0  0  0
 18 19  1  0  0  0
 18 20  1  0  0  0
 18 21  1  0  0  0
  3 22  1  0  0  0
 22 23  1  0  0  0
 23 24  1  0  0  0
 24 25  1  0  0  0
 25 26  1  0  0  0
 26 27  1  0  0  0
 33 34  1  0  0  0
 34 35  2  0  0  0
 35 30  1  0  0  0
 11  1  1  0  0  0
 17 12  1  0  0  0
 27 22  1  0  0  0
 11  5  2  0  0  0
 28 29  1  0  0  0
M  END
> <minimizedAffinity>
-8.67601

> <CNNscore>
0.3046186268

> <CNNaffinity>
6.7294883728

> <CNN_VS>
2.0499274731

> <CNNaffinity_variance>
0.0894026309

$$$$
[H]c1nc([H])c2c([H])c([H])c([H])c(N([H])C(=O)N([H])[C@]([H])(c3c([H])c([H])c(F)c(F)c3[H])C([H])([H])[H])c2c1[H]


 26 28  0  0  0  0  0  0  0  0999 V2000
  155.8512  140.6324  182.4220 N   0  0  0  0  0  0  0  0  0  0  0  0
  154.4265  140.3944  182.6456 C   0  0  0  0  0  0  0  0  0  0  0  0
  153.7320  141.3148  183.0977 O   0  0  0  0  0  0  0  0  0  0  0  0
  153.9787  139.0899  182.3086 N   0  0  0  0  0  0  0  0  0  0  0  0
  156.4348  139.8717  182.0463 H   0  0  0  0  0  0  0  0  0  0  0  0
  154.7310  138.4099  181.9270 H   0  0  0  0  0  0  0  0  0  0  0  0
  152.6686  138.6547  182.4554 C   0  0  0  0  0  0  0  0  0  0  0  0
  152.2448  137.9307  183.5278 C   0  0  0  0  0  0  0  0  0  0  0  0
  150.9182  137.4780  183.6260 C   0  0  0  0  0  0  0  0  0  0  0  0
  150.0302  137.7629  182.6351 C   0  0  0  0  0  0  0  0  0  0  0  0
  150.4200  138.4918  181.5353 C   0  0  0  0  0  0  0  0  0  0  0  0
  149.5151  138.7827  180.5336 C   0  0  0  0  0  0  0  0  0  0  0  0
  149.9061  139.4982  179.4689 N   0  0  0  0  0  0  0  0  0  0  0  0
  151.1587  139.9510  179.3332 C   0  0  0  0  0  0  0  0  0  0  0  0
  152.0963  139.6643  180.3448 C   0  0  0  0  0  0  0  0  0  0  0  0
  151.7336  138.9337  181.4500 C   0  0  0  0  0  0  0  0  0  0  0  0
  157.0439  141.8100  184.0912 C   0  0  0  0  0  0  0  0  0  0  0  0
  156.3407  141.9288  182.7474 C   0  0  0  0  0  0  0  0  0  0  0  0
  157.3240  142.4531  181.7824 C   0  0  0  0  0  0  0  0  0  0  0  0
  157.6736  141.7930  180.6288 C   0  0  0  0  0  0  0  0  0  0  0  0
  158.5959  142.3388  179.7783 C   0  0  0  0  0  0  0  0  0  0  0  0
  159.1924  143.5670  180.0675 C   0  0  0  0  0  0  0  0  0  0  0  0
  160.0982  144.1105  179.2392 F   0  0  0  0  0  0  0  0  0  0  0  0
  158.8461  144.2406  181.2290 C   0  0  0  0  0  0  0  0  0  0  0  0
  159.4072  145.4324  181.5358 F   0  0  0  0  0  0  0  0  0  0  0  0
  157.9135  143.6639  182.0650 C   0  0  0  0  0  0  0  0  0  0  0  0
 17 18  1  0  0  0
 18  1  1  0  0  0
  1  2  1  0  0  0
  2  3  2  0  0  0
  2  4  1  0  0  0
  4  7  1  0  0  0
  7  8  2  0  0  0
  8  9  1  0  0  0
  9 10  2  0  0  0
 10 11  1  0  0  0
 11 12  2  0  0  0
 12 13  1  0  0  0
 13 14  2  0  0  0
 14 15  1  0  0  0
 15 16  2  0  0  0
 18 19  1  0  0  0
 19 20  2  0  0  0
 20 21  1  0  0  0
 21 22  2  0  0  0
 22 23  1  0  0  0
 22 24  1  0  0  0
 24 25  1  0  0  0
 24 26  2  0  0  0
 16  7  1  0  0  0
 26 19  1  0  0  0
 16 11  1  0  0  0
  1  5  1  0  0  0
  4  6  1  0  0  0
M  END
> <minimizedAffinity>
-8.48354

> <CNNscore>
0.6407702565

> <CNNaffinity>
5.9966530800

> <CNN_VS>
3.8424768448

> <CNNaffinity_variance>
0.0272265971

$$$$
[H]c1nc([H])c2c([H])c([H])c([H])c(N([H])C(=O)N([H])[C@]([H])(c3c([H])c([H])c(F)c(F)c3[H])C([H])([H])[H])c2c1[H]


 26 28  0  0  0  0  0  0  0  0999 V2000
  155.6076  140.8119  182.3225 N   0  0  0  0  0  0  0  0  0  0  0  0
  154.1656  140.8618  182.0885 C   0  0  0  0  0  0  0  0  0  0  0  0
  153.5733  141.9382  182.2437 O   0  0  0  0  0  0  0  0  0  0  0  0
  153.5813  139.6290  181.6952 N   0  0  0  0  0  0  0  0  0  0  0  0
  156.1067  139.9202  182.1954 H   0  0  0  0  0  0  0  0  0  0  0  0
  154.2559  138.7851  181.6125 H   0  0  0  0  0  0  0  0  0  0  0  0
  152.2284  139.4567  181.4358 C   0  0  0  0  0  0  0  0  0  0  0  0
  151.5792  140.1050  180.4298 C   0  0  0  0  0  0  0  0  0  0  0  0
  150.2009  139.9315  180.2182 C   0  0  0  0  0  0  0  0  0  0  0  0
  149.4904  139.1014  181.0292 C   0  0  0  0  0  0  0  0  0  0  0  0
  150.1103  138.4287  182.0568 C   0  0  0  0  0  0  0  0  0  0  0  0
  149.3869  137.5838  182.8752 C   0  0  0  0  0  0  0  0  0  0  0  0
  150.0036  136.9300  183.8705 N   0  0  0  0  0  0  0  0  0  0  0  0
  151.3144  137.0634  184.1088 C   0  0  0  0  0  0  0  0  0  0  0  0
  152.0691  137.9210  183.2845 C   0  0  0  0  0  0  0  0  0  0  0  0
  151.4727  138.6082  182.2554 C   0  0  0  0  0  0  0  0  0  0  0  0
  156.9402  141.7508  184.0366 C   0  0  0  0  0  0  0  0  0  0  0  0
  156.2326  142.0279  182.7187 C   0  0  0  0  0  0  0  0  0  0  0  0
  157.2496  142.5116  181.7676 C   0  0  0  0  0  0  0  0  0  0  0  0
  157.6160  141.8184  180.6389 C   0  0  0  0  0  0  0  0  0  0  0  0
  158.5696  142.3274  179.8002 C   0  0  0  0  0  0  0  0  0  0  0  0
  159.1814  143.5511  180.0764 C   0  0  0  0  0  0  0  0  0  0  0  0
  160.1179  144.0586  179.2595 F   0  0  0  0  0  0  0  0  0  0  0  0
  158.8183  144.2579  181.2129 C   0  0  0  0  0  0  0  0  0  0  0  0
  159.3936  145.4462  181.5066 F   0  0  0  0  0  0  0  0  0  0  0  0
  157.8542  143.7178  182.0376 C   0  0  0  0  0  0  0  0  0  0  0  0
 17 18  1  0  0  0
 18  1  1  0  0  0
  1  2  1  0  0  0
  2  3  2  0  0  0
  2  4  1  0  0  0
  4  7  1  0  0  0
  7  8  2  0  0  0
  8  9  1  0  0  0
  9 10  2  0  0  0
 10 11  1  0  0  0
 11 12  2  0  0  0
 12 13  1  0  0  0
 13 14  2  0  0  0
 14 15  1  0  0  0
 15 16  2  0  0  0
 18 19  1  0  0  0
 19 20  2  0  0  0
 20 21  1  0  0  0
 21 22  2  0  0  0
 22 23  1  0  0  0
 22 24  1  0  0  0
 24 25  1  0  0  0
 24 26  2  0  0  0
 16  7  1  0  0  0
 26 19  1  0  0  0
 16 11  1  0  0  0
  1  5  1  0  0  0
  4  6  1  0  0  0
M  END
> <minimizedAffinity>
-8.92383

> <CNNscore>
0.6169999242

> <CNNaffinity>
5.9563231468

> <CNN_VS>
3.6750509739

> <CNNaffinity_variance>
0.0156124113

$$$$
[H]c1nc([H])c2c([H])c([H])c([H])c(N([H])C(=O)N([H])[C@]([H])(c3c([H])c([H])c(F)c(F)c3[H])C([H])([H])[H])c2c1[H]


 26 28  0  0  0  0  0  0  0  0999 V2000
  156.8517  142.3940  182.2752 N   0  0  0  0  0  0  0  0  0  0  0  0
  156.2410  141.0913  182.5330 C   0  0  0  0  0  0  0  0  0  0  0  0
  156.9236  140.0706  182.3721 O   0  0  0  0  0  0  0  0  0  0  0  0
  154.8860  141.1396  182.9543 N   0  0  0  0  0  0  0  0  0  0  0  0
  156.2901  143.2470  182.4069 H   0  0  0  0  0  0  0  0  0  0  0  0
  154.4463  142.1264  183.0378 H   0  0  0  0  0  0  0  0  0  0  0  0
  154.1192  140.0180  183.2392 C   0  0  0  0  0  0  0  0  0  0  0  0
  154.3549  139.2130  184.3117 C   0  0  0  0  0  0  0  0  0  0  0  0
  153.5785  138.0663  184.5496 C   0  0  0  0  0  0  0  0  0  0  0  0
  152.5680  137.7437  183.6973 C   0  0  0  0  0  0  0  0  0  0  0  0
  152.2986  138.5317  182.6022 C   0  0  0  0  0  0  0  0  0  0  0  0
  151.2695  138.2037  181.7418 C   0  0  0  0  0  0  0  0  0  0  0  0
  151.0138  138.9827  180.6805 N   0  0  0  0  0  0  0  0  0  0  0  0
  151.7261  140.0848  180.4148 C   0  0  0  0  0  0  0  0  0  0  0  0
  152.7800  140.4357  181.2812 C   0  0  0  0  0  0  0  0  0  0  0  0
  153.0727  139.6625  182.3782 C   0  0  0  0  0  0  0  0  0  0  0  0
  158.3502  143.4890  180.8085 C   0  0  0  0  0  0  0  0  0  0  0  0
  158.2103  142.3895  181.8506 C   0  0  0  0  0  0  0  0  0  0  0  0
  159.1717  142.6821  182.9291 C   0  0  0  0  0  0  0  0  0  0  0  0
  159.6754  141.7199  183.7712 C   0  0  0  0  0  0  0  0  0  0  0  0
  160.5645  142.0639  184.7526 C   0  0  0  0  0  0  0  0  0  0  0  0
  160.9711  143.3895  184.9126 C   0  0  0  0  0  0  0  0  0  0  0  0
  161.8430  143.7366  185.8724 F   0  0  0  0  0  0  0  0  0  0  0  0
  160.4685  144.3674  184.0677 C   0  0  0  0  0  0  0  0  0  0  0  0
  160.8442  145.6601  184.1986 F   0  0  0  0  0  0  0  0  0  0  0  0
  159.5744  143.9882  183.0890 C   0  0  0  0  0  0  0  0  0  0  0  0
 17 18  1  0  0  0
 18  1  1  0  0  0
  1  2  1  0  0  0
  2  3  2  0  0  0
  2  4  1  0  0  0
  4  7  1  0  0  0
  7  8  2  0  0  0
  8  9  1  0  0  0
  9 10  2  0  0  0
 10 11  1  0  0  0
 11 12  2  0  0  0
 12 13  1  0  0  0
 13 14  2  0  0  0
 14 15  1  0  0  0
 15 16  2  0  0  0
 18 19  1  0  0  0
 19 20  2  0  0  0
 20 21  1  0  0  0
 21 22  2  0  0  0
 22 23  1  0  0  0
 22 24  1  0  0  0
 24 25  1  0  0  0
 24 26  2  0  0  0
 16  7  1  0  0  0
 26 19  1  0  0  0
 16 11  1  0  0  0
  1  5  1  0  0  0
  4  6  1  0  0  0
M  END
> <minimizedAffinity>
-8.91979

> <CNNscore>
0.5223642588

> <CNNaffinity>
6.2582602501

> <CNN_VS>
3.2690913677

> <CNNaffinity_variance>
0.0833309740

$$$$
[H]c1nc([H])c2c([H])c([H])c([H])c(N([H])C(=O)N([H])[C@]([H])(c3c([H])c([H])c(F)c(F)c3[H])C([H])([H])[H])c2c1[H]


 26 28  0  0  0  0  0  0  0  0999 V2000
  155.6476  140.8782  182.5309 N   0  0  0  0  0  0  0  0  0  0  0  0
  154.2137  140.9044  182.2486 C   0  0  0  0  0  0  0  0  0  0  0  0
  153.5825  141.9479  182.4641 O   0  0  0  0  0  0  0  0  0  0  0  0
  153.6826  139.6895  181.7409 N   0  0  0  0  0  0  0  0  0  0  0  0
  156.1788  140.0140  182.3542 H   0  0  0  0  0  0  0  0  0  0  0  0
  154.3860  138.8744  181.6186 H   0  0  0  0  0  0  0  0  0  0  0  0
  152.3456  139.4987  181.4196 C   0  0  0  0  0  0  0  0  0  0  0  0
  151.7337  140.1407  180.3865 C   0  0  0  0  0  0  0  0  0  0  0  0
  150.3691  139.9482  180.1118 C   0  0  0  0  0  0  0  0  0  0  0  0
  149.6343  139.1057  180.8876 C   0  0  0  0  0  0  0  0  0  0  0  0
  150.2163  138.4389  181.9409 C   0  0  0  0  0  0  0  0  0  0  0  0
  149.4685  137.5813  182.7234 C   0  0  0  0  0  0  0  0  0  0  0  0
  150.0485  136.9333  183.7443 N   0  0  0  0  0  0  0  0  0  0  0  0
  151.3449  137.0847  184.0425 C   0  0  0  0  0  0  0  0  0  0  0  0
  152.1241  137.9554  183.2555 C   0  0  0  0  0  0  0  0  0  0  0  0
  151.5655  138.6371  182.2019 C   0  0  0  0  0  0  0  0  0  0  0  0
  156.9348  141.7093  184.3332 C   0  0  0  0  0  0  0  0  0  0  0  0
  156.2197  142.0774  183.0418 C   0  0  0  0  0  0  0  0  0  0  0  0
  157.2181  142.6889  182.1462 C   0  0  0  0  0  0  0  0  0  0  0  0
  157.9195  143.8269  182.4649 C   0  0  0  0  0  0  0  0  0  0  0  0
  158.8313  144.3406  181.5835 C   0  0  0  0  0  0  0  0  0  0  0  0
  159.0616  143.7205  180.3546 C   0  0  0  0  0  0  0  0  0  0  0  0
  159.9542  144.2169  179.4835 F   0  0  0  0  0  0  0  0  0  0  0  0
  158.3588  142.5717  180.0241 C   0  0  0  0  0  0  0  0  0  0  0  0
  158.5607  141.9488  178.8406 F   0  0  0  0  0  0  0  0  0  0  0  0
  157.4472  142.0794  180.9339 C   0  0  0  0  0  0  0  0  0  0  0  0
 17 18  1  0  0  0
 18  1  1  0  0  0
  1  2  1  0  0  0
  2  3  2  0  0  0
  2  4  1  0  0  0
  4  7  1  0  0  0
  7  8  2  0  0  0
  8  9  1  0  0  0
  9 10  2  0  0  0
 10 11  1  0  0  0
 11 12  2  0  0  0
 12 13  1  0  0  0
 13 14  2  0  0  0
 14 15  1  0  0  0
 15 16  2  0  0  0
 18 19  1  0  0  0
 19 20  2  0  0  0
 20 21  1  0  0  0
 21 22  2  0  0  0
 22 23  1  0  0  0
 22 24  1  0  0  0
 24 25  1  0  0  0
 24 26  2  0  0  0
 16  7  1  0  0  0
 26 19  1  0  0  0
 16 11  1  0  0  0
  1  5  1  0  0  0
  4  6  1  0  0  0
M  END
> <minimizedAffinity>
-8.56452

> <CNNscore>
0.4914674461

> <CNNaffinity>
5.7818789482

> <CNN_VS>
2.8416051865

> <CNNaffinity_variance>
0.0342014618

$$$$
[H]c1nc([H])c2c([H])c([H])c([H])c(N([H])C(=O)N([H])[C@]([H])(c3c([H])c([H])c(F)c(F)c3[H])C([H])([H])[H])c2c1[H]


 26 28  0  0  0  0  0  0  0  0999 V2000
  157.6488  141.7569  184.1219 N   0  0  0  0  0  0  0  0  0  0  0  0
  156.9297  140.5116  183.8599 C   0  0  0  0  0  0  0  0  0  0  0  0
  157.5059  139.6104  183.2358 O   0  0  0  0  0  0  0  0  0  0  0  0
  155.6041  140.4694  184.3666 N   0  0  0  0  0  0  0  0  0  0  0  0
  157.1760  142.5106  184.6402 H   0  0  0  0  0  0  0  0  0  0  0  0
  155.2630  141.3561  184.8876 H   0  0  0  0  0  0  0  0  0  0  0  0
  154.7477  139.3871  184.2166 C   0  0  0  0  0  0  0  0  0  0  0  0
  154.8327  138.2643  184.9822 C   0  0  0  0  0  0  0  0  0  0  0  0
  153.9697  137.1741  184.7791 C   0  0  0  0  0  0  0  0  0  0  0  0
  153.0263  137.2303  183.8001 C   0  0  0  0  0  0  0  0  0  0  0  0
  152.9090  138.3472  183.0055 C   0  0  0  0  0  0  0  0  0  0  0  0
  151.9475  138.4025  182.0158 C   0  0  0  0  0  0  0  0  0  0  0  0
  151.8401  139.4988  181.2510 N   0  0  0  0  0  0  0  0  0  0  0  0
  152.6392  140.5614  181.4089 C   0  0  0  0  0  0  0  0  0  0  0  0
  153.6262  140.5237  182.4134 C   0  0  0  0  0  0  0  0  0  0  0  0
  153.7673  139.4181  183.2163 C   0  0  0  0  0  0  0  0  0  0  0  0
  159.0114  142.9828  182.6265 C   0  0  0  0  0  0  0  0  0  0  0  0
  158.9821  141.8398  183.6302 C   0  0  0  0  0  0  0  0  0  0  0  0
  159.9820  142.1429  184.6699 C   0  0  0  0  0  0  0  0  0  0  0  0
  159.6491  142.5435  185.9417 C   0  0  0  0  0  0  0  0  0  0  0  0
  160.6310  142.8098  186.8565 C   0  0  0  0  0  0  0  0  0  0  0  0
  161.9778  142.6796  186.5142 C   0  0  0  0  0  0  0  0  0  0  0  0
  162.9481  142.9384  187.4050 F   0  0  0  0  0  0  0  0  0  0  0  0
  162.3236  142.2759  185.2335 C   0  0  0  0  0  0  0  0  0  0  0  0
  163.6201  142.1408  184.8729 F   0  0  0  0  0  0  0  0  0  0  0  0
  161.3106  142.0152  184.3351 C   0  0  0  0  0  0  0  0  0  0  0  0
 17 18  1  0  0  0
 18  1  1  0  0  0
  1  2  1  0  0  0
  2  3  2  0  0  0
  2  4  1  0  0  0
  4  7  1  0  0  0
  7  8  2  0  0  0
  8  9  1  0  0  0
  9 10  2  0  0  0
 10 11  1  0  0  0
 11 12  2  0  0  0
 12 13  1  0  0  0
 13 14  2  0  0  0
 14 15  1  0  0  0
 15 16  2  0  0  0
 18 19  1  0  0  0
 19 20  2  0  0  0
 20 21  1  0  0  0
 21 22  2  0  0  0
 22 23  1  0  0  0
 22 24  1  0  0  0
 24 25  1  0  0  0
 24 26  2  0  0  0
 16  7  1  0  0  0
 26 19  1  0  0  0
 16 11  1  0  0  0
  1  5  1  0  0  0
  4  6  1  0  0  0
M  END
> <minimizedAffinity>
-9.35480

> <CNNscore>
0.4865730107

> <CNNaffinity>
6.0454559326

> <CNN_VS>
2.9415557384

> <CNNaffinity_variance>
0.0579212606

$$$$
[H]c1nc([H])c2c([H])c([H])c([H])c(N([H])C(=O)N([H])[C@]([H])(c3c([H])c([H])c(F)c(F)c3[H])C([H])([H])[H])c2c1[H]


 26 28  0  0  0  0  0  0  0  0999 V2000
  157.5934  141.9001  183.9507 N   0  0  0  0  0  0  0  0  0  0  0  0
  156.6443  141.1340  183.1452 C   0  0  0  0  0  0  0  0  0  0  0  0
  157.0626  140.5201  182.1543 O   0  0  0  0  0  0  0  0  0  0  0  0
  155.3008  141.1786  183.6020 N   0  0  0  0  0  0  0  0  0  0  0  0
  157.2528  142.4131  184.7759 H   0  0  0  0  0  0  0  0  0  0  0  0
  155.1171  141.7720  184.4898 H   0  0  0  0  0  0  0  0  0  0  0  0
  154.2440  140.5317  182.9758 C   0  0  0  0  0  0  0  0  0  0  0  0
  153.5507  141.0788  181.9396 C   0  0  0  0  0  0  0  0  0  0  0  0
  152.4643  140.4087  181.3522 C   0  0  0  0  0  0  0  0  0  0  0  0
  152.0883  139.1876  181.8206 C   0  0  0  0  0  0  0  0  0  0  0  0
  152.7636  138.6016  182.8662 C   0  0  0  0  0  0  0  0  0  0  0  0
  152.3820  137.3604  183.3360 C   0  0  0  0  0  0  0  0  0  0  0  0
  153.0513  136.7976  184.3527 N   0  0  0  0  0  0  0  0  0  0  0  0
  154.0927  137.3981  184.9421 C   0  0  0  0  0  0  0  0  0  0  0  0
  154.4969  138.6649  184.4766 C   0  0  0  0  0  0  0  0  0  0  0  0
  153.8357  139.2737  183.4379 C   0  0  0  0  0  0  0  0  0  0  0  0
  159.1066  142.9887  182.4943 C   0  0  0  0  0  0  0  0  0  0  0  0
  158.9520  141.8815  183.5262 C   0  0  0  0  0  0  0  0  0  0  0  0
  159.9170  142.1512  184.6074 C   0  0  0  0  0  0  0  0  0  0  0  0
  159.5418  142.4992  185.8828 C   0  0  0  0  0  0  0  0  0  0  0  0
  160.4929  142.7369  186.8372 C   0  0  0  0  0  0  0  0  0  0  0  0
  161.8506  142.6303  186.5320 C   0  0  0  0  0  0  0  0  0  0  0  0
  162.7910  142.8615  187.4616 F   0  0  0  0  0  0  0  0  0  0  0  0
  162.2390  142.2797  185.2477 C   0  0  0  0  0  0  0  0  0  0  0  0
  163.5471  142.1686  184.9224 F   0  0  0  0  0  0  0  0  0  0  0  0
  161.2562  142.0468  184.3091 C   0  0  0  0  0  0  0  0  0  0  0  0
 17 18  1  0  0  0
 18  1  1  0  0  0
  1  2  1  0  0  0
  2  3  2  0  0  0
  2  4  1  0  0  0
  4  7  1  0  0  0
  7  8  2  0  0  0
  8  9  1  0  0  0
  9 10  2  0  0  0
 10 11  1  0  0  0
 11 12  2  0  0  0
 12 13  1  0  0  0
 13 14  2  0  0  0
 14 15  1  0  0  0
 15 16  2  0  0  0
 18 19  1  0  0  0
 19 20  2  0  0  0
 20 21  1  0  0  0
 21 22  2  0  0  0
 22 23  1  0  0  0
 22 24  1  0  0  0
 24 25  1  0  0  0
 24 26  2  0  0  0
 16  7  1  0  0  0
 26 19  1  0  0  0
 16 11  1  0  0  0
  1  5  1  0  0  0
  4  6  1  0  0  0
M  END
> <minimizedAffinity>
-9.88359

> <CNNscore>
0.4644721150

> <CNNaffinity>
6.1141757965

> <CNN_VS>
2.8398642540

> <CNNaffinity_variance>
0.0667377338

$$$$
[H]c1nc([H])c2c([H])c([H])c([H])c(N([H])C(=O)N([H])[C@]([H])(c3c([H])c([H])c(F)c(F)c3[H])C([H])([H])[H])c2c1[H]


 26 28  0  0  0  0  0  0  0  0999 V2000
  154.2808  136.8383  186.5304 N   0  0  0  0  0  0  0  0  0  0  0  0
  153.8619  138.0551  185.8373 C   0  0  0  0  0  0  0  0  0  0  0  0
  152.9776  138.7569  186.3465 O   0  0  0  0  0  0  0  0  0  0  0  0
  154.5372  138.3086  184.6144 N   0  0  0  0  0  0  0  0  0  0  0  0
  155.0155  136.2499  186.1129 H   0  0  0  0  0  0  0  0  0  0  0  0
  155.2842  137.5805  184.3210 H   0  0  0  0  0  0  0  0  0  0  0  0
  154.2824  139.4010  183.7966 C   0  0  0  0  0  0  0  0  0  0  0  0
  154.8832  140.6107  183.9686 C   0  0  0  0  0  0  0  0  0  0  0  0
  154.5749  141.7042  183.1417 C   0  0  0  0  0  0  0  0  0  0  0  0
  153.6587  141.5630  182.1456 C   0  0  0  0  0  0  0  0  0  0  0  0
  153.0298  140.3567  181.9400 C   0  0  0  0  0  0  0  0  0  0  0  0
  152.1037  140.2159  180.9254 C   0  0  0  0  0  0  0  0  0  0  0  0
  151.5011  139.0336  180.7321 N   0  0  0  0  0  0  0  0  0  0  0  0
  151.7639  137.9645  181.4940 C   0  0  0  0  0  0  0  0  0  0  0  0
  152.7059  138.0887  182.5341 C   0  0  0  0  0  0  0  0  0  0  0  0
  153.3432  139.2837  182.7636 C   0  0  0  0  0  0  0  0  0  0  0  0
  153.1023  135.1236  187.6560 C   0  0  0  0  0  0  0  0  0  0  0  0
  153.6276  136.5476  187.7613 C   0  0  0  0  0  0  0  0  0  0  0  0
  154.5182  136.6011  188.9347 C   0  0  0  0  0  0  0  0  0  0  0  0
  155.3130  135.5505  189.3261 C   0  0  0  0  0  0  0  0  0  0  0  0
  156.1151  135.6700  190.4281 C   0  0  0  0  0  0  0  0  0  0  0  0
  156.1384  136.8538  191.1671 C   0  0  0  0  0  0  0  0  0  0  0  0
  156.9222  136.9806  192.2495 F   0  0  0  0  0  0  0  0  0  0  0  0
  155.3401  137.9195  190.7799 C   0  0  0  0  0  0  0  0  0  0  0  0
  155.3416  139.0789  191.4763 F   0  0  0  0  0  0  0  0  0  0  0  0
  154.5432  137.7671  189.6650 C   0  0  0  0  0  0  0  0  0  0  0  0
 17 18  1  0  0  0
 18  1  1  0  0  0
  1  2  1  0  0  0
  2  3  2  0  0  0
  2  4  1  0  0  0
  4  7  1  0  0  0
  7  8  2  0  0  0
  8  9  1  0  0  0
  9 10  2  0  0  0
 10 11  1  0  0  0
 11 12  2  0  0  0
 12 13  1  0  0  0
 13 14  2  0  0  0
 14 15  1  0  0  0
 15 16  2  0  0  0
 18 19  1  0  0  0
 19 20  2  0  0  0
 20 21  1  0  0  0
 21 22  2  0  0  0
 22 23  1  0  0  0
 22 24  1  0  0  0
 24 25  1  0  0  0
 24 26  2  0  0  0
 16  7  1  0  0  0
 26 19  1  0  0  0
 16 11  1  0  0  0
  1  5  1  0  0  0
  4  6  1  0  0  0
M  END
> <minimizedAffinity>
-7.02245

> <CNNscore>
0.4420161247

> <CNNaffinity>
5.2050557137

> <CNN_VS>
2.3007185459

> <CNNaffinity_variance>
0.0668127835

$$$$
[H]c1nc([H])c2c([H])c([H])c([H])c(N([H])C(=O)N([H])[C@]([H])(c3c([H])c([H])c(F)c(F)c3[H])C([H])([H])[H])c2c1[H]


 26 28  0  0  0  0  0  0  0  0999 V2000
  157.8329  141.7900  184.2584 N   0  0  0  0  0  0  0  0  0  0  0  0
  157.0222  140.6484  183.8387 C   0  0  0  0  0  0  0  0  0  0  0  0
  157.5204  139.8132  183.0719 O   0  0  0  0  0  0  0  0  0  0  0  0
  155.7076  140.6203  184.3741 N   0  0  0  0  0  0  0  0  0  0  0  0
  157.4252  142.4884  184.8959 H   0  0  0  0  0  0  0  0  0  0  0  0
  155.4407  141.4407  185.0298 H   0  0  0  0  0  0  0  0  0  0  0  0
  154.7739  139.6320  184.0934 C   0  0  0  0  0  0  0  0  0  0  0  0
  153.9272  139.6945  183.0290 C   0  0  0  0  0  0  0  0  0  0  0  0
  152.9714  138.6913  182.7954 C   0  0  0  0  0  0  0  0  0  0  0  0
  152.8809  137.6313  183.6438 C   0  0  0  0  0  0  0  0  0  0  0  0
  153.7186  137.5322  184.7306 C   0  0  0  0  0  0  0  0  0  0  0  0
  153.6268  136.4528  185.5870 C   0  0  0  0  0  0  0  0  0  0  0  0
  154.4523  136.3652  186.6403 N   0  0  0  0  0  0  0  0  0  0  0  0
  155.3785  137.2961  186.9017 C   0  0  0  0  0  0  0  0  0  0  0  0
  155.4872  138.4047  186.0392 C   0  0  0  0  0  0  0  0  0  0  0  0
  154.6591  138.5297  184.9505 C   0  0  0  0  0  0  0  0  0  0  0  0
  159.1810  142.9876  182.7274 C   0  0  0  0  0  0  0  0  0  0  0  0
  159.1583  141.8555  183.7436 C   0  0  0  0  0  0  0  0  0  0  0  0
  160.1783  142.1604  184.7631 C   0  0  0  0  0  0  0  0  0  0  0  0
  159.8703  142.5704  186.0382 C   0  0  0  0  0  0  0  0  0  0  0  0
  160.8699  142.8378  186.9334 C   0  0  0  0  0  0  0  0  0  0  0  0
  162.2096  142.6991  186.5676 C   0  0  0  0  0  0  0  0  0  0  0  0
  163.1971  142.9590  187.4390 F   0  0  0  0  0  0  0  0  0  0  0  0
  162.5303  142.2859  185.2834 C   0  0  0  0  0  0  0  0  0  0  0  0
  163.8195  142.1425  184.9002 F   0  0  0  0  0  0  0  0  0  0  0  0
  161.5000  142.0244  184.4051 C   0  0  0  0  0  0  0  0  0  0  0  0
 17 18  1  0  0  0
 18  1  1  0  0  0
  1  2  1  0  0  0
  2  3  2  0  0  0
  2  4  1  0  0  0
  4  7  1  0  0  0
  7  8  2  0  0  0
  8  9  1  0  0  0
  9 10  2  0  0  0
 10 11  1  0  0  0
 11 12  2  0  0  0
 12 13  1  0  0  0
 13 14  2  0  0  0
 14 15  1  0  0  0
 15 16  2  0  0  0
 18 19  1  0  0  0
 19 20  2  0  0  0
 20 21  1  0  0  0
 21 22  2  0  0  0
 22 23  1  0  0  0
 22 24  1  0  0  0
 24 25  1  0  0  0
 24 26  2  0  0  0
 16  7  1  0  0  0
 26 19  1  0  0  0
 16 11  1  0  0  0
  1  5  1  0  0  0
  4  6  1  0  0  0
M  END
> <minimizedAffinity>
-8.95247

> <CNNscore>
0.4307733476

> <CNNaffinity>
6.0539078712

> <CNN_VS>
2.6078622341

> <CNNaffinity_variance>
0.0888605788

$$$$
[H]c1nc([H])c2c([H])c([H])c([H])c(N([H])C(=O)N([H])[C@]([H])(c3c([H])c([H])c(F)c(F)c3[H])C([H])([H])[H])c2c1[H]


 26 28  0  0  0  0  0  0  0  0999 V2000
  157.1129  140.1672  184.3732 N   0  0  0  0  0  0  0  0  0  0  0  0
  155.6777  139.8929  184.3327 C   0  0  0  0  0  0  0  0  0  0  0  0
  154.8957  140.8348  184.1459 O   0  0  0  0  0  0  0  0  0  0  0  0
  155.3246  138.5303  184.5181 N   0  0  0  0  0  0  0  0  0  0  0  0
  157.7690  139.3889  184.5281 H   0  0  0  0  0  0  0  0  0  0  0  0
  156.1458  137.8403  184.6722 H   0  0  0  0  0  0  0  0  0  0  0  0
  154.0188  138.0589  184.5268 C   0  0  0  0  0  0  0  0  0  0  0  0
  153.2757  137.9166  183.3948 C   0  0  0  0  0  0  0  0  0  0  0  0
  151.9449  137.4683  183.4456 C   0  0  0  0  0  0  0  0  0  0  0  0
  151.3768  137.1678  184.6450 C   0  0  0  0  0  0  0  0  0  0  0  0
  152.0949  137.2988  185.8111 C   0  0  0  0  0  0  0  0  0  0  0  0
  151.5165  136.9887  187.0261 C   0  0  0  0  0  0  0  0  0  0  0  0
  152.2285  137.1160  188.1554 N   0  0  0  0  0  0  0  0  0  0  0  0
  153.4991  137.5381  188.1554 C   0  0  0  0  0  0  0  0  0  0  0  0
  154.1064  137.8593  186.9255 C   0  0  0  0  0  0  0  0  0  0  0  0
  153.4091  137.7423  185.7478 C   0  0  0  0  0  0  0  0  0  0  0  0
  158.7042  141.7580  185.1030 C   0  0  0  0  0  0  0  0  0  0  0  0
  157.5093  141.5222  184.1913 C   0  0  0  0  0  0  0  0  0  0  0  0
  157.9372  141.8376  182.8164 C   0  0  0  0  0  0  0  0  0  0  0  0
  157.9417  140.9147  181.7982 C   0  0  0  0  0  0  0  0  0  0  0  0
  158.3536  141.2774  180.5449 C   0  0  0  0  0  0  0  0  0  0  0  0
  158.7732  142.5825  180.2829 C   0  0  0  0  0  0  0  0  0  0  0  0
  159.1789  142.9478  179.0565 F   0  0  0  0  0  0  0  0  0  0  0  0
  158.7720  143.5209  181.3039 C   0  0  0  0  0  0  0  0  0  0  0  0
  159.1729  144.7931  181.0800 F   0  0  0  0  0  0  0  0  0  0  0  0
  158.3512  143.1237  182.5554 C   0  0  0  0  0  0  0  0  0  0  0  0
 17 18  1  0  0  0
 18  1  1  0  0  0
  1  2  1  0  0  0
  2  3  2  0  0  0
  2  4  1  0  0  0
  4  7  1  0  0  0
  7  8  2  0  0  0
  8  9  1  0  0  0
  9 10  2  0  0  0
 10 11  1  0  0  0
 11 12  2  0  0  0
 12 13  1  0  0  0
 13 14  2  0  0  0
 14 15  1  0  0  0
 15 16  2  0  0  0
 18 19  1  0  0  0
 19 20  2  0  0  0
 20 21  1  0  0  0
 21 22  2  0  0  0
 22 23  1  0  0  0
 22 24  1  0  0  0
 24 25  1  0  0  0
 24 26  2  0  0  0
 16  7  1  0  0  0
 26 19  1  0  0  0
 16 11  1  0  0  0
  1  5  1  0  0  0
  4  6  1  0  0  0
M  END
> <minimizedAffinity>
-7.29952

> <CNNscore>
0.4065526724

> <CNNaffinity>
5.6753802299

> <CNN_VS>
2.3073410988

> <CNNaffinity_variance>
0.0845915675

$$$$
