[H]c1nc(N2C([H])([H])C([H])([H])c3nc(N4C([H])([H])C([H])([H])C([H])([H])C([H])([H])C4([H])[H])nc(N([H])c4c([H])c([H])c(C(F)(F)F)c([H])c4[H])c3C([H])([H])C2([H])[H])c(C(F)(F)F)c([H])c1[H]


 39 43  0  0  0  0  0  0  0  0999 V2000
  154.1125  136.5425  184.5337 C   0  0  0  0  0  0  0  0  0  0  0  0
  154.3017  135.5375  183.6479 N   0  0  0  0  0  0  0  0  0  0  0  0
  154.6782  134.2787  184.0010 C   0  0  0  0  0  0  0  0  0  0  0  0
  154.8790  133.9830  185.2956 N   0  0  0  0  0  0  0  0  0  0  0  0
  154.7183  134.9111  186.2339 C   0  0  0  0  0  0  0  0  0  0  0  0
  154.8997  134.4776  187.6434 C   0  0  0  0  0  0  0  0  0  0  0  0
  153.5762  134.8064  188.3771 C   0  0  0  0  0  0  0  0  0  0  0  0
  153.3356  136.1681  188.6489 N   0  0  0  0  0  0  0  0  0  0  0  0
  153.3092  137.3673  187.8153 C   0  0  0  0  0  0  0  0  0  0  0  0
  154.3261  137.3398  186.7406 C   0  0  0  0  0  0  0  0  0  0  0  0
  154.3421  136.1828  185.8484 C   0  0  0  0  0  0  0  0  0  0  0  0
  153.0738  136.5277  189.9793 C   0  0  0  0  0  0  0  0  0  0  0  0
  151.7947  136.1825  190.4240 N   0  0  0  0  0  0  0  0  0  0  0  0
  151.4446  136.4796  191.7059 C   0  0  0  0  0  0  0  0  0  0  0  0
  152.2982  137.1033  192.5795 C   0  0  0  0  0  0  0  0  0  0  0  0
  153.5521  137.4291  192.1038 C   0  0  0  0  0  0  0  0  0  0  0  0
  153.9500  137.1386  190.7943 C   0  0  0  0  0  0  0  0  0  0  0  0
  155.3004  137.4819  190.3924 C   0  0  0  0  0  0  0  0  0  0  0  0
  156.0572  136.4420  189.8869 F   0  0  0  0  0  0  0  0  0  0  0  0
  156.0352  137.7900  191.5910 F   0  0  0  0  0  0  0  0  0  0  0  0
  155.4496  138.6426  189.6783 F   0  0  0  0  0  0  0  0  0  0  0  0
  154.9448  133.2836  183.0221 N   0  0  0  0  0  0  0  0  0  0  0  0
  156.2189  132.6367  182.9669 C   0  0  0  0  0  0  0  0  0  0  0  0
  156.6794  132.2745  181.6012 C   0  0  0  0  0  0  0  0  0  0  0  0
  155.5805  131.7748  180.7199 C   0  0  0  0  0  0  0  0  0  0  0  0
  154.4743  132.8065  180.6853 C   0  0  0  0  0  0  0  0  0  0  0  0
  153.8789  133.0018  182.0661 C   0  0  0  0  0  0  0  0  0  0  0  0
  153.5372  137.7952  184.2860 N   0  0  0  0  0  0  0  0  0  0  0  0
  153.5452  138.4321  185.1991 H   0  0  0  0  0  0  0  0  0  0  0  0
  151.4747  139.5219  181.0657 C   0  0  0  0  0  0  0  0  0  0  0  0
  151.0107  138.3753  181.6960 C   0  0  0  0  0  0  0  0  0  0  0  0
  151.7231  137.8718  182.7346 C   0  0  0  0  0  0  0  0  0  0  0  0
  152.8980  138.4152  183.2420 C   0  0  0  0  0  0  0  0  0  0  0  0
  153.3217  139.5457  182.5915 C   0  0  0  0  0  0  0  0  0  0  0  0
  152.6294  140.1129  181.5080 C   0  0  0  0  0  0  0  0  0  0  0  0
  149.5813  139.2826  179.6257 F   0  0  0  0  0  0  0  0  0  0  0  0
  150.6819  140.0343  179.8947 C   0  0  0  0  0  0  0  0  0  0  0  0
  151.4805  140.0538  178.7687 F   0  0  0  0  0  0  0  0  0  0  0  0
  150.3019  141.3496  180.1051 F   0  0  0  0  0  0  0  0  0  0  0  0
 36 37  1  0  0  0
 37 38  1  0  0  0
 37 39  1  0  0  0
 37 30  1  0  0  0
 30 31  2  0  0  0
 31 32  1  0  0  0
 32 33  2  0  0  0
 33 28  1  0  0  0
 28  1  1  0  0  0
  1  2  2  0  0  0
  2  3  1  0  0  0
  3  4  2  0  0  0
  4  5  1  0  0  0
  5  6  1  0  0  0
  6  7  1  0  0  0
  7  8  1  0  0  0
  8  9  1  0  0  0
  9 10  1  0  0  0
 10 11  1  0  0  0
  8 12  1  0  0  0
 12 13  2  0  0  0
 13 14  1  0  0  0
 14 15  2  0  0  0
 15 16  1  0  0  0
 16 17  2  0  0  0
 17 18  1  0  0  0
 18 19  1  0  0  0
 18 20  1  0  0  0
 18 21  1  0  0  0
  3 22  1  0  0  0
 22 23  1  0  0  0
 23 24  1  0  0  0
 24 25  1  0  0  0
 25 26  1  0  0  0
 26 27  1  0  0  0
 33 34  1  0  0  0
 34 35  2  0  0  0
 35 30  1  0  0  0
 11  1  1  0  0  0
 17 12  1  0  0  0
 27 22  1  0  0  0
 11  5  2  0  0  0
 28 29  1  0  0  0
M  END
> <minimizedAffinity>
-7.78561

> <CNNscore>
0.4503832459

> <CNNaffinity>
6.5020089149

> <CNN_VS>
2.9283959866

> <CNNaffinity_variance>
0.0733419508

$$$$
[H]c1nc(N2C([H])([H])C([H])([H])c3nc(N4C([H])([H])C([H])([H])C([H])([H])C([H])([H])C4([H])[H])nc(N([H])c4c([H])c([H])c(C(F)(F)F)c([H])c4[H])c3C([H])([H])C2([H])[H])c(C(F)(F)F)c([H])c1[H]


 39 43  0  0  0  0  0  0  0  0999 V2000
  154.8664  138.7242  184.3974 C   0  0  0  0  0  0  0  0  0  0  0  0
  153.9995  139.0837  183.4230 N   0  0  0  0  0  0  0  0  0  0  0  0
  152.7347  138.5937  183.3171 C   0  0  0  0  0  0  0  0  0  0  0  0
  152.2892  137.7022  184.2175 N   0  0  0  0  0  0  0  0  0  0  0  0
  153.0752  137.2909  185.2076 C   0  0  0  0  0  0  0  0  0  0  0  0
  152.4773  136.3529  186.1925 C   0  0  0  0  0  0  0  0  0  0  0  0
  152.6167  137.0263  187.5800 C   0  0  0  0  0  0  0  0  0  0  0  0
  153.9121  137.0500  188.1344 N   0  0  0  0  0  0  0  0  0  0  0  0
  155.2040  137.5229  187.6436 C   0  0  0  0  0  0  0  0  0  0  0  0
  155.3855  137.2901  186.1935 C   0  0  0  0  0  0  0  0  0  0  0  0
  154.3571  137.7987  185.2888 C   0  0  0  0  0  0  0  0  0  0  0  0
  154.0783  136.5099  189.4183 C   0  0  0  0  0  0  0  0  0  0  0  0
  153.7435  135.1567  189.5174 N   0  0  0  0  0  0  0  0  0  0  0  0
  153.8792  134.5348  190.7212 C   0  0  0  0  0  0  0  0  0  0  0  0
  154.3332  135.1833  191.8410 C   0  0  0  0  0  0  0  0  0  0  0  0
  154.6531  136.5189  191.7041 C   0  0  0  0  0  0  0  0  0  0  0  0
  154.5294  137.1924  190.4840 C   0  0  0  0  0  0  0  0  0  0  0  0
  154.9262  138.5860  190.4232 C   0  0  0  0  0  0  0  0  0  0  0  0
  156.2823  138.8171  190.2912 F   0  0  0  0  0  0  0  0  0  0  0  0
  154.6830  139.1543  191.7229 F   0  0  0  0  0  0  0  0  0  0  0  0
  154.1686  139.4034  189.6248 F   0  0  0  0  0  0  0  0  0  0  0  0
  151.8948  138.9416  182.2248 N   0  0  0  0  0  0  0  0  0  0  0  0
  150.6407  138.2829  182.0295 C   0  0  0  0  0  0  0  0  0  0  0  0
  150.2441  138.0981  180.6093 C   0  0  0  0  0  0  0  0  0  0  0  0
  150.5845  139.2679  179.7434 C   0  0  0  0  0  0  0  0  0  0  0  0
  152.0618  139.5643  179.8809 C   0  0  0  0  0  0  0  0  0  0  0  0
  152.4004  139.9563  181.3059 C   0  0  0  0  0  0  0  0  0  0  0  0
  156.0979  139.3189  184.6997 N   0  0  0  0  0  0  0  0  0  0  0  0
  156.5542  138.8657  185.6085 H   0  0  0  0  0  0  0  0  0  0  0  0
  158.2350  142.5801  183.1497 C   0  0  0  0  0  0  0  0  0  0  0  0
  156.8488  142.5875  183.2232 C   0  0  0  0  0  0  0  0  0  0  0  0
  156.2202  141.5025  183.7401 C   0  0  0  0  0  0  0  0  0  0  0  0
  156.8517  140.3608  184.2208 C   0  0  0  0  0  0  0  0  0  0  0  0
  158.2196  140.3939  184.1297 C   0  0  0  0  0  0  0  0  0  0  0  0
  158.9274  141.4869  183.6011 C   0  0  0  0  0  0  0  0  0  0  0  0
  159.3936  143.5445  181.2940 F   0  0  0  0  0  0  0  0  0  0  0  0
  158.8999  143.7828  182.5383 C   0  0  0  0  0  0  0  0  0  0  0  0
  159.9398  144.1970  183.3464 F   0  0  0  0  0  0  0  0  0  0  0  0
  158.0188  144.8504  182.4881 F   0  0  0  0  0  0  0  0  0  0  0  0
 36 37  1  0  0  0
 37 38  1  0  0  0
 37 39  1  0  0  0
 37 30  1  0  0  0
 30 31  2  0  0  0
 31 32  1  0  0  0
 32 33  2  0  0  0
 33 28  1  0  0  0
 28  1  1  0  0  0
  1  2  2  0  0  0
  2  3  1  0  0  0
  3  4  2  0  0  0
  4  5  1  0  0  0
  5  6  1  0  0  0
  6  7  1  0  0  0
  7  8  1  0  0  0
  8  9  1  0  0  0
  9 10  1  0  0  0
 10 11  1  0  0  0
  8 12  1  0  0  0
 12 13  2  0  0  0
 13 14  1  0  0  0
 14 15  2  0  0  0
 15 16  1  0  0  0
 16 17  2  0  0  0
 17 18  1  0  0  0
 18 19  1  0  0  0
 18 20  1  0  0  0
 18 21  1  0  0  0
  3 22  1  0  0  0
 22 23  1  0  0  0
 23 24  1  0  0  0
 24 25  1  0  0  0
 25 26  1  0  0  0
 26 27  1  0  0  0
 33 34  1  0  0  0
 34 35  2  0  0  0
 35 30  1  0  0  0
 11  1  1  0  0  0
 17 12  1  0  0  0
 27 22  1  0  0  0
 11  5  2  0  0  0
 28 29  1  0  0  0
M  END
> <minimizedAffinity>
-9.57730

> <CNNscore>
0.4228626490

> <CNNaffinity>
7.0209183693

> <CNN_VS>
2.9688842297

> <CNNaffinity_variance>
0.1419189870

$$$$
[H]c1nc(N2C([H])([H])C([H])([H])c3nc(N4C([H])([H])C([H])([H])C([H])([H])C([H])([H])C4([H])[H])nc(N([H])c4c([H])c([H])c(C(F)(F)F)c([H])c4[H])c3C([H])([H])C2([H])[H])c(C(F)(F)F)c([H])c1[H]


 39 43  0  0  0  0  0  0  0  0999 V2000
  153.5351  138.3268  184.1780 C   0  0  0  0  0  0  0  0  0  0  0  0
  152.4596  137.9653  183.4411 N   0  0  0  0  0  0  0  0  0  0  0  0
  152.0052  138.6699  182.3696 C   0  0  0  0  0  0  0  0  0  0  0  0
  152.6403  139.7921  181.9937 N   0  0  0  0  0  0  0  0  0  0  0  0
  153.7052  140.2228  182.6629 C   0  0  0  0  0  0  0  0  0  0  0  0
  154.3811  141.4370  182.1373 C   0  0  0  0  0  0  0  0  0  0  0  0
  155.8507  141.0354  181.8596 C   0  0  0  0  0  0  0  0  0  0  0  0
  156.6735  140.8602  182.9903 N   0  0  0  0  0  0  0  0  0  0  0  0
  156.5562  140.0493  184.1994 C   0  0  0  0  0  0  0  0  0  0  0  0
  155.1635  139.9510  184.6899 C   0  0  0  0  0  0  0  0  0  0  0  0
  154.1422  139.4928  183.7509 C   0  0  0  0  0  0  0  0  0  0  0  0
  157.8658  141.5972  183.0454 C   0  0  0  0  0  0  0  0  0  0  0  0
  159.0025  140.8276  183.3074 N   0  0  0  0  0  0  0  0  0  0  0  0
  160.2130  141.4478  183.3716 C   0  0  0  0  0  0  0  0  0  0  0  0
  160.3619  142.7986  183.1875 C   0  0  0  0  0  0  0  0  0  0  0  0
  159.2168  143.5252  182.9316 C   0  0  0  0  0  0  0  0  0  0  0  0
  157.9556  142.9243  182.8557 C   0  0  0  0  0  0  0  0  0  0  0  0
  156.8122  143.7597  182.5431 C   0  0  0  0  0  0  0  0  0  0  0  0
  156.3929  143.7324  181.2265 F   0  0  0  0  0  0  0  0  0  0  0  0
  157.2416  145.1285  182.6590 F   0  0  0  0  0  0  0  0  0  0  0  0
  155.7695  143.7274  183.4326 F   0  0  0  0  0  0  0  0  0  0  0  0
  150.8204  138.2909  181.6826 N   0  0  0  0  0  0  0  0  0  0  0  0
  150.2743  136.9785  181.8380 C   0  0  0  0  0  0  0  0  0  0  0  0
  149.6189  136.4244  180.6249 C   0  0  0  0  0  0  0  0  0  0  0  0
  148.8378  137.4421  179.8579 C   0  0  0  0  0  0  0  0  0  0  0  0
  149.7455  138.6058  179.5250 C   0  0  0  0  0  0  0  0  0  0  0  0
  150.2335  139.2850  180.7898 C   0  0  0  0  0  0  0  0  0  0  0  0
  154.1872  137.5671  185.1573 N   0  0  0  0  0  0  0  0  0  0  0  0
  154.4512  136.5552  184.7756 H   0  0  0  0  0  0  0  0  0  0  0  0
  155.0417  138.1375  189.2255 C   0  0  0  0  0  0  0  0  0  0  0  0
  153.8319  138.5359  188.6734 C   0  0  0  0  0  0  0  0  0  0  0  0
  153.6178  138.3172  187.3521 C   0  0  0  0  0  0  0  0  0  0  0  0
  154.5163  137.7101  186.4818 C   0  0  0  0  0  0  0  0  0  0  0  0
  155.6979  137.3323  187.0665 C   0  0  0  0  0  0  0  0  0  0  0  0
  155.9796  137.5349  188.4283 C   0  0  0  0  0  0  0  0  0  0  0  0
  154.7457  139.6220  191.0760 F   0  0  0  0  0  0  0  0  0  0  0  0
  155.2627  138.4268  190.6849 C   0  0  0  0  0  0  0  0  0  0  0  0
  156.6163  138.4294  190.9560 F   0  0  0  0  0  0  0  0  0  0  0  0
  154.7280  137.4154  191.4658 F   0  0  0  0  0  0  0  0  0  0  0  0
 36 37  1  0  0  0
 37 38  1  0  0  0
 37 39  1  0  0  0
 37 30  1  0  0  0
 30 31  2  0  0  0
 31 32  1  0  0  0
 32 33  2  0  0  0
 33 28  1  0  0  0
 28  1  1  0  0  0
  1  2  2  0  0  0
  2  3  1  0  0  0
  3  4  2  0  0  0
  4  5  1  0  0  0
  5  6  1  0  0  0
  6  7  1  0  0  0
  7  8  1  0  0  0
  8  9  1  0  0  0
  9 10  1  0  0  0
 10 11  1  0  0  0
  8 12  1  0  0  0
 12 13  2  0  0  0
 13 14  1  0  0  0
 14 15  2  0  0  0
 15 16  1  0  0  0
 16 17  2  0  0  0
 17 18  1  0  0  0
 18 19  1  0  0  0
 18 20  1  0  0  0
 18 21  1  0  0  0
  3 22  1  0  0  0
 22 23  1  0  0  0
 23 24  1  0  0  0
 24 25  1  0  0  0
 25 26  1  0  0  0
 26 27  1  0  0  0
 33 34  1  0  0  0
 34 35  2  0  0  0
 35 30  1  0  0  0
 11  1  1  0  0  0
 17 12  1  0  0  0
 27 22  1  0  0  0
 11  5  2  0  0  0
 28 29  1  0  0  0
M  END
> <minimizedAffinity>
-10.35228

> <CNNscore>
0.4158875346

> <CNNaffinity>
7.2538976669

> <CNN_VS>
3.0168056488

> <CNNaffinity_variance>
0.0671459883

$$$$
[H]c1nc(N2C([H])([H])C([H])([H])c3nc(N4C([H])([H])C([H])([H])C([H])([H])C([H])([H])C4([H])[H])nc(N([H])c4c([H])c([H])c(C(F)(F)F)c([H])c4[H])c3C([H])([H])C2([H])[H])c(C(F)(F)F)c([H])c1[H]


 39 43  0  0  0  0  0  0  0  0999 V2000
  150.8838  135.4920  185.3562 C   0  0  0  0  0  0  0  0  0  0  0  0
  150.8743  134.7427  184.2298 N   0  0  0  0  0  0  0  0  0  0  0  0
  151.9974  134.3806  183.5526 C   0  0  0  0  0  0  0  0  0  0  0  0
  153.2009  134.7709  184.0034 N   0  0  0  0  0  0  0  0  0  0  0  0
  153.3034  135.5121  185.1022 C   0  0  0  0  0  0  0  0  0  0  0  0
  154.6770  135.8429  185.5618 C   0  0  0  0  0  0  0  0  0  0  0  0
  154.7959  135.3072  187.0099 C   0  0  0  0  0  0  0  0  0  0  0  0
  154.1066  136.0330  188.0019 N   0  0  0  0  0  0  0  0  0  0  0  0
  152.7175  136.4603  188.1480 C   0  0  0  0  0  0  0  0  0  0  0  0
  152.0971  136.8409  186.8596 C   0  0  0  0  0  0  0  0  0  0  0  0
  152.1476  135.8716  185.7675 C   0  0  0  0  0  0  0  0  0  0  0  0
  154.8454  136.4874  189.1044 C   0  0  0  0  0  0  0  0  0  0  0  0
  155.2922  137.8065  188.9891 N   0  0  0  0  0  0  0  0  0  0  0  0
  156.0111  138.3463  190.0118 C   0  0  0  0  0  0  0  0  0  0  0  0
  156.3133  137.6472  191.1523 C   0  0  0  0  0  0  0  0  0  0  0  0
  155.8555  136.3475  191.2292 C   0  0  0  0  0  0  0  0  0  0  0  0
  155.1122  135.7582  190.2008 C   0  0  0  0  0  0  0  0  0  0  0  0
  154.6384  134.4000  190.3844 C   0  0  0  0  0  0  0  0  0  0  0  0
  153.2660  134.2380  190.3735 F   0  0  0  0  0  0  0  0  0  0  0  0
  154.9416  134.0236  191.7401 F   0  0  0  0  0  0  0  0  0  0  0  0
  155.2934  133.4231  189.6800 F   0  0  0  0  0  0  0  0  0  0  0  0
  151.9247  133.6637  182.3276 N   0  0  0  0  0  0  0  0  0  0  0  0
  153.1126  133.3340  181.6031 C   0  0  0  0  0  0  0  0  0  0  0  0
  152.9661  133.3368  180.1243 C   0  0  0  0  0  0  0  0  0  0  0  0
  151.6609  132.7769  179.6585 C   0  0  0  0  0  0  0  0  0  0  0  0
  150.5366  133.5287  180.3366 C   0  0  0  0  0  0  0  0  0  0  0  0
  150.5898  133.3334  181.8392 C   0  0  0  0  0  0  0  0  0  0  0  0
  149.8098  135.7389  186.2205 N   0  0  0  0  0  0  0  0  0  0  0  0
  149.2527  136.6555  185.9225 H   0  0  0  0  0  0  0  0  0  0  0  0
  148.3396  133.8997  189.6935 C   0  0  0  0  0  0  0  0  0  0  0  0
  149.2113  133.2428  188.8357 C   0  0  0  0  0  0  0  0  0  0  0  0
  149.6529  133.8970  187.7327 C   0  0  0  0  0  0  0  0  0  0  0  0
  149.3107  135.1972  187.3783 C   0  0  0  0  0  0  0  0  0  0  0  0
  148.4483  135.8096  188.2512 C   0  0  0  0  0  0  0  0  0  0  0  0
  147.9537  135.1833  189.4079 C   0  0  0  0  0  0  0  0  0  0  0  0
  146.8275  133.7657  191.5405 F   0  0  0  0  0  0  0  0  0  0  0  0
  147.8398  133.1345  190.8881 C   0  0  0  0  0  0  0  0  0  0  0  0
  148.8762  132.9398  191.7791 F   0  0  0  0  0  0  0  0  0  0  0  0
  147.4270  131.8665  190.5133 F   0  0  0  0  0  0  0  0  0  0  0  0
 36 37  1  0  0  0
 37 38  1  0  0  0
 37 39  1  0  0  0
 37 30  1  0  0  0
 30 31  2  0  0  0
 31 32  1  0  0  0
 32 33  2  0  0  0
 33 28  1  0  0  0
 28  1  1  0  0  0
  1  2  2  0  0  0
  2  3  1  0  0  0
  3  4  2  0  0  0
  4  5  1  0  0  0
  5  6  1  0  0  0
  6  7  1  0  0  0
  7  8  1  0  0  0
  8  9  1  0  0  0
  9 10  1  0  0  0
 10 11  1  0  0  0
  8 12  1  0  0  0
 12 13  2  0  0  0
 13 14  1  0  0  0
 14 15  2  0  0  0
 15 16  1  0  0  0
 16 17  2  0  0  0
 17 18  1  0  0  0
 18 19  1  0  0  0
 18 20  1  0  0  0
 18 21  1  0  0  0
  3 22  1  0  0  0
 22 23  1  0  0  0
 23 24  1  0  0  0
 24 25  1  0  0  0
 25 26  1  0  0  0
 26 27  1  0  0  0
 33 34  1  0  0  0
 34 35  2  0  0  0
 35 30  1  0  0  0
 11  1  1  0  0  0
 17 12  1  0  0  0
 27 22  1  0  0  0
 11  5  2  0  0  0
 28 29  1  0  0  0
M  END
> <minimizedAffinity>
-4.16378

> <CNNscore>
0.3772867620

> <CNNaffinity>
6.5582990646

> <CNN_VS>
2.4743595123

> <CNNaffinity_variance>
0.8307868838

$$$$
[H]c1nc(N2C([H])([H])C([H])([H])c3nc(N4C([H])([H])C([H])([H])C([H])([H])C([H])([H])C4([H])[H])nc(N([H])c4c([H])c([H])c(C(F)(F)F)c([H])c4[H])c3C([H])([H])C2([H])[H])c(C(F)(F)F)c([H])c1[H]


 39 43  0  0  0  0  0  0  0  0999 V2000
  154.4109  138.9455  184.2105 C   0  0  0  0  0  0  0  0  0  0  0  0
  155.1611  140.0702  184.1581 N   0  0  0  0  0  0  0  0  0  0  0  0
  155.0891  140.9812  183.1503 C   0  0  0  0  0  0  0  0  0  0  0  0
  154.2321  140.7839  182.1351 N   0  0  0  0  0  0  0  0  0  0  0  0
  153.4580  139.7036  182.1042 C   0  0  0  0  0  0  0  0  0  0  0  0
  152.4959  139.6004  180.9767 C   0  0  0  0  0  0  0  0  0  0  0  0
  151.0888  139.4741  181.6110 C   0  0  0  0  0  0  0  0  0  0  0  0
  150.7829  138.2346  182.2078 N   0  0  0  0  0  0  0  0  0  0  0  0
  151.4442  137.4216  183.2253 C   0  0  0  0  0  0  0  0  0  0  0  0
  152.9200  137.4749  183.1305 C   0  0  0  0  0  0  0  0  0  0  0  0
  153.5550  138.7908  183.1363 C   0  0  0  0  0  0  0  0  0  0  0  0
  149.6230  137.5749  181.7751 C   0  0  0  0  0  0  0  0  0  0  0  0
  149.8140  136.7539  180.6605 N   0  0  0  0  0  0  0  0  0  0  0  0
  148.7507  136.0608  180.1675 C   0  0  0  0  0  0  0  0  0  0  0  0
  147.4988  136.1349  180.7225 C   0  0  0  0  0  0  0  0  0  0  0  0
  147.3492  136.9563  181.8214 C   0  0  0  0  0  0  0  0  0  0  0  0
  148.4176  137.6827  182.3586 C   0  0  0  0  0  0  0  0  0  0  0  0
  148.1773  138.4901  183.5389 C   0  0  0  0  0  0  0  0  0  0  0  0
  148.8444  138.0927  184.6821 F   0  0  0  0  0  0  0  0  0  0  0  0
  146.8115  138.2681  183.9350 F   0  0  0  0  0  0  0  0  0  0  0  0
  148.1898  139.8497  183.3630 F   0  0  0  0  0  0  0  0  0  0  0  0
  155.9606  142.1028  183.1022 N   0  0  0  0  0  0  0  0  0  0  0  0
  155.5421  143.3270  182.4932 C   0  0  0  0  0  0  0  0  0  0  0  0
  156.6185  144.0839  181.8027 C   0  0  0  0  0  0  0  0  0  0  0  0
  157.9237  144.0521  182.5304 C   0  0  0  0  0  0  0  0  0  0  0  0
  158.3147  142.6103  182.7703 C   0  0  0  0  0  0  0  0  0  0  0  0
  157.2977  141.9187  183.6571 C   0  0  0  0  0  0  0  0  0  0  0  0
  154.2728  138.0670  185.2925 N   0  0  0  0  0  0  0  0  0  0  0  0
  153.6896  137.1625  185.0077 H   0  0  0  0  0  0  0  0  0  0  0  0
  155.0990  138.1614  189.4052 C   0  0  0  0  0  0  0  0  0  0  0  0
  153.8483  138.4994  188.9064 C   0  0  0  0  0  0  0  0  0  0  0  0
  153.6466  138.4426  187.5664 C   0  0  0  0  0  0  0  0  0  0  0  0
  154.5970  138.0611  186.6259 C   0  0  0  0  0  0  0  0  0  0  0  0
  155.8176  137.7360  187.1596 C   0  0  0  0  0  0  0  0  0  0  0  0
  156.0887  137.7785  188.5379 C   0  0  0  0  0  0  0  0  0  0  0  0
  154.4891  137.4419  191.6021 F   0  0  0  0  0  0  0  0  0  0  0  0
  155.3011  138.2695  190.8917 C   0  0  0  0  0  0  0  0  0  0  0  0
  155.0615  139.5670  191.2978 F   0  0  0  0  0  0  0  0  0  0  0  0
  156.6221  138.0137  191.2210 F   0  0  0  0  0  0  0  0  0  0  0  0
 36 37  1  0  0  0
 37 38  1  0  0  0
 37 39  1  0  0  0
 37 30  1  0  0  0
 30 31  2  0  0  0
 31 32  1  0  0  0
 32 33  2  0  0  0
 33 28  1  0  0  0
 28  1  1  0  0  0
  1  2  2  0  0  0
  2  3  1  0  0  0
  3  4  2  0  0  0
  4  5  1  0  0  0
  5  6  1  0  0  0
  6  7  1  0  0  0
  7  8  1  0  0  0
  8  9  1  0  0  0
  9 10  1  0  0  0
 10 11  1  0  0  0
  8 12  1  0  0  0
 12 13  2  0  0  0
 13 14  1  0  0  0
 14 15  2  0  0  0
 15 16  1  0  0  0
 16 17  2  0  0  0
 17 18  1  0  0  0
 18 19  1  0  0  0
 18 20  1  0  0  0
 18 21  1  0  0  0
  3 22  1  0  0  0
 22 23  1  0  0  0
 23 24  1  0  0  0
 24 25  1  0  0  0
 25 26  1  0  0  0
 26 27  1  0  0  0
 33 34  1  0  0  0
 34 35  2  0  0  0
 35 30  1  0  0  0
 11  1  1  0  0  0
 17 12  1  0  0  0
 27 22  1  0  0  0
 11  5  2  0  0  0
 28 29  1  0  0  0
M  END
> <minimizedAffinity>
-9.72174

> <CNNscore>
0.3669248521

> <CNNaffinity>
6.8879380226

> <CNN_VS>
2.5273556709

> <CNNaffinity_variance>
0.0591155067

$$$$
[H]c1nc(N2C([H])([H])C([H])([H])c3nc(N4C([H])([H])C([H])([H])C([H])([H])C([H])([H])C4([H])[H])nc(N([H])c4c([H])c([H])c(C(F)(F)F)c([H])c4[H])c3C([H])([H])C2([H])[H])c(C(F)(F)F)c([H])c1[H]


 39 43  0  0  0  0  0  0  0  0999 V2000
  154.0628  139.5503  183.5835 C   0  0  0  0  0  0  0  0  0  0  0  0
  153.2398  139.5486  182.5096 N   0  0  0  0  0  0  0  0  0  0  0  0
  152.3789  138.5364  182.2179 C   0  0  0  0  0  0  0  0  0  0  0  0
  152.3158  137.4638  183.0239 N   0  0  0  0  0  0  0  0  0  0  0  0
  153.0911  137.3807  184.1006 C   0  0  0  0  0  0  0  0  0  0  0  0
  152.9078  136.1885  184.9681 C   0  0  0  0  0  0  0  0  0  0  0  0
  152.5604  136.7224  186.3796 C   0  0  0  0  0  0  0  0  0  0  0  0
  153.6211  137.2988  187.1068 N   0  0  0  0  0  0  0  0  0  0  0  0
  154.5781  138.3619  186.8109 C   0  0  0  0  0  0  0  0  0  0  0  0
  155.0034  138.3711  185.3936 C   0  0  0  0  0  0  0  0  0  0  0  0
  153.9610  138.4189  184.3708 C   0  0  0  0  0  0  0  0  0  0  0  0
  153.8843  136.7868  188.3860 C   0  0  0  0  0  0  0  0  0  0  0  0
  152.9819  137.2068  189.3670 N   0  0  0  0  0  0  0  0  0  0  0  0
  153.1445  136.7574  190.6421 C   0  0  0  0  0  0  0  0  0  0  0  0
  154.1583  135.9071  191.0023 C   0  0  0  0  0  0  0  0  0  0  0  0
  155.0297  135.5150  190.0064 C   0  0  0  0  0  0  0  0  0  0  0  0
  154.8946  135.9530  188.6845 C   0  0  0  0  0  0  0  0  0  0  0  0
  155.8330  135.4584  187.6956 C   0  0  0  0  0  0  0  0  0  0  0  0
  155.2732  134.8137  186.6089 F   0  0  0  0  0  0  0  0  0  0  0  0
  156.5602  134.3755  188.3040 F   0  0  0  0  0  0  0  0  0  0  0  0
  156.8528  136.3041  187.3432 F   0  0  0  0  0  0  0  0  0  0  0  0
  151.5978  138.5475  181.0308 N   0  0  0  0  0  0  0  0  0  0  0  0
  151.9491  139.3946  179.9336 C   0  0  0  0  0  0  0  0  0  0  0  0
  150.7978  139.9323  179.1630 C   0  0  0  0  0  0  0  0  0  0  0  0
  149.6933  138.9417  178.9818 C   0  0  0  0  0  0  0  0  0  0  0  0
  149.2700  138.4277  180.3404 C   0  0  0  0  0  0  0  0  0  0  0  0
  150.4126  137.6962  181.0176 C   0  0  0  0  0  0  0  0  0  0  0  0
  154.8237  140.6217  184.0680 N   0  0  0  0  0  0  0  0  0  0  0  0
  154.5844  140.8392  185.1332 H   0  0  0  0  0  0  0  0  0  0  0  0
  157.7222  143.2944  182.6323 C   0  0  0  0  0  0  0  0  0  0  0  0
  158.0717  142.1591  183.3507 C   0  0  0  0  0  0  0  0  0  0  0  0
  157.0852  141.3340  183.7814 C   0  0  0  0  0  0  0  0  0  0  0  0
  155.7258  141.5214  183.5580 C   0  0  0  0  0  0  0  0  0  0  0  0
  155.4236  142.6535  182.8456 C   0  0  0  0  0  0  0  0  0  0  0  0
  156.4001  143.5483  182.3757 C   0  0  0  0  0  0  0  0  0  0  0  0
  159.8434  144.2883  183.1103 F   0  0  0  0  0  0  0  0  0  0  0  0
  158.8365  144.2077  182.2002 C   0  0  0  0  0  0  0  0  0  0  0  0
  158.3381  145.4779  181.9901 F   0  0  0  0  0  0  0  0  0  0  0  0
  159.3498  143.8020  180.9793 F   0  0  0  0  0  0  0  0  0  0  0  0
 36 37  1  0  0  0
 37 38  1  0  0  0
 37 39  1  0  0  0
 37 30  1  0  0  0
 30 31  2  0  0  0
 31 32  1  0  0  0
 32 33  2  0  0  0
 33 28  1  0  0  0
 28  1  1  0  0  0
  1  2  2  0  0  0
  2  3  1  0  0  0
  3  4  2  0  0  0
  4  5  1  0  0  0
  5  6  1  0  0  0
  6  7  1  0  0  0
  7  8  1  0  0  0
  8  9  1  0  0  0
  9 10  1  0  0  0
 10 11  1  0  0  0
  8 12  1  0  0  0
 12 13  2  0  0  0
 13 14  1  0  0  0
 14 15  2  0  0  0
 15 16  1  0  0  0
 16 17  2  0  0  0
 17 18  1  0  0  0
 18 19  1  0  0  0
 18 20  1  0  0  0
 18 21  1  0  0  0
  3 22  1  0  0  0
 22 23  1  0  0  0
 23 24  1  0  0  0
 24 25  1  0  0  0
 25 26  1  0  0  0
 26 27  1  0  0  0
 33 34  1  0  0  0
 34 35  2  0  0  0
 35 30  1  0  0  0
 11  1  1  0  0  0
 17 12  1  0  0  0
 27 22  1  0  0  0
 11  5  2  0  0  0
 28 29  1  0  0  0
M  END
> <minimizedAffinity>
-9.10658

> <CNNscore>
0.3263646662

> <CNNaffinity>
6.8691077232

> <CNN_VS>
2.2418341637

> <CNNaffinity_variance>
0.1626653671

$$$$
[H]c1nc(N2C([H])([H])C([H])([H])c3nc(N4C([H])([H])C([H])([H])C([H])([H])C([H])([H])C4([H])[H])nc(N([H])c4c([H])c([H])c(C(F)(F)F)c([H])c4[H])c3C([H])([H])C2([H])[H])c(C(F)(F)F)c([H])c1[H]


 39 43  0  0  0  0  0  0  0  0999 V2000
  154.4857  138.7181  184.4095 C   0  0  0  0  0  0  0  0  0  0  0  0
  155.4957  139.2298  183.6689 N   0  0  0  0  0  0  0  0  0  0  0  0
  156.7411  139.4781  184.1570 C   0  0  0  0  0  0  0  0  0  0  0  0
  157.0174  139.2082  185.4434 N   0  0  0  0  0  0  0  0  0  0  0  0
  156.0830  138.7058  186.2445 C   0  0  0  0  0  0  0  0  0  0  0  0
  156.4962  138.3792  187.6338 C   0  0  0  0  0  0  0  0  0  0  0  0
  156.1908  136.8751  187.8400 C   0  0  0  0  0  0  0  0  0  0  0  0
  154.8323  136.5284  187.9821 N   0  0  0  0  0  0  0  0  0  0  0  0
  153.6435  136.7798  187.1714 C   0  0  0  0  0  0  0  0  0  0  0  0
  153.6588  138.1141  186.5316 C   0  0  0  0  0  0  0  0  0  0  0  0
  154.8250  138.4691  185.7260 C   0  0  0  0  0  0  0  0  0  0  0  0
  154.4642  135.8017  189.1241 C   0  0  0  0  0  0  0  0  0  0  0  0
  154.2231  134.4459  188.8863 N   0  0  0  0  0  0  0  0  0  0  0  0
  153.8686  133.6502  189.9329 C   0  0  0  0  0  0  0  0  0  0  0  0
  153.7401  134.1261  191.2126 C   0  0  0  0  0  0  0  0  0  0  0  0
  153.9856  135.4701  191.4080 C   0  0  0  0  0  0  0  0  0  0  0  0
  154.3540  136.3195  190.3590 C   0  0  0  0  0  0  0  0  0  0  0  0
  154.6310  137.7100  190.6634 C   0  0  0  0  0  0  0  0  0  0  0  0
  155.9340  137.9957  191.0247 F   0  0  0  0  0  0  0  0  0  0  0  0
  153.9393  138.0234  191.8860 F   0  0  0  0  0  0  0  0  0  0  0  0
  154.1017  138.6408  189.8073 F   0  0  0  0  0  0  0  0  0  0  0  0
  157.7406  140.0952  183.3571 N   0  0  0  0  0  0  0  0  0  0  0  0
  159.1179  140.0388  183.7374 C   0  0  0  0  0  0  0  0  0  0  0  0
  159.9149  141.2431  183.3869 C   0  0  0  0  0  0  0  0  0  0  0  0
  159.5598  141.8199  182.0545 C   0  0  0  0  0  0  0  0  0  0  0  0
  158.0733  142.1005  182.0238 C   0  0  0  0  0  0  0  0  0  0  0  0
  157.2813  140.8164  182.1745 C   0  0  0  0  0  0  0  0  0  0  0  0
  153.2499  138.2466  183.9489 N   0  0  0  0  0  0  0  0  0  0  0  0
  152.8787  137.4047  184.5755 H   0  0  0  0  0  0  0  0  0  0  0  0
  150.6457  138.8072  180.7071 C   0  0  0  0  0  0  0  0  0  0  0  0
  150.5718  137.6793  181.5130 C   0  0  0  0  0  0  0  0  0  0  0  0
  151.4406  137.5628  182.5480 C   0  0  0  0  0  0  0  0  0  0  0  0
  152.4156  138.4940  182.8879 C   0  0  0  0  0  0  0  0  0  0  0  0
  152.4552  139.5920  182.0672 C   0  0  0  0  0  0  0  0  0  0  0  0
  151.5847  139.7680  180.9781 C   0  0  0  0  0  0  0  0  0  0  0  0
  150.1519  139.6717  178.5334 F   0  0  0  0  0  0  0  0  0  0  0  0
  149.6927  138.8894  179.5463 C   0  0  0  0  0  0  0  0  0  0  0  0
  148.4840  139.3999  179.9757 F   0  0  0  0  0  0  0  0  0  0  0  0
  149.4111  137.6234  179.0599 F   0  0  0  0  0  0  0  0  0  0  0  0
 36 37  1  0  0  0
 37 38  1  0  0  0
 37 39  1  0  0  0
 37 30  1  0  0  0
 30 31  2  0  0  0
 31 32  1  0  0  0
 32 33  2  0  0  0
 33 28  1  0  0  0
 28  1  1  0  0  0
  1  2  2  0  0  0
  2  3  1  0  0  0
  3  4  2  0  0  0
  4  5  1  0  0  0
  5  6  1  0  0  0
  6  7  1  0  0  0
  7  8  1  0  0  0
  8  9  1  0  0  0
  9 10  1  0  0  0
 10 11  1  0  0  0
  8 12  1  0  0  0
 12 13  2  0  0  0
 13 14  1  0  0  0
 14 15  2  0  0  0
 15 16  1  0  0  0
 16 17  2  0  0  0
 17 18  1  0  0  0
 18 19  1  0  0  0
 18 20  1  0  0  0
 18 21  1  0  0  0
  3 22  1  0  0  0
 22 23  1  0  0  0
 23 24  1  0  0  0
 24 25  1  0  0  0
 25 26  1  0  0  0
 26 27  1  0  0  0
 33 34  1  0  0  0
 34 35  2  0  0  0
 35 30  1  0  0  0
 11  1  1  0  0  0
 17 12  1  0  0  0
 27 22  1  0  0  0
 11  5  2  0  0  0
 28 29  1  0  0  0
M  END
> <minimizedAffinity>
-8.53505

> <CNNscore>
0.2938673496

> <CNNaffinity>
6.7631883621

> <CNN_VS>
1.9874802828

> <CNNaffinity_variance>
0.0331122205

$$$$
[H]c1nc(N2C([H])([H])C([H])([H])c3nc(N4C([H])([H])C([H])([H])C([H])([H])C([H])([H])C4([H])[H])nc(N([H])c4c([H])c([H])c(C(F)(F)F)c([H])c4[H])c3C([H])([H])C2([H])[H])c(C(F)(F)F)c([H])c1[H]


 39 43  0  0  0  0  0  0  0  0999 V2000
  157.9124  142.4819  183.3464 C   0  0  0  0  0  0  0  0  0  0  0  0
  159.0816  142.5151  184.0263 N   0  0  0  0  0  0  0  0  0  0  0  0
  159.3228  141.7905  185.1522 C   0  0  0  0  0  0  0  0  0  0  0  0
  158.3669  140.9837  185.6415 N   0  0  0  0  0  0  0  0  0  0  0  0
  157.1860  140.8915  185.0381 C   0  0  0  0  0  0  0  0  0  0  0  0
  156.2131  139.9268  185.6129 C   0  0  0  0  0  0  0  0  0  0  0  0
  155.8497  138.9403  184.4759 C   0  0  0  0  0  0  0  0  0  0  0  0
  155.0108  139.4411  183.4603 N   0  0  0  0  0  0  0  0  0  0  0  0
  155.0832  140.6083  182.5851 C   0  0  0  0  0  0  0  0  0  0  0  0
  155.6608  141.7932  183.2575 C   0  0  0  0  0  0  0  0  0  0  0  0
  156.9642  141.6426  183.9005 C   0  0  0  0  0  0  0  0  0  0  0  0
  153.8319  138.7327  183.1845 C   0  0  0  0  0  0  0  0  0  0  0  0
  153.7379  137.5016  183.8393 N   0  0  0  0  0  0  0  0  0  0  0  0
  152.6259  136.7400  183.6457 C   0  0  0  0  0  0  0  0  0  0  0  0
  151.5927  137.1335  182.8344 C   0  0  0  0  0  0  0  0  0  0  0  0
  151.7220  138.3547  182.2045 C   0  0  0  0  0  0  0  0  0  0  0  0
  152.8477  139.1669  182.3796 C   0  0  0  0  0  0  0  0  0  0  0  0
  152.8807  140.4524  181.7092 C   0  0  0  0  0  0  0  0  0  0  0  0
  152.7917  141.5591  182.5320 F   0  0  0  0  0  0  0  0  0  0  0  0
  151.6560  140.5742  180.9630 F   0  0  0  0  0  0  0  0  0  0  0  0
  153.8165  140.6017  180.7186 F   0  0  0  0  0  0  0  0  0  0  0  0
  160.5390  141.9274  185.8746 N   0  0  0  0  0  0  0  0  0  0  0  0
  160.5453  142.4703  187.1974 C   0  0  0  0  0  0  0  0  0  0  0  0
  161.7480  143.2730  187.5400 C   0  0  0  0  0  0  0  0  0  0  0  0
  163.0157  142.7024  186.9907 C   0  0  0  0  0  0  0  0  0  0  0  0
  162.8646  142.5253  185.4958 C   0  0  0  0  0  0  0  0  0  0  0  0
  161.7614  141.5338  185.1814 C   0  0  0  0  0  0  0  0  0  0  0  0
  157.6486  143.0287  182.0842 N   0  0  0  0  0  0  0  0  0  0  0  0
  156.5566  143.1778  181.9277 H   0  0  0  0  0  0  0  0  0  0  0  0
  159.8694  144.2169  178.7283 C   0  0  0  0  0  0  0  0  0  0  0  0
  159.8360  144.9815  179.8866 C   0  0  0  0  0  0  0  0  0  0  0  0
  159.1022  144.5370  180.9371 C   0  0  0  0  0  0  0  0  0  0  0  0
  158.3698  143.3554  180.9634 C   0  0  0  0  0  0  0  0  0  0  0  0
  158.4292  142.6308  179.8007 C   0  0  0  0  0  0  0  0  0  0  0  0
  159.1686  143.0402  178.6779 C   0  0  0  0  0  0  0  0  0  0  0  0
  160.3176  144.1929  176.3800 F   0  0  0  0  0  0  0  0  0  0  0  0
  160.6626  144.7549  177.5691 C   0  0  0  0  0  0  0  0  0  0  0  0
  162.0072  144.5271  177.7835 F   0  0  0  0  0  0  0  0  0  0  0  0
  160.5262  146.1308  177.4856 F   0  0  0  0  0  0  0  0  0  0  0  0
 36 37  1  0  0  0
 37 38  1  0  0  0
 37 39  1  0  0  0
 37 30  1  0  0  0
 30 31  2  0  0  0
 31 32  1  0  0  0
 32 33  2  0  0  0
 33 28  1  0  0  0
 28  1  1  0  0  0
  1  2  2  0  0  0
  2  3  1  0  0  0
  3  4  2  0  0  0
  4  5  1  0  0  0
  5  6  1  0  0  0
  6  7  1  0  0  0
  7  8  1  0  0  0
  8  9  1  0  0  0
  9 10  1  0  0  0
 10 11  1  0  0  0
  8 12  1  0  0  0
 12 13  2  0  0  0
 13 14  1  0  0  0
 14 15  2  0  0  0
 15 16  1  0  0  0
 16 17  2  0  0  0
 17 18  1  0  0  0
 18 19  1  0  0  0
 18 20  1  0  0  0
 18 21  1  0  0  0
  3 22  1  0  0  0
 22 23  1  0  0  0
 23 24  1  0  0  0
 24 25  1  0  0  0
 25 26  1  0  0  0
 26 27  1  0  0  0
 33 34  1  0  0  0
 34 35  2  0  0  0
 35 30  1  0  0  0
 11  1  1  0  0  0
 17 12  1  0  0  0
 27 22  1  0  0  0
 11  5  2  0  0  0
 28 29  1  0  0  0
M  END
> <minimizedAffinity>
-3.15401

> <CNNscore>
0.2912362814

> <CNNaffinity>
7.3331122398

> <CNN_VS>
2.1356682777

> <CNNaffinity_variance>
0.5482475758

$$$$
[H]c1nc(N2C([H])([H])C([H])([H])c3nc(N4C([H])([H])C([H])([H])C([H])([H])C([H])([H])C4([H])[H])nc(N([H])c4c([H])c([H])c(C(F)(F)F)c([H])c4[H])c3C([H])([H])C2([H])[H])c(C(F)(F)F)c([H])c1[H]


 39 43  0  0  0  0  0  0  0  0999 V2000
  154.4327  139.7616  183.5376 C   0  0  0  0  0  0  0  0  0  0  0  0
  153.4181  139.7298  182.6432 N   0  0  0  0  0  0  0  0  0  0  0  0
  152.6430  138.6349  182.4169 C   0  0  0  0  0  0  0  0  0  0  0  0
  152.8702  137.5051  183.1068 N   0  0  0  0  0  0  0  0  0  0  0  0
  153.8490  137.4463  184.0044 C   0  0  0  0  0  0  0  0  0  0  0  0
  153.9858  136.1772  184.7648 C   0  0  0  0  0  0  0  0  0  0  0  0
  153.8662  136.5487  186.2634 C   0  0  0  0  0  0  0  0  0  0  0  0
  154.9744  137.2071  186.8330 N   0  0  0  0  0  0  0  0  0  0  0  0
  155.7195  138.4105  186.4724 C   0  0  0  0  0  0  0  0  0  0  0  0
  155.8492  138.5865  185.0089 C   0  0  0  0  0  0  0  0  0  0  0  0
  154.6255  138.5697  184.2105 C   0  0  0  0  0  0  0  0  0  0  0  0
  155.5467  136.6392  187.9810 C   0  0  0  0  0  0  0  0  0  0  0  0
  156.6255  135.7896  187.7219 N   0  0  0  0  0  0  0  0  0  0  0  0
  157.2577  135.1949  188.7711 C   0  0  0  0  0  0  0  0  0  0  0  0
  156.8788  135.3979  190.0734 C   0  0  0  0  0  0  0  0  0  0  0  0
  155.8091  136.2428  190.2894 C   0  0  0  0  0  0  0  0  0  0  0  0
  155.1353  136.8740  189.2383 C   0  0  0  0  0  0  0  0  0  0  0  0
  154.0470  137.7766  189.5610 C   0  0  0  0  0  0  0  0  0  0  0  0
  154.2719  139.1106  189.2786 F   0  0  0  0  0  0  0  0  0  0  0  0
  153.9426  137.8205  190.9958 F   0  0  0  0  0  0  0  0  0  0  0  0
  152.7870  137.3653  189.2109 F   0  0  0  0  0  0  0  0  0  0  0  0
  151.6449  138.6302  181.4053 N   0  0  0  0  0  0  0  0  0  0  0  0
  151.9481  139.0692  180.0786 C   0  0  0  0  0  0  0  0  0  0  0  0
  150.8339  139.7567  179.3756 C   0  0  0  0  0  0  0  0  0  0  0  0
  149.4979  139.1415  179.6419 C   0  0  0  0  0  0  0  0  0  0  0  0
  149.2729  139.0897  181.1372 C   0  0  0  0  0  0  0  0  0  0  0  0
  150.3074  138.2053  181.8055 C   0  0  0  0  0  0  0  0  0  0  0  0
  155.1419  140.8865  183.9771 N   0  0  0  0  0  0  0  0  0  0  0  0
  154.9104  141.1212  185.0403 H   0  0  0  0  0  0  0  0  0  0  0  0
  157.8621  143.6705  182.4101 C   0  0  0  0  0  0  0  0  0  0  0  0
  158.2871  142.5745  183.1485 C   0  0  0  0  0  0  0  0  0  0  0  0
  157.3555  141.7098  183.6219 C   0  0  0  0  0  0  0  0  0  0  0  0
  155.9835  141.8190  183.4245 C   0  0  0  0  0  0  0  0  0  0  0  0
  155.6061  142.9146  182.6911 C   0  0  0  0  0  0  0  0  0  0  0  0
  156.5232  143.8472  182.1771 C   0  0  0  0  0  0  0  0  0  0  0  0
  159.4734  144.2619  180.7457 F   0  0  0  0  0  0  0  0  0  0  0  0
  158.9165  144.6299  181.9303 C   0  0  0  0  0  0  0  0  0  0  0  0
  159.9212  144.7219  182.8727 F   0  0  0  0  0  0  0  0  0  0  0  0
  158.3936  145.9076  181.8168 F   0  0  0  0  0  0  0  0  0  0  0  0
 36 37  1  0  0  0
 37 38  1  0  0  0
 37 39  1  0  0  0
 37 30  1  0  0  0
 30 31  2  0  0  0
 31 32  1  0  0  0
 32 33  2  0  0  0
 33 28  1  0  0  0
 28  1  1  0  0  0
  1  2  2  0  0  0
  2  3  1  0  0  0
  3  4  2  0  0  0
  4  5  1  0  0  0
  5  6  1  0  0  0
  6  7  1  0  0  0
  7  8  1  0  0  0
  8  9  1  0  0  0
  9 10  1  0  0  0
 10 11  1  0  0  0
  8 12  1  0  0  0
 12 13  2  0  0  0
 13 14  1  0  0  0
 14 15  2  0  0  0
 15 16  1  0  0  0
 16 17  2  0  0  0
 17 18  1  0  0  0
 18 19  1  0  0  0
 18 20  1  0  0  0
 18 21  1  0  0  0
  3 22  1  0  0  0
 22 23  1  0  0  0
 23 24  1  0  0  0
 24 25  1  0  0  0
 25 26  1  0  0  0
 26 27  1  0  0  0
 33 34  1  0  0  0
 34 35  2  0  0  0
 35 30  1  0  0  0
 11  1  1  0  0  0
 17 12  1  0  0  0
 27 22  1  0  0  0
 11  5  2  0  0  0
 28 29  1  0  0  0
M  END
> <minimizedAffinity>
-9.75320

> <CNNscore>
0.2865985036

> <CNNaffinity>
6.9027647972

> <CNN_VS>
1.9783220291

> <CNNaffinity_variance>
0.1479898095

$$$$
[H]c1nc(N2C([H])([H])C([H])([H])c3nc(N4C([H])([H])C([H])([H])OC([H])([H])C4([H])[H])nc(N([H])c4c([H])c([H])c(C(F)(F)F)c([H])c4[H])c3C([H])([H])C2([H])[H])c(C(F)(F)F)c([H])c1[H]


 39 43  0  0  0  0  0  0  0  0999 V2000
  155.6109  139.1550  184.6490 C   0  0  0  0  0  0  0  0  0  0  0  0
  156.7765  139.7699  184.3584 N   0  0  0  0  0  0  0  0  0  0  0  0
  156.8531  140.7799  183.4631 C   0  0  0  0  0  0  0  0  0  0  0  0
  155.7517  141.2187  182.8154 N   0  0  0  0  0  0  0  0  0  0  0  0
  154.5325  140.6574  183.0435 C   0  0  0  0  0  0  0  0  0  0  0  0
  153.4476  141.3209  182.2947 C   0  0  0  0  0  0  0  0  0  0  0  0
  152.5555  140.4451  181.4948 C   0  0  0  0  0  0  0  0  0  0  0  0
  152.0307  139.2844  182.0815 N   0  0  0  0  0  0  0  0  0  0  0  0
  152.6322  138.3306  182.9525 C   0  0  0  0  0  0  0  0  0  0  0  0
  153.3051  138.7904  184.2029 C   0  0  0  0  0  0  0  0  0  0  0  0
  154.5021  139.6384  183.9509 C   0  0  0  0  0  0  0  0  0  0  0  0
  150.7276  138.8739  181.7008 C   0  0  0  0  0  0  0  0  0  0  0  0
  150.0427  138.2358  182.7492 N   0  0  0  0  0  0  0  0  0  0  0  0
  148.8303  137.7652  182.6083 C   0  0  0  0  0  0  0  0  0  0  0  0
  148.1346  137.8609  181.4369 C   0  0  0  0  0  0  0  0  0  0  0  0
  148.7719  138.4806  180.3873 C   0  0  0  0  0  0  0  0  0  0  0  0
  150.0771  138.9846  180.5394 C   0  0  0  0  0  0  0  0  0  0  0  0
  150.7166  139.6987  179.3899 C   0  0  0  0  0  0  0  0  0  0  0  0
  150.6284  141.0527  179.4560 F   0  0  0  0  0  0  0  0  0  0  0  0
  149.9150  139.3495  178.2491 F   0  0  0  0  0  0  0  0  0  0  0  0
  151.9673  139.2311  179.0828 F   0  0  0  0  0  0  0  0  0  0  0  0
  158.0343  141.4694  183.1307 N   0  0  0  0  0  0  0  0  0  0  0  0
  159.3886  140.9595  183.1538 C   0  0  0  0  0  0  0  0  0  0  0  0
  160.2329  141.8215  184.0932 C   0  0  0  0  0  0  0  0  0  0  0  0
  159.9684  143.1712  183.9835 O   0  0  0  0  0  0  0  0  0  0  0  0
  159.3158  143.4592  182.7982 C   0  0  0  0  0  0  0  0  0  0  0  0
  157.9266  142.8627  182.6933 C   0  0  0  0  0  0  0  0  0  0  0  0
  155.3867  138.1989  185.6567 N   0  0  0  0  0  0  0  0  0  0  0  0
  155.2079  137.1964  185.2185 H   0  0  0  0  0  0  0  0  0  0  0  0
  155.0706  138.1714  189.7828 C   0  0  0  0  0  0  0  0  0  0  0  0
  153.9353  138.4157  189.0619 C   0  0  0  0  0  0  0  0  0  0  0  0
  154.0189  138.4171  187.6517 C   0  0  0  0  0  0  0  0  0  0  0  0
  155.2164  138.1742  187.0270 C   0  0  0  0  0  0  0  0  0  0  0  0
  156.3420  137.9307  187.8118 C   0  0  0  0  0  0  0  0  0  0  0  0
  156.2595  137.9310  189.1614 C   0  0  0  0  0  0  0  0  0  0  0  0
  156.1821  137.5836  191.8346 F   0  0  0  0  0  0  0  0  0  0  0  0
  155.0932  138.1386  191.2929 C   0  0  0  0  0  0  0  0  0  0  0  0
  153.9833  137.3933  191.6579 F   0  0  0  0  0  0  0  0  0  0  0  0
  154.8730  139.4388  191.7952 F   0  0  0  0  0  0  0  0  0  0  0  0
 36 37  1  0  0  0
 37 38  1  0  0  0
 37 39  1  0  0  0
 37 30  1  0  0  0
 30 31  2  0  0  0
 31 32  1  0  0  0
 32 33  2  0  0  0
 33 28  1  0  0  0
 28  1  1  0  0  0
  1  2  2  0  0  0
  2  3  1  0  0  0
  3  4  2  0  0  0
  4  5  1  0  0  0
  5  6  1  0  0  0
  6  7  1  0  0  0
  7  8  1  0  0  0
  8  9  1  0  0  0
  9 10  1  0  0  0
 10 11  1  0  0  0
  8 12  1  0  0  0
 12 13  2  0  0  0
 13 14  1  0  0  0
 14 15  2  0  0  0
 15 16  1  0  0  0
 16 17  2  0  0  0
 17 18  1  0  0  0
 18 19  1  0  0  0
 18 20  1  0  0  0
 18 21  1  0  0  0
  3 22  1  0  0  0
 22 23  1  0  0  0
 23 24  1  0  0  0
 24 25  1  0  0  0
 25 26  1  0  0  0
 26 27  1  0  0  0
 33 34  1  0  0  0
 34 35  2  0  0  0
 35 30  1  0  0  0
 11  1  1  0  0  0
 17 12  1  0  0  0
 27 22  1  0  0  0
 11  5  2  0  0  0
 28 29  1  0  0  0
M  END
> <minimizedAffinity>
-10.95286

> <CNNscore>
0.5256037116

> <CNNaffinity>
7.0404038429

> <CNN_VS>
3.7004623413

> <CNNaffinity_variance>
0.0662699640

$$$$
[H]c1nc(N2C([H])([H])C([H])([H])c3nc(N4C([H])([H])C([H])([H])OC([H])([H])C4([H])[H])nc(N([H])c4c([H])c([H])c(C(F)(F)F)c([H])c4[H])c3C([H])([H])C2([H])[H])c(C(F)(F)F)c([H])c1[H]


 39 43  0  0  0  0  0  0  0  0999 V2000
  154.7812  138.7982  184.3702 C   0  0  0  0  0  0  0  0  0  0  0  0
  155.8616  139.5271  184.0199 N   0  0  0  0  0  0  0  0  0  0  0  0
  155.8488  140.3696  182.9628 C   0  0  0  0  0  0  0  0  0  0  0  0
  154.7398  140.5165  182.2054 N   0  0  0  0  0  0  0  0  0  0  0  0
  153.6027  139.8209  182.4826 C   0  0  0  0  0  0  0  0  0  0  0  0
  152.4840  140.1719  181.5864 C   0  0  0  0  0  0  0  0  0  0  0  0
  151.7824  139.0459  180.9213 C   0  0  0  0  0  0  0  0  0  0  0  0
  151.3946  137.9350  181.6846 N   0  0  0  0  0  0  0  0  0  0  0  0
  152.0703  137.2477  182.7339 C   0  0  0  0  0  0  0  0  0  0  0  0
  152.5867  138.0117  183.9075 C   0  0  0  0  0  0  0  0  0  0  0  0
  153.6617  138.9789  183.5549 C   0  0  0  0  0  0  0  0  0  0  0  0
  150.1925  137.2696  181.3331 C   0  0  0  0  0  0  0  0  0  0  0  0
  150.4129  135.9318  180.9628 N   0  0  0  0  0  0  0  0  0  0  0  0
  149.4410  135.1406  180.5879 C   0  0  0  0  0  0  0  0  0  0  0  0
  148.1389  135.5491  180.5318 C   0  0  0  0  0  0  0  0  0  0  0  0
  147.8831  136.8527  180.8883 C   0  0  0  0  0  0  0  0  0  0  0  0
  148.9299  137.7036  181.2894 C   0  0  0  0  0  0  0  0  0  0  0  0
  148.6043  139.0996  181.7198 C   0  0  0  0  0  0  0  0  0  0  0  0
  148.9507  139.3827  183.0025 F   0  0  0  0  0  0  0  0  0  0  0  0
  147.1682  139.1574  181.7225 F   0  0  0  0  0  0  0  0  0  0  0  0
  148.9813  140.0540  180.8119 F   0  0  0  0  0  0  0  0  0  0  0  0
  156.9365  141.1664  182.5588 N   0  0  0  0  0  0  0  0  0  0  0  0
  158.1301  140.7397  181.8604 C   0  0  0  0  0  0  0  0  0  0  0  0
  159.3570  141.0965  182.7005 C   0  0  0  0  0  0  0  0  0  0  0  0
  159.2705  142.3382  183.2959 O   0  0  0  0  0  0  0  0  0  0  0  0
  158.3067  143.1206  182.6853 C   0  0  0  0  0  0  0  0  0  0  0  0
  156.8920  142.6015  182.8464 C   0  0  0  0  0  0  0  0  0  0  0  0
  154.6331  138.0046  185.5226 N   0  0  0  0  0  0  0  0  0  0  0  0
  154.1201  137.0512  185.2834 H   0  0  0  0  0  0  0  0  0  0  0  0
  155.0702  138.3237  189.6253 C   0  0  0  0  0  0  0  0  0  0  0  0
  156.1661  137.9512  188.8983 C   0  0  0  0  0  0  0  0  0  0  0  0
  156.0416  137.8485  187.4949 C   0  0  0  0  0  0  0  0  0  0  0  0
  154.8444  138.1218  186.8823 C   0  0  0  0  0  0  0  0  0  0  0  0
  153.7600  138.4978  187.6728 C   0  0  0  0  0  0  0  0  0  0  0  0
  153.8816  138.5943  189.0161 C   0  0  0  0  0  0  0  0  0  0  0  0
  154.9681  139.7245  191.5794 F   0  0  0  0  0  0  0  0  0  0  0  0
  155.0938  138.4722  191.1284 C   0  0  0  0  0  0  0  0  0  0  0  0
  156.3259  137.9764  191.5244 F   0  0  0  0  0  0  0  0  0  0  0  0
  154.1270  137.6186  191.7009 F   0  0  0  0  0  0  0  0  0  0  0  0
 36 37  1  0  0  0
 37 38  1  0  0  0
 37 39  1  0  0  0
 37 30  1  0  0  0
 30 31  2  0  0  0
 31 32  1  0  0  0
 32 33  2  0  0  0
 33 28  1  0  0  0
 28  1  1  0  0  0
  1  2  2  0  0  0
  2  3  1  0  0  0
  3  4  2  0  0  0
  4  5  1  0  0  0
  5  6  1  0  0  0
  6  7  1  0  0  0
  7  8  1  0  0  0
  8  9  1  0  0  0
  9 10  1  0  0  0
 10 11  1  0  0  0
  8 12  1  0  0  0
 12 13  2  0  0  0
 13 14  1  0  0  0
 14 15  2  0  0  0
 15 16  1  0  0  0
 16 17  2  0  0  0
 17 18  1  0  0  0
 18 19  1  0  0  0
 18 20  1  0  0  0
 18 21  1  0  0  0
  3 22  1  0  0  0
 22 23  1  0  0  0
 23 24  1  0  0  0
 24 25  1  0  0  0
 25 26  1  0  0  0
 26 27  1  0  0  0
 33 34  1  0  0  0
 34 35  2  0  0  0
 35 30  1  0  0  0
 11  1  1  0  0  0
 17 12  1  0  0  0
 27 22  1  0  0  0
 11  5  2  0  0  0
 28 29  1  0  0  0
M  END
> <minimizedAffinity>
-10.24296

> <CNNscore>
0.4876005948

> <CNNaffinity>
6.8058776855

> <CNN_VS>
3.3185501099

> <CNNaffinity_variance>
0.0492795184

$$$$
[H]c1nc(N2C([H])([H])C([H])([H])c3nc(N4C([H])([H])C([H])([H])OC([H])([H])C4([H])[H])nc(N([H])c4c([H])c([H])c(C(F)(F)F)c([H])c4[H])c3C([H])([H])C2([H])[H])c(C(F)(F)F)c([H])c1[H]


 39 43  0  0  0  0  0  0  0  0999 V2000
  154.8933  138.6759  184.3925 C   0  0  0  0  0  0  0  0  0  0  0  0
  153.9167  138.5025  183.4774 N   0  0  0  0  0  0  0  0  0  0  0  0
  152.7103  137.9862  183.8022 C   0  0  0  0  0  0  0  0  0  0  0  0
  152.4314  137.6184  185.0718 N   0  0  0  0  0  0  0  0  0  0  0  0
  153.3559  137.7554  186.0619 C   0  0  0  0  0  0  0  0  0  0  0  0
  152.8374  137.3649  187.3873 C   0  0  0  0  0  0  0  0  0  0  0  0
  153.6552  136.4031  188.1675 C   0  0  0  0  0  0  0  0  0  0  0  0
  155.0357  136.6190  188.2881 N   0  0  0  0  0  0  0  0  0  0  0  0
  155.9918  137.0713  187.3334 C   0  0  0  0  0  0  0  0  0  0  0  0
  155.7480  138.3391  186.5845 C   0  0  0  0  0  0  0  0  0  0  0  0
  154.5609  138.2760  185.6888 C   0  0  0  0  0  0  0  0  0  0  0  0
  155.6677  136.2405  189.5000 C   0  0  0  0  0  0  0  0  0  0  0  0
  156.3429  135.0129  189.3877 N   0  0  0  0  0  0  0  0  0  0  0  0
  156.9817  134.4715  190.3927 C   0  0  0  0  0  0  0  0  0  0  0  0
  157.0473  135.0569  191.6250 C   0  0  0  0  0  0  0  0  0  0  0  0
  156.3992  136.2610  191.7737 C   0  0  0  0  0  0  0  0  0  0  0  0
  155.7104  136.8414  190.6922 C   0  0  0  0  0  0  0  0  0  0  0  0
  155.0622  138.1773  190.8793 C   0  0  0  0  0  0  0  0  0  0  0  0
  154.8611  138.8660  189.7256 F   0  0  0  0  0  0  0  0  0  0  0  0
  156.0343  138.9607  191.5914 F   0  0  0  0  0  0  0  0  0  0  0  0
  153.9746  138.1460  191.7121 F   0  0  0  0  0  0  0  0  0  0  0  0
  151.6489  137.7968  182.8973 N   0  0  0  0  0  0  0  0  0  0  0  0
  151.6304  138.1055  181.4835 C   0  0  0  0  0  0  0  0  0  0  0  0
  150.4922  139.0863  181.1993 C   0  0  0  0  0  0  0  0  0  0  0  0
  149.3351  138.7980  181.8933 O   0  0  0  0  0  0  0  0  0  0  0  0
  149.3404  137.4946  182.3570 C   0  0  0  0  0  0  0  0  0  0  0  0
  150.4043  137.2102  183.3983 C   0  0  0  0  0  0  0  0  0  0  0  0
  156.1252  139.3286  184.2023 N   0  0  0  0  0  0  0  0  0  0  0  0
  156.6983  139.3765  185.1502 H   0  0  0  0  0  0  0  0  0  0  0  0
  157.9657  141.5709  181.2511 C   0  0  0  0  0  0  0  0  0  0  0  0
  158.6305  140.4722  181.7195 C   0  0  0  0  0  0  0  0  0  0  0  0
  158.0141  139.6859  182.7182 C   0  0  0  0  0  0  0  0  0  0  0  0
  156.7739  140.0222  183.1997 C   0  0  0  0  0  0  0  0  0  0  0  0
  156.1417  141.1528  182.6855 C   0  0  0  0  0  0  0  0  0  0  0  0
  156.7343  141.9044  181.7303 C   0  0  0  0  0  0  0  0  0  0  0  0
  159.8561  142.6252  180.1995 F   0  0  0  0  0  0  0  0  0  0  0  0
  158.5278  142.4758  180.1800 C   0  0  0  0  0  0  0  0  0  0  0  0
  157.9362  143.7100  180.3983 F   0  0  0  0  0  0  0  0  0  0  0  0
  158.0759  142.0445  178.9147 F   0  0  0  0  0  0  0  0  0  0  0  0
 36 37  1  0  0  0
 37 38  1  0  0  0
 37 39  1  0  0  0
 37 30  1  0  0  0
 30 31  2  0  0  0
 31 32  1  0  0  0
 32 33  2  0  0  0
 33 28  1  0  0  0
 28  1  1  0  0  0
  1  2  2  0  0  0
  2  3  1  0  0  0
  3  4  2  0  0  0
  4  5  1  0  0  0
  5  6  1  0  0  0
  6  7  1  0  0  0
  7  8  1  0  0  0
  8  9  1  0  0  0
  9 10  1  0  0  0
 10 11  1  0  0  0
  8 12  1  0  0  0
 12 13  2  0  0  0
 13 14  1  0  0  0
 14 15  2  0  0  0
 15 16  1  0  0  0
 16 17  2  0  0  0
 17 18  1  0  0  0
 18 19  1  0  0  0
 18 20  1  0  0  0
 18 21  1  0  0  0
  3 22  1  0  0  0
 22 23  1  0  0  0
 23 24  1  0  0  0
 24 25  1  0  0  0
 25 26  1  0  0  0
 26 27  1  0  0  0
 33 34  1  0  0  0
 34 35  2  0  0  0
 35 30  1  0  0  0
 11  1  1  0  0  0
 17 12  1  0  0  0
 27 22  1  0  0  0
 11  5  2  0  0  0
 28 29  1  0  0  0
M  END
> <minimizedAffinity>
-9.79795

> <CNNscore>
0.4687476158

> <CNNaffinity>
6.8134269714

> <CNN_VS>
3.1937775612

> <CNNaffinity_variance>
0.1220425144

$$$$
[H]c1nc(N2C([H])([H])C([H])([H])c3nc(N4C([H])([H])C([H])([H])OC([H])([H])C4([H])[H])nc(N([H])c4c([H])c([H])c(C(F)(F)F)c([H])c4[H])c3C([H])([H])C2([H])[H])c(C(F)(F)F)c([H])c1[H]


 39 43  0  0  0  0  0  0  0  0999 V2000
  155.0525  138.7479  184.7631 C   0  0  0  0  0  0  0  0  0  0  0  0
  155.3065  138.3742  186.0347 N   0  0  0  0  0  0  0  0  0  0  0  0
  154.5469  137.4621  186.6817 C   0  0  0  0  0  0  0  0  0  0  0  0
  153.4896  136.8818  186.0730 N   0  0  0  0  0  0  0  0  0  0  0  0
  153.1566  137.1979  184.7912 C   0  0  0  0  0  0  0  0  0  0  0  0
  152.0183  136.4073  184.2839 C   0  0  0  0  0  0  0  0  0  0  0  0
  150.8987  137.1654  183.6720 C   0  0  0  0  0  0  0  0  0  0  0  0
  151.1834  138.1677  182.7332 N   0  0  0  0  0  0  0  0  0  0  0  0
  152.2173  139.1476  182.7058 C   0  0  0  0  0  0  0  0  0  0  0  0
  153.6417  138.7258  182.8506 C   0  0  0  0  0  0  0  0  0  0  0  0
  153.9471  138.1261  184.1782 C   0  0  0  0  0  0  0  0  0  0  0  0
  150.2678  138.3652  181.6683 C   0  0  0  0  0  0  0  0  0  0  0  0
  148.9933  137.8489  181.9590 N   0  0  0  0  0  0  0  0  0  0  0  0
  148.0023  137.9117  181.1074 C   0  0  0  0  0  0  0  0  0  0  0  0
  148.1259  138.4868  179.8748 C   0  0  0  0  0  0  0  0  0  0  0  0
  149.3590  139.0049  179.5541 C   0  0  0  0  0  0  0  0  0  0  0  0
  150.4251  138.9347  180.4703 C   0  0  0  0  0  0  0  0  0  0  0  0
  151.7365  139.5564  180.1048 C   0  0  0  0  0  0  0  0  0  0  0  0
  152.0860  140.6168  180.8790 F   0  0  0  0  0  0  0  0  0  0  0  0
  151.5223  140.1270  178.8031 F   0  0  0  0  0  0  0  0  0  0  0  0
  152.7407  138.6438  179.9151 F   0  0  0  0  0  0  0  0  0  0  0  0
  154.7711  137.0210  187.9994 N   0  0  0  0  0  0  0  0  0  0  0  0
  153.9585  136.1068  188.7730 C   0  0  0  0  0  0  0  0  0  0  0  0
  153.5018  136.8040  190.0550 C   0  0  0  0  0  0  0  0  0  0  0  0
  154.4869  137.5718  190.6413 O   0  0  0  0  0  0  0  0  0  0  0  0
  155.7408  137.2196  190.1748 C   0  0  0  0  0  0  0  0  0  0  0  0
  155.9594  137.5079  188.7031 C   0  0  0  0  0  0  0  0  0  0  0  0
  155.8497  139.5725  183.9480 N   0  0  0  0  0  0  0  0  0  0  0  0
  155.3782  139.7231  182.9559 H   0  0  0  0  0  0  0  0  0  0  0  0
  159.5579  141.3819  184.2650 C   0  0  0  0  0  0  0  0  0  0  0  0
  159.4325  140.3434  183.3849 C   0  0  0  0  0  0  0  0  0  0  0  0
  158.1718  139.7200  183.2523 C   0  0  0  0  0  0  0  0  0  0  0  0
  157.1008  140.1555  183.9916 C   0  0  0  0  0  0  0  0  0  0  0  0
  157.2857  141.2189  184.8732 C   0  0  0  0  0  0  0  0  0  0  0  0
  158.4938  141.8132  184.9991 C   0  0  0  0  0  0  0  0  0  0  0  0
  160.8527  143.4026  184.0891 F   0  0  0  0  0  0  0  0  0  0  0  0
  160.8560  142.1241  184.4796 C   0  0  0  0  0  0  0  0  0  0  0  0
  161.7987  141.4322  183.7356 F   0  0  0  0  0  0  0  0  0  0  0  0
  161.2530  141.9977  185.8277 F   0  0  0  0  0  0  0  0  0  0  0  0
 36 37  1  0  0  0
 37 38  1  0  0  0
 37 39  1  0  0  0
 37 30  1  0  0  0
 30 31  2  0  0  0
 31 32  1  0  0  0
 32 33  2  0  0  0
 33 28  1  0  0  0
 28  1  1  0  0  0
  1  2  2  0  0  0
  2  3  1  0  0  0
  3  4  2  0  0  0
  4  5  1  0  0  0
  5  6  1  0  0  0
  6  7  1  0  0  0
  7  8  1  0  0  0
  8  9  1  0  0  0
  9 10  1  0  0  0
 10 11  1  0  0  0
  8 12  1  0  0  0
 12 13  2  0  0  0
 13 14  1  0  0  0
 14 15  2  0  0  0
 15 16  1  0  0  0
 16 17  2  0  0  0
 17 18  1  0  0  0
 18 19  1  0  0  0
 18 20  1  0  0  0
 18 21  1  0  0  0
  3 22  1  0  0  0
 22 23  1  0  0  0
 23 24  1  0  0  0
 24 25  1  0  0  0
 25 26  1  0  0  0
 26 27  1  0  0  0
 33 34  1  0  0  0
 34 35  2  0  0  0
 35 30  1  0  0  0
 11  1  1  0  0  0
 17 12  1  0  0  0
 27 22  1  0  0  0
 11  5  2  0  0  0
 28 29  1  0  0  0
M  END
> <minimizedAffinity>
-9.14443

> <CNNscore>
0.4072133005

> <CNNaffinity>
6.7596001625

> <CNN_VS>
2.7525990009

> <CNNaffinity_variance>
0.0533787608

$$$$
[H]c1nc(N2C([H])([H])C([H])([H])c3nc(N4C([H])([H])C([H])([H])OC([H])([H])C4([H])[H])nc(N([H])c4c([H])c([H])c(C(F)(F)F)c([H])c4[H])c3C([H])([H])C2([H])[H])c(C(F)(F)F)c([H])c1[H]


 39 43  0  0  0  0  0  0  0  0999 V2000
  154.6959  138.8942  184.3772 C   0  0  0  0  0  0  0  0  0  0  0  0
  153.5076  138.8723  183.7379 N   0  0  0  0  0  0  0  0  0  0  0  0
  153.2909  139.5670  182.5986 C   0  0  0  0  0  0  0  0  0  0  0  0
  154.2679  140.3205  182.0484 N   0  0  0  0  0  0  0  0  0  0  0  0
  155.4989  140.4040  182.6241 C   0  0  0  0  0  0  0  0  0  0  0  0
  156.4455  141.2170  181.8360 C   0  0  0  0  0  0  0  0  0  0  0  0
  157.1680  142.2914  182.5615 C   0  0  0  0  0  0  0  0  0  0  0  0
  157.7689  141.9997  183.7947 N   0  0  0  0  0  0  0  0  0  0  0  0
  157.3147  141.2000  184.8829 C   0  0  0  0  0  0  0  0  0  0  0  0
  156.8805  139.7932  184.6375 C   0  0  0  0  0  0  0  0  0  0  0  0
  155.6720  139.6910  183.7747 C   0  0  0  0  0  0  0  0  0  0  0  0
  158.9774  142.6653  184.1230 C   0  0  0  0  0  0  0  0  0  0  0  0
  159.6325  142.0715  185.2156 N   0  0  0  0  0  0  0  0  0  0  0  0
  160.7581  142.5365  185.6931 C   0  0  0  0  0  0  0  0  0  0  0  0
  161.3863  143.6289  185.1663 C   0  0  0  0  0  0  0  0  0  0  0  0
  160.7757  144.2370  184.0943 C   0  0  0  0  0  0  0  0  0  0  0  0
  159.5635  143.7371  183.5827 C   0  0  0  0  0  0  0  0  0  0  0  0
  158.9576  144.3948  182.3827 C   0  0  0  0  0  0  0  0  0  0  0  0
  159.0648  143.6724  181.2372 F   0  0  0  0  0  0  0  0  0  0  0  0
  159.7758  145.5525  182.1461 F   0  0  0  0  0  0  0  0  0  0  0  0
  157.7061  144.9038  182.6112 F   0  0  0  0  0  0  0  0  0  0  0  0
  152.0811  139.5709  181.8791 N   0  0  0  0  0  0  0  0  0  0  0  0
  150.8545  138.8797  182.2139 C   0  0  0  0  0  0  0  0  0  0  0  0
  150.4770  137.9435  181.0652 C   0  0  0  0  0  0  0  0  0  0  0  0
  150.6792  138.4981  179.8181 O   0  0  0  0  0  0  0  0  0  0  0  0
  150.7862  139.8753  179.8935 C   0  0  0  0  0  0  0  0  0  0  0  0
  152.0056  140.3630  180.6499 C   0  0  0  0  0  0  0  0  0  0  0  0
  155.0785  138.1079  185.4795 N   0  0  0  0  0  0  0  0  0  0  0  0
  155.4979  137.1370  185.1466 H   0  0  0  0  0  0  0  0  0  0  0  0
  154.9779  138.2787  189.6130 C   0  0  0  0  0  0  0  0  0  0  0  0
  153.8297  138.5855  188.9379 C   0  0  0  0  0  0  0  0  0  0  0  0
  153.8391  138.5211  187.5267 C   0  0  0  0  0  0  0  0  0  0  0  0
  154.9788  138.1545  186.8561 C   0  0  0  0  0  0  0  0  0  0  0  0
  156.1208  137.8519  187.5953 C   0  0  0  0  0  0  0  0  0  0  0  0
  156.1095  137.9153  188.9460 C   0  0  0  0  0  0  0  0  0  0  0  0
  154.1436  137.6008  191.7659 F   0  0  0  0  0  0  0  0  0  0  0  0
  155.0769  138.3072  191.1201 C   0  0  0  0  0  0  0  0  0  0  0  0
  154.9474  139.6423  191.4686 F   0  0  0  0  0  0  0  0  0  0  0  0
  156.3770  137.9251  191.5137 F   0  0  0  0  0  0  0  0  0  0  0  0
 36 37  1  0  0  0
 37 38  1  0  0  0
 37 39  1  0  0  0
 37 30  1  0  0  0
 30 31  2  0  0  0
 31 32  1  0  0  0
 32 33  2  0  0  0
 33 28  1  0  0  0
 28  1  1  0  0  0
  1  2  2  0  0  0
  2  3  1  0  0  0
  3  4  2  0  0  0
  4  5  1  0  0  0
  5  6  1  0  0  0
  6  7  1  0  0  0
  7  8  1  0  0  0
  8  9  1  0  0  0
  9 10  1  0  0  0
 10 11  1  0  0  0
  8 12  1  0  0  0
 12 13  2  0  0  0
 13 14  1  0  0  0
 14 15  2  0  0  0
 15 16  1  0  0  0
 16 17  2  0  0  0
 17 18  1  0  0  0
 18 19  1  0  0  0
 18 20  1  0  0  0
 18 21  1  0  0  0
  3 22  1  0  0  0
 22 23  1  0  0  0
 23 24  1  0  0  0
 24 25  1  0  0  0
 25 26  1  0  0  0
 26 27  1  0  0  0
 33 34  1  0  0  0
 34 35  2  0  0  0
 35 30  1  0  0  0
 11  1  1  0  0  0
 17 12  1  0  0  0
 27 22  1  0  0  0
 11  5  2  0  0  0
 28 29  1  0  0  0
M  END
> <minimizedAffinity>
-11.38293

> <CNNscore>
0.3826715648

> <CNNaffinity>
7.3459572792

> <CNN_VS>
2.8110890388

> <CNNaffinity_variance>
0.0129677923

$$$$
[H]c1nc(N2C([H])([H])C([H])([H])c3nc(N4C([H])([H])C([H])([H])OC([H])([H])C4([H])[H])nc(N([H])c4c([H])c([H])c(C(F)(F)F)c([H])c4[H])c3C([H])([H])C2([H])[H])c(C(F)(F)F)c([H])c1[H]


 39 43  0  0  0  0  0  0  0  0999 V2000
  153.3681  138.0203  184.6313 C   0  0  0  0  0  0  0  0  0  0  0  0
  152.0816  137.6687  184.4247 N   0  0  0  0  0  0  0  0  0  0  0  0
  151.3813  138.1010  183.3522 C   0  0  0  0  0  0  0  0  0  0  0  0
  151.9489  138.9128  182.4335 N   0  0  0  0  0  0  0  0  0  0  0  0
  153.2417  139.3206  182.5598 C   0  0  0  0  0  0  0  0  0  0  0  0
  153.6965  140.1425  181.4216 C   0  0  0  0  0  0  0  0  0  0  0  0
  154.3351  141.4416  181.7489 C   0  0  0  0  0  0  0  0  0  0  0  0
  155.3268  141.4861  182.7397 N   0  0  0  0  0  0  0  0  0  0  0  0
  155.4146  140.8200  183.9961 C   0  0  0  0  0  0  0  0  0  0  0  0
  155.2627  139.3366  184.0603 C   0  0  0  0  0  0  0  0  0  0  0  0
  153.9093  138.8645  183.6592 C   0  0  0  0  0  0  0  0  0  0  0  0
  156.3912  142.4094  182.5786 C   0  0  0  0  0  0  0  0  0  0  0  0
  155.9384  143.7385  182.5159 N   0  0  0  0  0  0  0  0  0  0  0  0
  156.7542  144.7484  182.3547 C   0  0  0  0  0  0  0  0  0  0  0  0
  158.1062  144.5921  182.2404 C   0  0  0  0  0  0  0  0  0  0  0  0
  158.5877  143.3049  182.2984 C   0  0  0  0  0  0  0  0  0  0  0  0
  157.7088  142.2190  182.4696 C   0  0  0  0  0  0  0  0  0  0  0  0
  158.2760  140.8385  182.5804 C   0  0  0  0  0  0  0  0  0  0  0  0
  158.4292  140.3993  183.8569 F   0  0  0  0  0  0  0  0  0  0  0  0
  159.6202  140.9529  182.0844 F   0  0  0  0  0  0  0  0  0  0  0  0
  157.6801  139.9332  181.7422 F   0  0  0  0  0  0  0  0  0  0  0  0
  150.0450  137.7565  183.0747 N   0  0  0  0  0  0  0  0  0  0  0  0
  149.1503  138.3885  182.1289 C   0  0  0  0  0  0  0  0  0  0  0  0
  147.9098  138.8891  182.8698 C   0  0  0  0  0  0  0  0  0  0  0  0
  147.4491  138.0062  183.8248 O   0  0  0  0  0  0  0  0  0  0  0  0
  147.9534  136.7349  183.6167 C   0  0  0  0  0  0  0  0  0  0  0  0
  149.4547  136.6258  183.7937 C   0  0  0  0  0  0  0  0  0  0  0  0
  154.2322  137.5233  185.6243 N   0  0  0  0  0  0  0  0  0  0  0  0
  154.8879  136.7278  185.2164 H   0  0  0  0  0  0  0  0  0  0  0  0
  154.9651  138.0485  189.6631 C   0  0  0  0  0  0  0  0  0  0  0  0
  153.6672  137.8722  189.2722 C   0  0  0  0  0  0  0  0  0  0  0  0
  153.3966  137.6786  187.8993 C   0  0  0  0  0  0  0  0  0  0  0  0
  154.4198  137.6657  186.9851 C   0  0  0  0  0  0  0  0  0  0  0  0
  155.7243  137.8499  187.4397 C   0  0  0  0  0  0  0  0  0  0  0  0
  155.9806  138.0361  188.7543 C   0  0  0  0  0  0  0  0  0  0  0  0
  156.6127  137.8749  191.4085 F   0  0  0  0  0  0  0  0  0  0  0  0
  155.3677  138.2554  191.1043 C   0  0  0  0  0  0  0  0  0  0  0  0
  154.4751  137.4964  191.8446 F   0  0  0  0  0  0  0  0  0  0  0  0
  155.1352  139.5984  191.4698 F   0  0  0  0  0  0  0  0  0  0  0  0
 36 37  1  0  0  0
 37 38  1  0  0  0
 37 39  1  0  0  0
 37 30  1  0  0  0
 30 31  2  0  0  0
 31 32  1  0  0  0
 32 33  2  0  0  0
 33 28  1  0  0  0
 28  1  1  0  0  0
  1  2  2  0  0  0
  2  3  1  0  0  0
  3  4  2  0  0  0
  4  5  1  0  0  0
  5  6  1  0  0  0
  6  7  1  0  0  0
  7  8  1  0  0  0
  8  9  1  0  0  0
  9 10  1  0  0  0
 10 11  1  0  0  0
  8 12  1  0  0  0
 12 13  2  0  0  0
 13 14  1  0  0  0
 14 15  2  0  0  0
 15 16  1  0  0  0
 16 17  2  0  0  0
 17 18  1  0  0  0
 18 19  1  0  0  0
 18 20  1  0  0  0
 18 21  1  0  0  0
  3 22  1  0  0  0
 22 23  1  0  0  0
 23 24  1  0  0  0
 24 25  1  0  0  0
 25 26  1  0  0  0
 26 27  1  0  0  0
 33 34  1  0  0  0
 34 35  2  0  0  0
 35 30  1  0  0  0
 11  1  1  0  0  0
 17 12  1  0  0  0
 27 22  1  0  0  0
 11  5  2  0  0  0
 28 29  1  0  0  0
M  END
> <minimizedAffinity>
-9.05976

> <CNNscore>
0.3333359659

> <CNNaffinity>
6.9355177879

> <CNN_VS>
2.3118574619

> <CNNaffinity_variance>
0.0492534041

$$$$
[H]c1nc(N2C([H])([H])C([H])([H])c3nc(N4C([H])([H])C([H])([H])OC([H])([H])C4([H])[H])nc(N([H])c4c([H])c([H])c(C(F)(F)F)c([H])c4[H])c3C([H])([H])C2([H])[H])c(C(F)(F)F)c([H])c1[H]


 39 43  0  0  0  0  0  0  0  0999 V2000
  155.1884  138.9090  184.4369 C   0  0  0  0  0  0  0  0  0  0  0  0
  156.3534  139.4977  184.0942 N   0  0  0  0  0  0  0  0  0  0  0  0
  156.4303  140.4214  183.1102 C   0  0  0  0  0  0  0  0  0  0  0  0
  155.3297  140.7961  182.4221 N   0  0  0  0  0  0  0  0  0  0  0  0
  154.1111  140.2551  182.6975 C   0  0  0  0  0  0  0  0  0  0  0  0
  153.0269  140.8443  181.8881 C   0  0  0  0  0  0  0  0  0  0  0  0
  152.1392  139.8966  181.1695 C   0  0  0  0  0  0  0  0  0  0  0  0
  151.6153  138.7933  181.8588 N   0  0  0  0  0  0  0  0  0  0  0  0
  152.2165  137.9250  182.8152 C   0  0  0  0  0  0  0  0  0  0  0  0
  152.8847  138.4992  184.0199 C   0  0  0  0  0  0  0  0  0  0  0  0
  154.0804  139.3236  183.6944 C   0  0  0  0  0  0  0  0  0  0  0  0
  150.3143  138.3462  181.5139 C   0  0  0  0  0  0  0  0  0  0  0  0
  149.4088  139.4102  181.3604 N   0  0  0  0  0  0  0  0  0  0  0  0
  148.1507  139.2196  181.0571 C   0  0  0  0  0  0  0  0  0  0  0  0
  147.6205  137.9762  180.8611 C   0  0  0  0  0  0  0  0  0  0  0  0
  148.4767  136.9089  181.0016 C   0  0  0  0  0  0  0  0  0  0  0  0
  149.8297  137.1151  181.3301 C   0  0  0  0  0  0  0  0  0  0  0  0
  150.7412  135.9317  181.4225 C   0  0  0  0  0  0  0  0  0  0  0  0
  151.9640  136.1247  180.8630 F   0  0  0  0  0  0  0  0  0  0  0  0
  150.1288  134.9308  180.5924 F   0  0  0  0  0  0  0  0  0  0  0  0
  150.7766  135.3643  182.6692 F   0  0  0  0  0  0  0  0  0  0  0  0
  157.6109  141.0806  182.7191 N   0  0  0  0  0  0  0  0  0  0  0  0
  158.9056  140.4888  182.4586 C   0  0  0  0  0  0  0  0  0  0  0  0
  159.9426  141.1231  183.3864 C   0  0  0  0  0  0  0  0  0  0  0  0
  159.7849  142.4859  183.5331 O   0  0  0  0  0  0  0  0  0  0  0  0
  159.0043  143.0121  182.5194 C   0  0  0  0  0  0  0  0  0  0  0  0
  157.5669  142.5319  182.5295 C   0  0  0  0  0  0  0  0  0  0  0  0
  154.9634  138.0489  185.5275 N   0  0  0  0  0  0  0  0  0  0  0  0
  154.6461  137.0448  185.1808 H   0  0  0  0  0  0  0  0  0  0  0  0
  155.0244  138.3326  189.6556 C   0  0  0  0  0  0  0  0  0  0  0  0
  153.8384  138.5757  189.0211 C   0  0  0  0  0  0  0  0  0  0  0  0
  153.7930  138.4719  187.6129 C   0  0  0  0  0  0  0  0  0  0  0  0
  154.9181  138.1306  186.9053 C   0  0  0  0  0  0  0  0  0  0  0  0
  156.1003  137.8931  187.6040 C   0  0  0  0  0  0  0  0  0  0  0  0
  156.1414  137.9942  188.9518 C   0  0  0  0  0  0  0  0  0  0  0  0
  156.3094  137.8709  191.6372 F   0  0  0  0  0  0  0  0  0  0  0  0
  155.1834  138.4075  191.1559 C   0  0  0  0  0  0  0  0  0  0  0  0
  154.1012  137.7125  191.6722 F   0  0  0  0  0  0  0  0  0  0  0  0
  155.0272  139.7443  191.5796 F   0  0  0  0  0  0  0  0  0  0  0  0
 36 37  1  0  0  0
 37 38  1  0  0  0
 37 39  1  0  0  0
 37 30  1  0  0  0
 30 31  2  0  0  0
 31 32  1  0  0  0
 32 33  2  0  0  0
 33 28  1  0  0  0
 28  1  1  0  0  0
  1  2  2  0  0  0
  2  3  1  0  0  0
  3  4  2  0  0  0
  4  5  1  0  0  0
  5  6  1  0  0  0
  6  7  1  0  0  0
  7  8  1  0  0  0
  8  9  1  0  0  0
  9 10  1  0  0  0
 10 11  1  0  0  0
  8 12  1  0  0  0
 12 13  2  0  0  0
 13 14  1  0  0  0
 14 15  2  0  0  0
 15 16  1  0  0  0
 16 17  2  0  0  0
 17 18  1  0  0  0
 18 19  1  0  0  0
 18 20  1  0  0  0
 18 21  1  0  0  0
  3 22  1  0  0  0
 22 23  1  0  0  0
 23 24  1  0  0  0
 24 25  1  0  0  0
 25 26  1  0  0  0
 26 27  1  0  0  0
 33 34  1  0  0  0
 34 35  2  0  0  0
 35 30  1  0  0  0
 11  1  1  0  0  0
 17 12  1  0  0  0
 27 22  1  0  0  0
 11  5  2  0  0  0
 28 29  1  0  0  0
M  END
> <minimizedAffinity>
-10.06906

> <CNNscore>
0.3311087489

> <CNNaffinity>
6.7114496231

> <CNN_VS>
2.2222197056

> <CNNaffinity_variance>
0.0426490046

$$$$
[H]c1nc(N2C([H])([H])C([H])([H])c3nc(N4C([H])([H])C([H])([H])OC([H])([H])C4([H])[H])nc(N([H])c4c([H])c([H])c(C(F)(F)F)c([H])c4[H])c3C([H])([H])C2([H])[H])c(C(F)(F)F)c([H])c1[H]


 39 43  0  0  0  0  0  0  0  0999 V2000
  154.8770  138.9917  184.9621 C   0  0  0  0  0  0  0  0  0  0  0  0
  156.0047  139.6868  184.7047 N   0  0  0  0  0  0  0  0  0  0  0  0
  156.1632  140.4060  183.5710 C   0  0  0  0  0  0  0  0  0  0  0  0
  155.1866  140.4574  182.6390 N   0  0  0  0  0  0  0  0  0  0  0  0
  154.0145  139.7866  182.8122 C   0  0  0  0  0  0  0  0  0  0  0  0
  153.0515  140.0253  181.7197 C   0  0  0  0  0  0  0  0  0  0  0  0
  152.4524  138.8256  181.0836 C   0  0  0  0  0  0  0  0  0  0  0  0
  151.9415  137.8033  181.8965 N   0  0  0  0  0  0  0  0  0  0  0  0
  152.4403  137.2436  183.1081 C   0  0  0  0  0  0  0  0  0  0  0  0
  152.7745  138.1384  184.2549 C   0  0  0  0  0  0  0  0  0  0  0  0
  153.8992  139.0700  183.9679 C   0  0  0  0  0  0  0  0  0  0  0  0
  150.8031  137.0919  181.4391 C   0  0  0  0  0  0  0  0  0  0  0  0
  151.0361  135.7081  181.3601 N   0  0  0  0  0  0  0  0  0  0  0  0
  150.1228  134.8675  180.9473 C   0  0  0  0  0  0  0  0  0  0  0  0
  148.8731  135.2661  180.5666 C   0  0  0  0  0  0  0  0  0  0  0  0
  148.6067  136.6139  180.6313 C   0  0  0  0  0  0  0  0  0  0  0  0
  149.5909  137.5176  181.0736 C   0  0  0  0  0  0  0  0  0  0  0  0
  149.2455  138.9700  181.1798 C   0  0  0  0  0  0  0  0  0  0  0  0
  149.3704  139.4828  182.4316 F   0  0  0  0  0  0  0  0  0  0  0  0
  147.8345  139.0323  180.9135 F   0  0  0  0  0  0  0  0  0  0  0  0
  149.8112  139.7401  180.1979 F   0  0  0  0  0  0  0  0  0  0  0  0
  157.3071  141.1627  183.2544 N   0  0  0  0  0  0  0  0  0  0  0  0
  157.3637  142.5595  182.8796 C   0  0  0  0  0  0  0  0  0  0  0  0
  158.0196  142.6832  181.5038 C   0  0  0  0  0  0  0  0  0  0  0  0
  159.1012  141.8432  181.3355 O   0  0  0  0  0  0  0  0  0  0  0  0
  159.5801  141.3929  182.5528 C   0  0  0  0  0  0  0  0  0  0  0  0
  158.6138  140.5044  183.3101 C   0  0  0  0  0  0  0  0  0  0  0  0
  154.5451  138.3302  186.1588 N   0  0  0  0  0  0  0  0  0  0  0  0
  153.5142  138.5837  186.4785 H   0  0  0  0  0  0  0  0  0  0  0  0
  156.4707  135.8431  188.8480 C   0  0  0  0  0  0  0  0  0  0  0  0
  156.4063  137.1746  189.1503 C   0  0  0  0  0  0  0  0  0  0  0  0
  155.7423  138.0390  188.2516 C   0  0  0  0  0  0  0  0  0  0  0  0
  155.1742  137.5446  187.1045 C   0  0  0  0  0  0  0  0  0  0  0  0
  155.2696  136.1783  186.8469 C   0  0  0  0  0  0  0  0  0  0  0  0
  155.9066  135.3532  187.7082 C   0  0  0  0  0  0  0  0  0  0  0  0
  157.2683  135.1905  191.0226 F   0  0  0  0  0  0  0  0  0  0  0  0
  157.1483  134.8303  189.7407 C   0  0  0  0  0  0  0  0  0  0  0  0
  158.4147  134.6608  189.2039 F   0  0  0  0  0  0  0  0  0  0  0  0
  156.5003  133.5832  189.6141 F   0  0  0  0  0  0  0  0  0  0  0  0
 36 37  1  0  0  0
 37 38  1  0  0  0
 37 39  1  0  0  0
 37 30  1  0  0  0
 30 31  2  0  0  0
 31 32  1  0  0  0
 32 33  2  0  0  0
 33 28  1  0  0  0
 28  1  1  0  0  0
  1  2  2  0  0  0
  2  3  1  0  0  0
  3  4  2  0  0  0
  4  5  1  0  0  0
  5  6  1  0  0  0
  6  7  1  0  0  0
  7  8  1  0  0  0
  8  9  1  0  0  0
  9 10  1  0  0  0
 10 11  1  0  0  0
  8 12  1  0  0  0
 12 13  2  0  0  0
 13 14  1  0  0  0
 14 15  2  0  0  0
 15 16  1  0  0  0
 16 17  2  0  0  0
 17 18  1  0  0  0
 18 19  1  0  0  0
 18 20  1  0  0  0
 18 21  1  0  0  0
  3 22  1  0  0  0
 22 23  1  0  0  0
 23 24  1  0  0  0
 24 25  1  0  0  0
 25 26  1  0  0  0
 26 27  1  0  0  0
 33 34  1  0  0  0
 34 35  2  0  0  0
 35 30  1  0  0  0
 11  1  1  0  0  0
 17 12  1  0  0  0
 27 22  1  0  0  0
 11  5  2  0  0  0
 28 29  1  0  0  0
M  END
> <minimizedAffinity>
-8.33501

> <CNNscore>
0.3025138080

> <CNNaffinity>
6.5350174904

> <CNN_VS>
1.9769330025

> <CNNaffinity_variance>
0.0432915650

$$$$
[H]c1nc(N2C([H])([H])C([H])([H])c3nc(N4C([H])([H])C([H])([H])OC([H])([H])C4([H])[H])nc(N([H])c4c([H])c([H])c(C(F)(F)F)c([H])c4[H])c3C([H])([H])C2([H])[H])c(C(F)(F)F)c([H])c1[H]


 39 43  0  0  0  0  0  0  0  0999 V2000
  153.8352  138.9357  183.8943 C   0  0  0  0  0  0  0  0  0  0  0  0
  154.5279  139.9198  183.2835 N   0  0  0  0  0  0  0  0  0  0  0  0
  155.7599  140.2943  183.6951 C   0  0  0  0  0  0  0  0  0  0  0  0
  156.3536  139.6909  184.7479 N   0  0  0  0  0  0  0  0  0  0  0  0
  155.7299  138.6887  185.4264 C   0  0  0  0  0  0  0  0  0  0  0  0
  156.5685  138.1129  186.4955 C   0  0  0  0  0  0  0  0  0  0  0  0
  155.9563  138.0130  187.8438 C   0  0  0  0  0  0  0  0  0  0  0  0
  154.6651  137.4807  187.9712 N   0  0  0  0  0  0  0  0  0  0  0  0
  153.5051  137.6543  187.1623 C   0  0  0  0  0  0  0  0  0  0  0  0
  153.5824  137.4030  185.6931 C   0  0  0  0  0  0  0  0  0  0  0  0
  154.4865  138.3462  184.9802 C   0  0  0  0  0  0  0  0  0  0  0  0
  154.3653  136.7259  189.1339 C   0  0  0  0  0  0  0  0  0  0  0  0
  153.9482  135.4191  188.8275 N   0  0  0  0  0  0  0  0  0  0  0  0
  153.6086  134.5584  189.7523 C   0  0  0  0  0  0  0  0  0  0  0  0
  153.6375  134.8589  191.0844 C   0  0  0  0  0  0  0  0  0  0  0  0
  154.0420  136.1290  191.4239 C   0  0  0  0  0  0  0  0  0  0  0  0
  154.4050  137.0548  190.4279 C   0  0  0  0  0  0  0  0  0  0  0  0
  154.8896  138.4095  190.8401 C   0  0  0  0  0  0  0  0  0  0  0  0
  156.2257  138.4754  191.0771 F   0  0  0  0  0  0  0  0  0  0  0  0
  154.2926  138.6370  192.1275 F   0  0  0  0  0  0  0  0  0  0  0  0
  154.4068  139.4249  190.0571 F   0  0  0  0  0  0  0  0  0  0  0  0
  156.5364  141.3004  183.0899 N   0  0  0  0  0  0  0  0  0  0  0  0
  156.4084  141.8244  181.7470 C   0  0  0  0  0  0  0  0  0  0  0  0
  157.7306  141.6287  181.0043 C   0  0  0  0  0  0  0  0  0  0  0  0
  158.8395  141.8915  181.7821 O   0  0  0  0  0  0  0  0  0  0  0  0
  158.5046  142.6422  182.8948 C   0  0  0  0  0  0  0  0  0  0  0  0
  157.6003  141.9261  183.8778 C   0  0  0  0  0  0  0  0  0  0  0  0
  152.6188  138.3689  183.4716 N   0  0  0  0  0  0  0  0  0  0  0  0
  152.2903  137.5715  184.1684 H   0  0  0  0  0  0  0  0  0  0  0  0
  149.9897  138.4462  180.2767 C   0  0  0  0  0  0  0  0  0  0  0  0
  150.6511  139.6030  180.5814 C   0  0  0  0  0  0  0  0  0  0  0  0
  151.5626  139.5948  181.6606 C   0  0  0  0  0  0  0  0  0  0  0  0
  151.7763  138.4459  182.3800 C   0  0  0  0  0  0  0  0  0  0  0  0
  151.0750  137.2952  182.0250 C   0  0  0  0  0  0  0  0  0  0  0  0
  150.2022  137.3060  180.9923 C   0  0  0  0  0  0  0  0  0  0  0  0
  149.3622  138.9588  178.0108 F   0  0  0  0  0  0  0  0  0  0  0  0
  149.0006  138.3410  179.1399 C   0  0  0  0  0  0  0  0  0  0  0  0
  147.8362  138.9236  179.6147 F   0  0  0  0  0  0  0  0  0  0  0  0
  148.6919  136.9836  178.9088 F   0  0  0  0  0  0  0  0  0  0  0  0
 36 37  1  0  0  0
 37 38  1  0  0  0
 37 39  1  0  0  0
 37 30  1  0  0  0
 30 31  2  0  0  0
 31 32  1  0  0  0
 32 33  2  0  0  0
 33 28  1  0  0  0
 28  1  1  0  0  0
  1  2  2  0  0  0
  2  3  1  0  0  0
  3  4  2  0  0  0
  4  5  1  0  0  0
  5  6  1  0  0  0
  6  7  1  0  0  0
  7  8  1  0  0  0
  8  9  1  0  0  0
  9 10  1  0  0  0
 10 11  1  0  0  0
  8 12  1  0  0  0
 12 13  2  0  0  0
 13 14  1  0  0  0
 14 15  2  0  0  0
 15 16  1  0  0  0
 16 17  2  0  0  0
 17 18  1  0  0  0
 18 19  1  0  0  0
 18 20  1  0  0  0
 18 21  1  0  0  0
  3 22  1  0  0  0
 22 23  1  0  0  0
 23 24  1  0  0  0
 24 25  1  0  0  0
 25 26  1  0  0  0
 26 27  1  0  0  0
 33 34  1  0  0  0
 34 35  2  0  0  0
 35 30  1  0  0  0
 11  1  1  0  0  0
 17 12  1  0  0  0
 27 22  1  0  0  0
 11  5  2  0  0  0
 28 29  1  0  0  0
M  END
> <minimizedAffinity>
-8.84401

> <CNNscore>
0.3016816080

> <CNNaffinity>
6.6273574829

> <CNN_VS>
1.9993518591

> <CNNaffinity_variance>
0.0384664945

$$$$
[H]c1nc(N2C([H])([H])C([H])([H])c3nc(N4C([H])([H])C([H])([H])C([H])([H])C4([H])[H])nc(N([H])c4c([H])c([H])c(C(F)(F)F)c([H])c4[H])c3C([H])([H])C2([H])[H])c(C(F)(F)F)c([H])c1[H]


 38 42  0  0  0  0  0  0  0  0999 V2000
  153.9001  138.8181  183.8861 C   0  0  0  0  0  0  0  0  0  0  0  0
  154.6275  139.7036  183.2325 N   0  0  0  0  0  0  0  0  0  0  0  0
  155.8585  140.1185  183.6815 C   0  0  0  0  0  0  0  0  0  0  0  0
  156.3380  139.5974  184.8327 N   0  0  0  0  0  0  0  0  0  0  0  0
  155.6578  138.6757  185.5717 C   0  0  0  0  0  0  0  0  0  0  0  0
  156.4604  138.3589  186.7439 C   0  0  0  0  0  0  0  0  0  0  0  0
  155.8923  137.5337  187.8081 C   0  0  0  0  0  0  0  0  0  0  0  0
  154.4821  137.4924  188.0159 N   0  0  0  0  0  0  0  0  0  0  0  0
  153.4214  138.0010  187.2314 C   0  0  0  0  0  0  0  0  0  0  0  0
  153.4765  137.4157  185.7918 C   0  0  0  0  0  0  0  0  0  0  0  0
  154.4624  138.3129  185.0815 C   0  0  0  0  0  0  0  0  0  0  0  0
  154.0338  136.7855  189.1788 C   0  0  0  0  0  0  0  0  0  0  0  0
  153.3946  135.5850  188.9100 N   0  0  0  0  0  0  0  0  0  0  0  0
  152.9809  134.8129  189.9291 C   0  0  0  0  0  0  0  0  0  0  0  0
  153.1954  135.2097  191.2301 C   0  0  0  0  0  0  0  0  0  0  0  0
  153.8194  136.3842  191.4824 C   0  0  0  0  0  0  0  0  0  0  0  0
  154.2645  137.2228  190.4234 C   0  0  0  0  0  0  0  0  0  0  0  0
  154.9012  138.4779  190.8410 C   0  0  0  0  0  0  0  0  0  0  0  0
  154.5432  139.5164  190.0065 F   0  0  0  0  0  0  0  0  0  0  0  0
  156.2830  138.4265  191.0182 F   0  0  0  0  0  0  0  0  0  0  0  0
  154.4349  138.8636  192.1138 F   0  0  0  0  0  0  0  0  0  0  0  0
  156.6328  141.0522  182.9764 N   0  0  0  0  0  0  0  0  0  0  0  0
  156.4411  141.8236  181.7953 C   0  0  0  0  0  0  0  0  0  0  0  0
  157.7192  141.5329  181.0104 C   0  0  0  0  0  0  0  0  0  0  0  0
  158.7450  141.2491  182.0913 C   0  0  0  0  0  0  0  0  0  0  0  0
  158.0101  141.4550  183.3970 C   0  0  0  0  0  0  0  0  0  0  0  0
  152.7243  138.2110  183.4996 N   0  0  0  0  0  0  0  0  0  0  0  0
  152.4047  137.2922  184.0761 H   0  0  0  0  0  0  0  0  0  0  0  0
  149.9910  138.5403  180.2586 C   0  0  0  0  0  0  0  0  0  0  0  0
  149.6790  138.0408  181.5124 C   0  0  0  0  0  0  0  0  0  0  0  0
  150.5624  137.9986  182.5404 C   0  0  0  0  0  0  0  0  0  0  0  0
  151.9043  138.4754  182.4032 C   0  0  0  0  0  0  0  0  0  0  0  0
  152.2073  138.9703  181.1787 C   0  0  0  0  0  0  0  0  0  0  0  0
  151.2812  139.0112  180.1051 C   0  0  0  0  0  0  0  0  0  0  0  0
  147.7801  139.0941  179.6255 F   0  0  0  0  0  0  0  0  0  0  0  0
  148.9530  138.5043  179.2060 C   0  0  0  0  0  0  0  0  0  0  0  0
  148.6354  137.1752  178.8771 F   0  0  0  0  0  0  0  0  0  0  0  0
  149.3580  139.1274  178.0633 F   0  0  0  0  0  0  0  0  0  0  0  0
 35 36  1  0  0  0
 36 37  1  0  0  0
 36 38  1  0  0  0
 36 29  1  0  0  0
 29 30  2  0  0  0
 30 31  1  0  0  0
 31 32  2  0  0  0
 32 27  1  0  0  0
 27  1  1  0  0  0
  1  2  2  0  0  0
  2  3  1  0  0  0
  3  4  2  0  0  0
  4  5  1  0  0  0
  5  6  1  0  0  0
  6  7  1  0  0  0
  7  8  1  0  0  0
  8  9  1  0  0  0
  9 10  1  0  0  0
 10 11  1  0  0  0
  8 12  1  0  0  0
 12 13  2  0  0  0
 13 14  1  0  0  0
 14 15  2  0  0  0
 15 16  1  0  0  0
 16 17  2  0  0  0
 17 18  1  0  0  0
 18 19  1  0  0  0
 18 20  1  0  0  0
 18 21  1  0  0  0
  3 22  1  0  0  0
 22 23  1  0  0  0
 23 24  1  0  0  0
 24 25  1  0  0  0
 25 26  1  0  0  0
 32 33  1  0  0  0
 33 34  2  0  0  0
 34 29  1  0  0  0
 11  1  1  0  0  0
 17 12  1  0  0  0
 26 22  1  0  0  0
 11  5  2  0  0  0
 27 28  1  0  0  0
M  END
> <minimizedAffinity>
-9.06430

> <CNNscore>
0.4541022182

> <CNNaffinity>
6.8242120743

> <CNN_VS>
3.0988898277

> <CNNaffinity_variance>
0.0578848347

$$$$
[H]c1nc(N2C([H])([H])C([H])([H])c3nc(N4C([H])([H])C([H])([H])C([H])([H])C4([H])[H])nc(N([H])c4c([H])c([H])c(C(F)(F)F)c([H])c4[H])c3C([H])([H])C2([H])[H])c(C(F)(F)F)c([H])c1[H]


 38 42  0  0  0  0  0  0  0  0999 V2000
  154.6022  138.8990  184.2413 C   0  0  0  0  0  0  0  0  0  0  0  0
  153.4428  138.8564  183.6133 N   0  0  0  0  0  0  0  0  0  0  0  0
  153.1932  139.5935  182.4805 C   0  0  0  0  0  0  0  0  0  0  0  0
  154.1732  140.3875  181.9948 N   0  0  0  0  0  0  0  0  0  0  0  0
  155.4021  140.4917  182.5755 C   0  0  0  0  0  0  0  0  0  0  0  0
  156.1859  141.4425  181.8009 C   0  0  0  0  0  0  0  0  0  0  0  0
  157.4845  141.8880  182.3024 C   0  0  0  0  0  0  0  0  0  0  0  0
  157.7604  141.8799  183.7014 N   0  0  0  0  0  0  0  0  0  0  0  0
  157.0316  141.3273  184.7796 C   0  0  0  0  0  0  0  0  0  0  0  0
  156.8057  139.8041  184.5634 C   0  0  0  0  0  0  0  0  0  0  0  0
  155.5827  139.7489  183.6785 C   0  0  0  0  0  0  0  0  0  0  0  0
  158.9954  142.4829  184.1068 C   0  0  0  0  0  0  0  0  0  0  0  0
  159.6426  141.8257  185.1419 N   0  0  0  0  0  0  0  0  0  0  0  0
  160.8365  142.2734  185.5659 C   0  0  0  0  0  0  0  0  0  0  0  0
  161.4144  143.3735  184.9726 C   0  0  0  0  0  0  0  0  0  0  0  0
  160.7740  144.0091  183.9634 C   0  0  0  0  0  0  0  0  0  0  0  0
  159.5080  143.5593  183.4969 C   0  0  0  0  0  0  0  0  0  0  0  0
  158.9168  144.3575  182.4160 C   0  0  0  0  0  0  0  0  0  0  0  0
  157.6286  144.7387  182.7293 F   0  0  0  0  0  0  0  0  0  0  0  0
  158.9806  143.7941  181.1425 F   0  0  0  0  0  0  0  0  0  0  0  0
  159.6210  145.5683  182.2599 F   0  0  0  0  0  0  0  0  0  0  0  0
  151.9620  139.5356  181.8102 N   0  0  0  0  0  0  0  0  0  0  0  0
  150.7524  138.8091  181.9993 C   0  0  0  0  0  0  0  0  0  0  0  0
  150.5044  138.2297  180.6076 C   0  0  0  0  0  0  0  0  0  0  0  0
  151.1512  139.2406  179.6797 C   0  0  0  0  0  0  0  0  0  0  0  0
  151.6600  140.3393  180.5859 C   0  0  0  0  0  0  0  0  0  0  0  0
  155.0430  138.1279  185.2957 N   0  0  0  0  0  0  0  0  0  0  0  0
  155.5136  137.1310  185.0440 H   0  0  0  0  0  0  0  0  0  0  0  0
  154.9012  138.3020  189.5422 C   0  0  0  0  0  0  0  0  0  0  0  0
  156.0412  138.0530  188.7956 C   0  0  0  0  0  0  0  0  0  0  0  0
  156.0613  138.0565  187.4397 C   0  0  0  0  0  0  0  0  0  0  0  0
  154.8867  138.3226  186.6675 C   0  0  0  0  0  0  0  0  0  0  0  0
  153.7731  138.5730  187.3979 C   0  0  0  0  0  0  0  0  0  0  0  0
  153.7554  138.5666  188.8163 C   0  0  0  0  0  0  0  0  0  0  0  0
  154.9287  139.4917  191.5865 F   0  0  0  0  0  0  0  0  0  0  0  0
  154.9952  138.2387  191.0166 C   0  0  0  0  0  0  0  0  0  0  0  0
  156.2290  137.6889  191.4052 F   0  0  0  0  0  0  0  0  0  0  0  0
  154.0101  137.4702  191.5618 F   0  0  0  0  0  0  0  0  0  0  0  0
 35 36  1  0  0  0
 36 37  1  0  0  0
 36 38  1  0  0  0
 36 29  1  0  0  0
 29 30  2  0  0  0
 30 31  1  0  0  0
 31 32  2  0  0  0
 32 27  1  0  0  0
 27  1  1  0  0  0
  1  2  2  0  0  0
  2  3  1  0  0  0
  3  4  2  0  0  0
  4  5  1  0  0  0
  5  6  1  0  0  0
  6  7  1  0  0  0
  7  8  1  0  0  0
  8  9  1  0  0  0
  9 10  1  0  0  0
 10 11  1  0  0  0
  8 12  1  0  0  0
 12 13  2  0  0  0
 13 14  1  0  0  0
 14 15  2  0  0  0
 15 16  1  0  0  0
 16 17  2  0  0  0
 17 18  1  0  0  0
 18 19  1  0  0  0
 18 20  1  0  0  0
 18 21  1  0  0  0
  3 22  1  0  0  0
 22 23  1  0  0  0
 23 24  1  0  0  0
 24 25  1  0  0  0
 25 26  1  0  0  0
 32 33  1  0  0  0
 33 34  2  0  0  0
 34 29  1  0  0  0
 11  1  1  0  0  0
 17 12  1  0  0  0
 26 22  1  0  0  0
 11  5  2  0  0  0
 27 28  1  0  0  0
M  END
> <minimizedAffinity>
-11.30111

> <CNNscore>
0.4087522626

> <CNNaffinity>
7.3987131119

> <CNN_VS>
3.0242407322

> <CNNaffinity_variance>
0.0147541538

$$$$
[H]c1nc(N2C([H])([H])C([H])([H])c3nc(N4C([H])([H])C([H])([H])C([H])([H])C4([H])[H])nc(N([H])c4c([H])c([H])c(C(F)(F)F)c([H])c4[H])c3C([H])([H])C2([H])[H])c(C(F)(F)F)c([H])c1[H]


 38 42  0  0  0  0  0  0  0  0999 V2000
  154.9364  138.7780  184.3766 C   0  0  0  0  0  0  0  0  0  0  0  0
  154.1005  138.7596  183.3561 N   0  0  0  0  0  0  0  0  0  0  0  0
  152.8486  138.1986  183.4417 C   0  0  0  0  0  0  0  0  0  0  0  0
  152.4635  137.6491  184.6149 N   0  0  0  0  0  0  0  0  0  0  0  0
  153.2589  137.6256  185.7216 C   0  0  0  0  0  0  0  0  0  0  0  0
  152.5321  136.9443  186.7827 C   0  0  0  0  0  0  0  0  0  0  0  0
  153.2168  136.6117  188.0305 C   0  0  0  0  0  0  0  0  0  0  0  0
  154.6298  136.4205  188.0507 N   0  0  0  0  0  0  0  0  0  0  0  0
  155.6061  136.6697  187.0589 C   0  0  0  0  0  0  0  0  0  0  0  0
  155.5646  138.1587  186.6126 C   0  0  0  0  0  0  0  0  0  0  0  0
  154.4686  138.1873  185.5735 C   0  0  0  0  0  0  0  0  0  0  0  0
  155.1865  135.9416  189.2811 C   0  0  0  0  0  0  0  0  0  0  0  0
  155.1883  134.5614  189.4117 N   0  0  0  0  0  0  0  0  0  0  0  0
  155.7367  134.0006  190.5029 C   0  0  0  0  0  0  0  0  0  0  0  0
  156.2969  134.7917  191.4808 C   0  0  0  0  0  0  0  0  0  0  0  0
  156.2892  136.1386  191.3448 C   0  0  0  0  0  0  0  0  0  0  0  0
  155.7126  136.7590  190.2023 C   0  0  0  0  0  0  0  0  0  0  0  0
  155.7504  138.2265  190.1980 C   0  0  0  0  0  0  0  0  0  0  0  0
  156.0090  138.7191  191.4603 F   0  0  0  0  0  0  0  0  0  0  0  0
  154.6477  138.8591  189.6257 F   0  0  0  0  0  0  0  0  0  0  0  0
  156.8223  138.6864  189.4071 F   0  0  0  0  0  0  0  0  0  0  0  0
  151.9594  138.1920  182.3564 N   0  0  0  0  0  0  0  0  0  0  0  0
  152.0761  138.4692  180.9649 C   0  0  0  0  0  0  0  0  0  0  0  0
  150.9215  139.4425  180.7331 C   0  0  0  0  0  0  0  0  0  0  0  0
  149.9030  139.0448  181.7846 C   0  0  0  0  0  0  0  0  0  0  0  0
  150.5093  137.8527  182.4907 C   0  0  0  0  0  0  0  0  0  0  0  0
  156.1553  139.4131  184.4841 N   0  0  0  0  0  0  0  0  0  0  0  0
  156.5912  139.5197  185.5220 H   0  0  0  0  0  0  0  0  0  0  0  0
  157.9616  141.6249  181.3332 C   0  0  0  0  0  0  0  0  0  0  0  0
  156.9035  142.0687  182.1094 C   0  0  0  0  0  0  0  0  0  0  0  0
  156.3852  141.3582  183.1416 C   0  0  0  0  0  0  0  0  0  0  0  0
  156.9023  140.0766  183.5115 C   0  0  0  0  0  0  0  0  0  0  0  0
  157.9418  139.6456  182.7566 C   0  0  0  0  0  0  0  0  0  0  0  0
  158.4801  140.3906  181.6762 C   0  0  0  0  0  0  0  0  0  0  0  0
  157.8534  143.7295  180.2588 F   0  0  0  0  0  0  0  0  0  0  0  0
  158.4198  142.4739  180.2125 C   0  0  0  0  0  0  0  0  0  0  0  0
  158.0383  141.9095  178.9831 F   0  0  0  0  0  0  0  0  0  0  0  0
  159.7752  142.6185  180.1982 F   0  0  0  0  0  0  0  0  0  0  0  0
 35 36  1  0  0  0
 36 37  1  0  0  0
 36 38  1  0  0  0
 36 29  1  0  0  0
 29 30  2  0  0  0
 30 31  1  0  0  0
 31 32  2  0  0  0
 32 27  1  0  0  0
 27  1  1  0  0  0
  1  2  2  0  0  0
  2  3  1  0  0  0
  3  4  2  0  0  0
  4  5  1  0  0  0
  5  6  1  0  0  0
  6  7  1  0  0  0
  7  8  1  0  0  0
  8  9  1  0  0  0
  9 10  1  0  0  0
 10 11  1  0  0  0
  8 12  1  0  0  0
 12 13  2  0  0  0
 13 14  1  0  0  0
 14 15  2  0  0  0
 15 16  1  0  0  0
 16 17  2  0  0  0
 17 18  1  0  0  0
 18 19  1  0  0  0
 18 20  1  0  0  0
 18 21  1  0  0  0
  3 22  1  0  0  0
 22 23  1  0  0  0
 23 24  1  0  0  0
 24 25  1  0  0  0
 25 26  1  0  0  0
 32 33  1  0  0  0
 33 34  2  0  0  0
 34 29  1  0  0  0
 11  1  1  0  0  0
 17 12  1  0  0  0
 26 22  1  0  0  0
 11  5  2  0  0  0
 27 28  1  0  0  0
M  END
> <minimizedAffinity>
-9.68123

> <CNNscore>
0.3930997252

> <CNNaffinity>
6.8337225914

> <CNN_VS>
2.6863343716

> <CNNaffinity_variance>
0.0815072507

$$$$
[H]c1nc(N2C([H])([H])C([H])([H])c3nc(N4C([H])([H])C([H])([H])C([H])([H])C4([H])[H])nc(N([H])c4c([H])c([H])c(C(F)(F)F)c([H])c4[H])c3C([H])([H])C2([H])[H])c(C(F)(F)F)c([H])c1[H]


 38 42  0  0  0  0  0  0  0  0999 V2000
  155.3920  138.9083  185.1641 C   0  0  0  0  0  0  0  0  0  0  0  0
  156.6037  139.4014  184.9939 N   0  0  0  0  0  0  0  0  0  0  0  0
  156.8983  140.2991  183.9957 C   0  0  0  0  0  0  0  0  0  0  0  0
  155.9084  140.6892  183.1621 N   0  0  0  0  0  0  0  0  0  0  0  0
  154.6274  140.2350  183.2650 C   0  0  0  0  0  0  0  0  0  0  0  0
  153.8467  140.8472  182.2001 C   0  0  0  0  0  0  0  0  0  0  0  0
  152.4773  140.3978  181.9568 C   0  0  0  0  0  0  0  0  0  0  0  0
  152.0762  139.0766  182.3130 N   0  0  0  0  0  0  0  0  0  0  0  0
  152.7440  138.0844  183.0672 C   0  0  0  0  0  0  0  0  0  0  0  0
  153.1053  138.6226  184.4806 C   0  0  0  0  0  0  0  0  0  0  0  0
  154.4045  139.3602  184.2580 C   0  0  0  0  0  0  0  0  0  0  0  0
  150.7667  138.6768  181.8908 C   0  0  0  0  0  0  0  0  0  0  0  0
  150.0295  138.0119  182.8586 N   0  0  0  0  0  0  0  0  0  0  0  0
  148.7670  137.6390  182.5887 C   0  0  0  0  0  0  0  0  0  0  0  0
  148.2089  137.9204  181.3617 C   0  0  0  0  0  0  0  0  0  0  0  0
  148.9372  138.5690  180.4228 C   0  0  0  0  0  0  0  0  0  0  0  0
  150.2767  138.9721  180.6799 C   0  0  0  0  0  0  0  0  0  0  0  0
  150.9563  139.6422  179.5646 C   0  0  0  0  0  0  0  0  0  0  0  0
  152.2289  139.1404  179.3866 F   0  0  0  0  0  0  0  0  0  0  0  0
  150.9653  141.0355  179.6099 F   0  0  0  0  0  0  0  0  0  0  0  0
  150.2913  139.3711  178.3520 F   0  0  0  0  0  0  0  0  0  0  0  0
  158.1863  140.8290  183.8264 N   0  0  0  0  0  0  0  0  0  0  0  0
  159.3598  140.8840  184.6305 C   0  0  0  0  0  0  0  0  0  0  0  0
  159.7287  142.3649  184.5601 C   0  0  0  0  0  0  0  0  0  0  0  0
  159.1904  142.8030  183.2113 C   0  0  0  0  0  0  0  0  0  0  0  0
  158.6169  141.5496  182.5889 C   0  0  0  0  0  0  0  0  0  0  0  0
  154.9174  138.1149  186.1868 N   0  0  0  0  0  0  0  0  0  0  0  0
  153.7957  138.0584  186.3174 H   0  0  0  0  0  0  0  0  0  0  0  0
  156.6954  135.6826  189.1878 C   0  0  0  0  0  0  0  0  0  0  0  0
  156.2301  135.2233  187.9665 C   0  0  0  0  0  0  0  0  0  0  0  0
  155.7158  136.0356  187.0101 C   0  0  0  0  0  0  0  0  0  0  0  0
  155.6148  137.4506  187.1952 C   0  0  0  0  0  0  0  0  0  0  0  0
  156.0763  137.9005  188.3871 C   0  0  0  0  0  0  0  0  0  0  0  0
  156.6119  137.0477  189.3860 C   0  0  0  0  0  0  0  0  0  0  0  0
  156.4023  133.5779  190.2270 F   0  0  0  0  0  0  0  0  0  0  0  0
  157.2048  134.6967  190.1651 C   0  0  0  0  0  0  0  0  0  0  0  0
  157.2175  135.2500  191.4571 F   0  0  0  0  0  0  0  0  0  0  0  0
  158.4745  134.2944  189.8751 F   0  0  0  0  0  0  0  0  0  0  0  0
 35 36  1  0  0  0
 36 37  1  0  0  0
 36 38  1  0  0  0
 36 29  1  0  0  0
 29 30  2  0  0  0
 30 31  1  0  0  0
 31 32  2  0  0  0
 32 27  1  0  0  0
 27  1  1  0  0  0
  1  2  2  0  0  0
  2  3  1  0  0  0
  3  4  2  0  0  0
  4  5  1  0  0  0
  5  6  1  0  0  0
  6  7  1  0  0  0
  7  8  1  0  0  0
  8  9  1  0  0  0
  9 10  1  0  0  0
 10 11  1  0  0  0
  8 12  1  0  0  0
 12 13  2  0  0  0
 13 14  1  0  0  0
 14 15  2  0  0  0
 15 16  1  0  0  0
 16 17  2  0  0  0
 17 18  1  0  0  0
 18 19  1  0  0  0
 18 20  1  0  0  0
 18 21  1  0  0  0
  3 22  1  0  0  0
 22 23  1  0  0  0
 23 24  1  0  0  0
 24 25  1  0  0  0
 25 26  1  0  0  0
 32 33  1  0  0  0
 33 34  2  0  0  0
 34 29  1  0  0  0
 11  1  1  0  0  0
 17 12  1  0  0  0
 26 22  1  0  0  0
 11  5  2  0  0  0
 27 28  1  0  0  0
M  END
> <minimizedAffinity>
-9.11597

> <CNNscore>
0.3740715384

> <CNNaffinity>
6.6694421768

> <CNN_VS>
2.4948484898

> <CNNaffinity_variance>
0.0882513151

$$$$
[H]c1nc(N2C([H])([H])C([H])([H])c3nc(N4C([H])([H])C([H])([H])C([H])([H])C4([H])[H])nc(N([H])c4c([H])c([H])c(C(F)(F)F)c([H])c4[H])c3C([H])([H])C2([H])[H])c(C(F)(F)F)c([H])c1[H]


 38 42  0  0  0  0  0  0  0  0999 V2000
  152.4525  137.0517  184.9665 C   0  0  0  0  0  0  0  0  0  0  0  0
  151.1859  136.6874  184.9080 N   0  0  0  0  0  0  0  0  0  0  0  0
  150.3466  137.1059  183.9033 C   0  0  0  0  0  0  0  0  0  0  0  0
  150.8405  137.9179  182.9422 N   0  0  0  0  0  0  0  0  0  0  0  0
  152.1358  138.3419  182.9205 C   0  0  0  0  0  0  0  0  0  0  0  0
  152.3051  139.2095  181.7642 C   0  0  0  0  0  0  0  0  0  0  0  0
  153.5506  139.9556  181.5956 C   0  0  0  0  0  0  0  0  0  0  0  0
  154.3447  140.3016  182.7284 N   0  0  0  0  0  0  0  0  0  0  0  0
  154.2486  139.8932  184.0786 C   0  0  0  0  0  0  0  0  0  0  0  0
  154.3240  138.3438  184.1879 C   0  0  0  0  0  0  0  0  0  0  0  0
  152.9034  137.9004  183.9288 C   0  0  0  0  0  0  0  0  0  0  0  0
  155.4588  141.1678  182.4800 C   0  0  0  0  0  0  0  0  0  0  0  0
  156.6406  140.5100  182.1751 N   0  0  0  0  0  0  0  0  0  0  0  0
  157.7366  141.2254  181.8709 C   0  0  0  0  0  0  0  0  0  0  0  0
  157.6839  142.6013  181.8572 C   0  0  0  0  0  0  0  0  0  0  0  0
  156.5256  143.2345  182.1575 C   0  0  0  0  0  0  0  0  0  0  0  0
  155.3514  142.5026  182.4866 C   0  0  0  0  0  0  0  0  0  0  0  0
  154.1752  143.3168  182.8161 C   0  0  0  0  0  0  0  0  0  0  0  0
  154.1988  144.5182  182.1385 F   0  0  0  0  0  0  0  0  0  0  0  0
  153.9331  143.5091  184.1755 F   0  0  0  0  0  0  0  0  0  0  0  0
  152.9988  142.6790  182.3741 F   0  0  0  0  0  0  0  0  0  0  0  0
  149.0033  136.7061  183.8397 N   0  0  0  0  0  0  0  0  0  0  0  0
  148.2314  135.9312  182.9284 C   0  0  0  0  0  0  0  0  0  0  0  0
  147.0272  136.8367  182.6759 C   0  0  0  0  0  0  0  0  0  0  0  0
  146.9030  137.6320  183.9617 C   0  0  0  0  0  0  0  0  0  0  0  0
  147.9871  137.0910  184.8669 C   0  0  0  0  0  0  0  0  0  0  0  0
  153.4393  136.6135  185.8238 N   0  0  0  0  0  0  0  0  0  0  0  0
  153.8459  135.5724  185.6526 H   0  0  0  0  0  0  0  0  0  0  0  0
  155.1424  137.9373  189.4885 C   0  0  0  0  0  0  0  0  0  0  0  0
  155.7021  136.9864  188.6508 C   0  0  0  0  0  0  0  0  0  0  0  0
  155.1579  136.6253  187.4624 C   0  0  0  0  0  0  0  0  0  0  0  0
  153.9454  137.2102  186.9780 C   0  0  0  0  0  0  0  0  0  0  0  0
  153.4017  138.1452  187.7942 C   0  0  0  0  0  0  0  0  0  0  0  0
  153.9727  138.5191  189.0377 C   0  0  0  0  0  0  0  0  0  0  0  0
  155.6032  137.2178  191.6943 F   0  0  0  0  0  0  0  0  0  0  0  0
  155.8104  138.2245  190.7761 C   0  0  0  0  0  0  0  0  0  0  0  0
  155.2889  139.3982  191.3469 F   0  0  0  0  0  0  0  0  0  0  0  0
  157.1547  138.3976  190.6302 F   0  0  0  0  0  0  0  0  0  0  0  0
 35 36  1  0  0  0
 36 37  1  0  0  0
 36 38  1  0  0  0
 36 29  1  0  0  0
 29 30  2  0  0  0
 30 31  1  0  0  0
 31 32  2  0  0  0
 32 27  1  0  0  0
 27  1  1  0  0  0
  1  2  2  0  0  0
  2  3  1  0  0  0
  3  4  2  0  0  0
  4  5  1  0  0  0
  5  6  1  0  0  0
  6  7  1  0  0  0
  7  8  1  0  0  0
  8  9  1  0  0  0
  9 10  1  0  0  0
 10 11  1  0  0  0
  8 12  1  0  0  0
 12 13  2  0  0  0
 13 14  1  0  0  0
 14 15  2  0  0  0
 15 16  1  0  0  0
 16 17  2  0  0  0
 17 18  1  0  0  0
 18 19  1  0  0  0
 18 20  1  0  0  0
 18 21  1  0  0  0
  3 22  1  0  0  0
 22 23  1  0  0  0
 23 24  1  0  0  0
 24 25  1  0  0  0
 25 26  1  0  0  0
 32 33  1  0  0  0
 33 34  2  0  0  0
 34 29  1  0  0  0
 11  1  1  0  0  0
 17 12  1  0  0  0
 26 22  1  0  0  0
 11  5  2  0  0  0
 27 28  1  0  0  0
M  END
> <minimizedAffinity>
-9.05738

> <CNNscore>
0.3556881845

> <CNNaffinity>
6.7573232651

> <CNN_VS>
2.4035000801

> <CNNaffinity_variance>
0.1689216644

$$$$
[H]c1nc(N2C([H])([H])C([H])([H])c3nc(N4C([H])([H])C([H])([H])C([H])([H])C4([H])[H])nc(N([H])c4c([H])c([H])c(C(F)(F)F)c([H])c4[H])c3C([H])([H])C2([H])[H])c(C(F)(F)F)c([H])c1[H]


 38 42  0  0  0  0  0  0  0  0999 V2000
  155.2035  138.7607  184.4873 C   0  0  0  0  0  0  0  0  0  0  0  0
  156.3994  139.2803  184.2865 N   0  0  0  0  0  0  0  0  0  0  0  0
  156.6146  140.3086  183.4003 C   0  0  0  0  0  0  0  0  0  0  0  0
  155.5609  140.8035  182.7136 N   0  0  0  0  0  0  0  0  0  0  0  0
  154.2905  140.3313  182.8591 C   0  0  0  0  0  0  0  0  0  0  0  0
  153.4271  141.0793  181.9571 C   0  0  0  0  0  0  0  0  0  0  0  0
  152.0399  140.6590  181.7690 C   0  0  0  0  0  0  0  0  0  0  0  0
  151.6630  139.2988  181.9720 N   0  0  0  0  0  0  0  0  0  0  0  0
  152.3860  138.2165  182.5243 C   0  0  0  0  0  0  0  0  0  0  0  0
  152.8664  138.5573  183.9634 C   0  0  0  0  0  0  0  0  0  0  0  0
  154.1464  139.3268  183.7372 C   0  0  0  0  0  0  0  0  0  0  0  0
  150.3208  138.9526  181.6090 C   0  0  0  0  0  0  0  0  0  0  0  0
  149.5397  138.5012  182.6618 N   0  0  0  0  0  0  0  0  0  0  0  0
  148.2480  138.2000  182.4456 C   0  0  0  0  0  0  0  0  0  0  0  0
  147.7041  138.3440  181.1889 C   0  0  0  0  0  0  0  0  0  0  0  0
  148.4752  138.7844  180.1671 C   0  0  0  0  0  0  0  0  0  0  0  0
  149.8460  139.1070  180.3664 C   0  0  0  0  0  0  0  0  0  0  0  0
  150.5688  139.5468  179.1668 C   0  0  0  0  0  0  0  0  0  0  0  0
  149.9016  139.1689  178.0200 F   0  0  0  0  0  0  0  0  0  0  0  0
  151.9156  139.1918  179.1070 F   0  0  0  0  0  0  0  0  0  0  0  0
  150.6116  140.9543  179.1093 F   0  0  0  0  0  0  0  0  0  0  0  0
  157.8867  140.8649  183.1992 N   0  0  0  0  0  0  0  0  0  0  0  0
  159.1830  140.3337  182.9458 C   0  0  0  0  0  0  0  0  0  0  0  0
  160.0346  141.0506  183.9920 C   0  0  0  0  0  0  0  0  0  0  0  0
  159.3094  142.3664  184.2017 C   0  0  0  0  0  0  0  0  0  0  0  0
  158.1491  142.3367  183.2319 C   0  0  0  0  0  0  0  0  0  0  0  0
  154.8116  137.8311  185.4268 N   0  0  0  0  0  0  0  0  0  0  0  0
  154.1327  136.9979  185.0757 H   0  0  0  0  0  0  0  0  0  0  0  0
  155.0999  138.2122  189.6524 C   0  0  0  0  0  0  0  0  0  0  0  0
  153.9318  138.3508  188.9208 C   0  0  0  0  0  0  0  0  0  0  0  0
  153.8658  138.1708  187.5783 C   0  0  0  0  0  0  0  0  0  0  0  0
  155.0172  137.8180  186.8060 C   0  0  0  0  0  0  0  0  0  0  0  0
  156.1584  137.6757  187.5226 C   0  0  0  0  0  0  0  0  0  0  0  0
  156.2242  137.8667  188.9267 C   0  0  0  0  0  0  0  0  0  0  0  0
  155.0149  139.8142  191.3907 F   0  0  0  0  0  0  0  0  0  0  0  0
  155.0552  138.4658  191.1085 C   0  0  0  0  0  0  0  0  0  0  0  0
  156.2120  137.9631  191.7286 F   0  0  0  0  0  0  0  0  0  0  0  0
  153.9788  137.8746  191.7002 F   0  0  0  0  0  0  0  0  0  0  0  0
 35 36  1  0  0  0
 36 37  1  0  0  0
 36 38  1  0  0  0
 36 29  1  0  0  0
 29 30  2  0  0  0
 30 31  1  0  0  0
 31 32  2  0  0  0
 32 27  1  0  0  0
 27  1  1  0  0  0
  1  2  2  0  0  0
  2  3  1  0  0  0
  3  4  2  0  0  0
  4  5  1  0  0  0
  5  6  1  0  0  0
  6  7  1  0  0  0
  7  8  1  0  0  0
  8  9  1  0  0  0
  9 10  1  0  0  0
 10 11  1  0  0  0
  8 12  1  0  0  0
 12 13  2  0  0  0
 13 14  1  0  0  0
 14 15  2  0  0  0
 15 16  1  0  0  0
 16 17  2  0  0  0
 17 18  1  0  0  0
 18 19  1  0  0  0
 18 20  1  0  0  0
 18 21  1  0  0  0
  3 22  1  0  0  0
 22 23  1  0  0  0
 23 24  1  0  0  0
 24 25  1  0  0  0
 25 26  1  0  0  0
 32 33  1  0  0  0
 33 34  2  0  0  0
 34 29  1  0  0  0
 11  1  1  0  0  0
 17 12  1  0  0  0
 26 22  1  0  0  0
 11  5  2  0  0  0
 27 28  1  0  0  0
M  END
> <minimizedAffinity>
-10.35436

> <CNNscore>
0.3390641212

> <CNNaffinity>
6.7973976135

> <CNN_VS>
2.3047535419

> <CNNaffinity_variance>
0.0618947148

$$$$
[H]c1nc(N2C([H])([H])C([H])([H])c3nc(N4C([H])([H])C([H])([H])C([H])([H])C4([H])[H])nc(N([H])c4c([H])c([H])c(C(F)(F)F)c([H])c4[H])c3C([H])([H])C2([H])[H])c(C(F)(F)F)c([H])c1[H]


 38 42  0  0  0  0  0  0  0  0999 V2000
  154.0408  139.4600  184.3450 C   0  0  0  0  0  0  0  0  0  0  0  0
  154.6449  138.8843  185.3668 N   0  0  0  0  0  0  0  0  0  0  0  0
  154.6419  137.5222  185.5500 C   0  0  0  0  0  0  0  0  0  0  0  0
  153.9977  136.7484  184.6484 N   0  0  0  0  0  0  0  0  0  0  0  0
  153.3498  137.2554  183.5615 C   0  0  0  0  0  0  0  0  0  0  0  0
  152.7604  136.1433  182.8306 C   0  0  0  0  0  0  0  0  0  0  0  0
  151.8495  136.4098  181.7190 C   0  0  0  0  0  0  0  0  0  0  0  0
  151.1026  137.6236  181.6718 N   0  0  0  0  0  0  0  0  0  0  0  0
  151.1949  138.7919  182.4627 C   0  0  0  0  0  0  0  0  0  0  0  0
  152.6317  139.3832  182.3990 C   0  0  0  0  0  0  0  0  0  0  0  0
  153.3877  138.5913  183.4397 C   0  0  0  0  0  0  0  0  0  0  0  0
  150.1211  137.7231  180.6326 C   0  0  0  0  0  0  0  0  0  0  0  0
  149.1154  136.7712  180.6997 N   0  0  0  0  0  0  0  0  0  0  0  0
  148.1120  136.8046  179.8065 C   0  0  0  0  0  0  0  0  0  0  0  0
  148.0812  137.7805  178.8355 C   0  0  0  0  0  0  0  0  0  0  0  0
  149.0685  138.7049  178.7775 C   0  0  0  0  0  0  0  0  0  0  0  0
  150.1443  138.6913  179.7076 C   0  0  0  0  0  0  0  0  0  0  0  0
  151.1575  139.7353  179.5117 C   0  0  0  0  0  0  0  0  0  0  0  0
  152.4200  139.1881  179.4133 F   0  0  0  0  0  0  0  0  0  0  0  0
  151.1324  140.7837  180.4303 F   0  0  0  0  0  0  0  0  0  0  0  0
  150.9538  140.3905  178.2808 F   0  0  0  0  0  0  0  0  0  0  0  0
  155.2958  136.9145  186.6324 N   0  0  0  0  0  0  0  0  0  0  0  0
  155.3427  135.5930  187.1598 C   0  0  0  0  0  0  0  0  0  0  0  0
  155.0529  135.8275  188.6413 C   0  0  0  0  0  0  0  0  0  0  0  0
  155.5829  137.2266  188.8915 C   0  0  0  0  0  0  0  0  0  0  0  0
  156.1845  137.6624  187.5741 C   0  0  0  0  0  0  0  0  0  0  0  0
  154.0688  140.7827  183.9576 N   0  0  0  0  0  0  0  0  0  0  0  0
  153.1098  141.3720  184.0658 H   0  0  0  0  0  0  0  0  0  0  0  0
  157.4936  142.6722  182.2891 C   0  0  0  0  0  0  0  0  0  0  0  0
  157.3748  141.3130  182.5292 C   0  0  0  0  0  0  0  0  0  0  0  0
  156.2475  140.7362  183.0142 C   0  0  0  0  0  0  0  0  0  0  0  0
  155.0779  141.5020  183.3182 C   0  0  0  0  0  0  0  0  0  0  0  0
  155.1919  142.8305  183.0769 C   0  0  0  0  0  0  0  0  0  0  0  0
  156.3734  143.4308  182.5713 C   0  0  0  0  0  0  0  0  0  0  0  0
  159.5330  142.2021  181.1867 F   0  0  0  0  0  0  0  0  0  0  0  0
  158.7853  143.1905  181.7896 C   0  0  0  0  0  0  0  0  0  0  0  0
  159.5598  143.6829  182.8541 F   0  0  0  0  0  0  0  0  0  0  0  0
  158.6202  144.2053  180.8945 F   0  0  0  0  0  0  0  0  0  0  0  0
 35 36  1  0  0  0
 36 37  1  0  0  0
 36 38  1  0  0  0
 36 29  1  0  0  0
 29 30  2  0  0  0
 30 31  1  0  0  0
 31 32  2  0  0  0
 32 27  1  0  0  0
 27  1  1  0  0  0
  1  2  2  0  0  0
  2  3  1  0  0  0
  3  4  2  0  0  0
  4  5  1  0  0  0
  5  6  1  0  0  0
  6  7  1  0  0  0
  7  8  1  0  0  0
  8  9  1  0  0  0
  9 10  1  0  0  0
 10 11  1  0  0  0
  8 12  1  0  0  0
 12 13  2  0  0  0
 13 14  1  0  0  0
 14 15  2  0  0  0
 15 16  1  0  0  0
 16 17  2  0  0  0
 17 18  1  0  0  0
 18 19  1  0  0  0
 18 20  1  0  0  0
 18 21  1  0  0  0
  3 22  1  0  0  0
 22 23  1  0  0  0
 23 24  1  0  0  0
 24 25  1  0  0  0
 25 26  1  0  0  0
 32 33  1  0  0  0
 33 34  2  0  0  0
 34 29  1  0  0  0
 11  1  1  0  0  0
 17 12  1  0  0  0
 26 22  1  0  0  0
 11  5  2  0  0  0
 27 28  1  0  0  0
M  END
> <minimizedAffinity>
-9.33002

> <CNNscore>
0.3345450163

> <CNNaffinity>
6.8217668533

> <CNN_VS>
2.2821881771

> <CNNaffinity_variance>
0.1231931075

$$$$
[H]c1nc(N2C([H])([H])C([H])([H])c3nc(N4C([H])([H])C([H])([H])C([H])([H])C4([H])[H])nc(N([H])c4c([H])c([H])c(C(F)(F)F)c([H])c4[H])c3C([H])([H])C2([H])[H])c(C(F)(F)F)c([H])c1[H]


 38 42  0  0  0  0  0  0  0  0999 V2000
  155.3898  138.9033  184.4248 C   0  0  0  0  0  0  0  0  0  0  0  0
  156.5768  139.4108  184.1528 N   0  0  0  0  0  0  0  0  0  0  0  0
  156.7578  140.3899  183.2054 C   0  0  0  0  0  0  0  0  0  0  0  0
  155.6790  140.8477  182.5321 N   0  0  0  0  0  0  0  0  0  0  0  0
  154.4155  140.3846  182.7491 C   0  0  0  0  0  0  0  0  0  0  0  0
  153.5186  141.0834  181.8405 C   0  0  0  0  0  0  0  0  0  0  0  0
  152.1261  140.6543  181.7260 C   0  0  0  0  0  0  0  0  0  0  0  0
  151.7589  139.3072  182.0155 N   0  0  0  0  0  0  0  0  0  0  0  0
  152.5032  138.2557  182.5982 C   0  0  0  0  0  0  0  0  0  0  0  0
  153.0354  138.6732  183.9984 C   0  0  0  0  0  0  0  0  0  0  0  0
  154.3051  139.4288  183.6846 C   0  0  0  0  0  0  0  0  0  0  0  0
  150.4048  138.9426  181.7209 C   0  0  0  0  0  0  0  0  0  0  0  0
  149.6825  138.4868  182.8130 N   0  0  0  0  0  0  0  0  0  0  0  0
  148.3857  138.1685  182.6625 C   0  0  0  0  0  0  0  0  0  0  0  0
  147.7784  138.2996  181.4336 C   0  0  0  0  0  0  0  0  0  0  0  0
  148.4924  138.7444  180.3729 C   0  0  0  0  0  0  0  0  0  0  0  0
  149.8672  139.0850  180.5027 C   0  0  0  0  0  0  0  0  0  0  0  0
  150.5242  139.5277  179.2668 C   0  0  0  0  0  0  0  0  0  0  0  0
  149.7808  139.1790  178.1583 F   0  0  0  0  0  0  0  0  0  0  0  0
  151.8575  139.1477  179.1200 F   0  0  0  0  0  0  0  0  0  0  0  0
  150.5917  140.9348  179.2251 F   0  0  0  0  0  0  0  0  0  0  0  0
  158.0210  140.9340  182.9283 N   0  0  0  0  0  0  0  0  0  0  0  0
  158.8967  141.8281  183.6069 C   0  0  0  0  0  0  0  0  0  0  0  0
  159.2258  142.8458  182.5160 C   0  0  0  0  0  0  0  0  0  0  0  0
  159.1047  142.0454  181.2331 C   0  0  0  0  0  0  0  0  0  0  0  0
  158.7819  140.6358  181.6760 C   0  0  0  0  0  0  0  0  0  0  0  0
  155.0338  138.0258  185.4267 N   0  0  0  0  0  0  0  0  0  0  0  0
  154.6984  136.9928  185.1120 H   0  0  0  0  0  0  0  0  0  0  0  0
  154.9670  138.3021  189.6696 C   0  0  0  0  0  0  0  0  0  0  0  0
  156.1038  138.0956  188.9054 C   0  0  0  0  0  0  0  0  0  0  0  0
  156.0968  138.0650  187.5497 C   0  0  0  0  0  0  0  0  0  0  0  0
  154.8943  138.2473  186.7963 C   0  0  0  0  0  0  0  0  0  0  0  0
  153.7835  138.4561  187.5437 C   0  0  0  0  0  0  0  0  0  0  0  0
  153.7943  138.4856  188.9618 C   0  0  0  0  0  0  0  0  0  0  0  0
  154.1218  137.4994  191.7280 F   0  0  0  0  0  0  0  0  0  0  0  0
  155.0935  138.2822  191.1428 C   0  0  0  0  0  0  0  0  0  0  0  0
  154.9308  139.5768  191.6655 F   0  0  0  0  0  0  0  0  0  0  0  0
  156.3114  137.8230  191.5478 F   0  0  0  0  0  0  0  0  0  0  0  0
 35 36  1  0  0  0
 36 37  1  0  0  0
 36 38  1  0  0  0
 36 29  1  0  0  0
 29 30  2  0  0  0
 30 31  1  0  0  0
 31 32  2  0  0  0
 32 27  1  0  0  0
 27  1  1  0  0  0
  1  2  2  0  0  0
  2  3  1  0  0  0
  3  4  2  0  0  0
  4  5  1  0  0  0
  5  6  1  0  0  0
  6  7  1  0  0  0
  7  8  1  0  0  0
  8  9  1  0  0  0
  9 10  1  0  0  0
 10 11  1  0  0  0
  8 12  1  0  0  0
 12 13  2  0  0  0
 13 14  1  0  0  0
 14 15  2  0  0  0
 15 16  1  0  0  0
 16 17  2  0  0  0
 17 18  1  0  0  0
 18 19  1  0  0  0
 18 20  1  0  0  0
 18 21  1  0  0  0
  3 22  1  0  0  0
 22 23  1  0  0  0
 23 24  1  0  0  0
 24 25  1  0  0  0
 25 26  1  0  0  0
 32 33  1  0  0  0
 33 34  2  0  0  0
 34 29  1  0  0  0
 11  1  1  0  0  0
 17 12  1  0  0  0
 26 22  1  0  0  0
 11  5  2  0  0  0
 27 28  1  0  0  0
M  END
> <minimizedAffinity>
-10.64993

> <CNNscore>
0.3158906400

> <CNNaffinity>
6.8435554504

> <CNN_VS>
2.1618151665

> <CNNaffinity_variance>
0.0945813879

$$$$
[H]c1nc(N2C([H])([H])C([H])([H])c3nc(N4C([H])([H])C([H])([H])C([H])([H])C4([H])[H])nc(N([H])c4c([H])c([H])c(C(F)(F)F)c([H])c4[H])c3C([H])([H])C2([H])[H])c(C(F)(F)F)c([H])c1[H]


 38 42  0  0  0  0  0  0  0  0999 V2000
  153.0955  139.2436  182.5666 C   0  0  0  0  0  0  0  0  0  0  0  0
  152.8138  138.0196  182.9702 N   0  0  0  0  0  0  0  0  0  0  0  0
  153.5713  137.3633  183.9107 C   0  0  0  0  0  0  0  0  0  0  0  0
  154.6407  137.9985  184.4397 N   0  0  0  0  0  0  0  0  0  0  0  0
  155.0045  139.2635  184.0852 C   0  0  0  0  0  0  0  0  0  0  0  0
  156.2023  139.6130  184.8346 C   0  0  0  0  0  0  0  0  0  0  0  0
  156.9201  140.8461  184.5173 C   0  0  0  0  0  0  0  0  0  0  0  0
  156.8415  141.4123  183.2109 N   0  0  0  0  0  0  0  0  0  0  0  0
  156.0091  141.0862  182.1154 C   0  0  0  0  0  0  0  0  0  0  0  0
  154.5106  141.1860  182.5186 C   0  0  0  0  0  0  0  0  0  0  0  0
  154.2265  139.8492  183.1620 C   0  0  0  0  0  0  0  0  0  0  0  0
  157.7034  142.5270  182.9509 C   0  0  0  0  0  0  0  0  0  0  0  0
  157.0448  143.6839  182.5637 N   0  0  0  0  0  0  0  0  0  0  0  0
  157.7511  144.8064  182.3468 C   0  0  0  0  0  0  0  0  0  0  0  0
  159.1179  144.8078  182.5132 C   0  0  0  0  0  0  0  0  0  0  0  0
  159.7521  143.6727  182.8904 C   0  0  0  0  0  0  0  0  0  0  0  0
  159.0303  142.4697  183.1232 C   0  0  0  0  0  0  0  0  0  0  0  0
  159.8471  141.3099  183.5010 C   0  0  0  0  0  0  0  0  0  0  0  0
  159.5300  140.2092  182.7323 F   0  0  0  0  0  0  0  0  0  0  0  0
  159.8560  140.9916  184.8582 F   0  0  0  0  0  0  0  0  0  0  0  0
  161.2070  141.5587  183.2272 F   0  0  0  0  0  0  0  0  0  0  0  0
  153.2605  136.0658  184.3446 N   0  0  0  0  0  0  0  0  0  0  0  0
  153.2277  134.7842  183.7256 C   0  0  0  0  0  0  0  0  0  0  0  0
  151.8464  134.2690  184.1261 C   0  0  0  0  0  0  0  0  0  0  0  0
  151.5800  134.9556  185.4523 C   0  0  0  0  0  0  0  0  0  0  0  0
  152.8321  135.7528  185.7426 C   0  0  0  0  0  0  0  0  0  0  0  0
  152.3637  140.0719  181.7426 N   0  0  0  0  0  0  0  0  0  0  0  0
  152.5258  141.1853  181.8553 H   0  0  0  0  0  0  0  0  0  0  0  0
  149.1608  138.6704  179.3217 C   0  0  0  0  0  0  0  0  0  0  0  0
  149.2161  138.5680  180.7021 C   0  0  0  0  0  0  0  0  0  0  0  0
  150.2296  139.0731  181.4483 C   0  0  0  0  0  0  0  0  0  0  0  0
  151.3346  139.7610  180.8545 C   0  0  0  0  0  0  0  0  0  0  0  0
  151.2769  139.8672  179.5049 C   0  0  0  0  0  0  0  0  0  0  0  0
  150.2162  139.3359  178.7273 C   0  0  0  0  0  0  0  0  0  0  0  0
  146.8124  138.5252  179.0778 F   0  0  0  0  0  0  0  0  0  0  0  0
  148.0202  138.0511  178.6131 C   0  0  0  0  0  0  0  0  0  0  0  0
  148.0101  136.6613  178.8226 F   0  0  0  0  0  0  0  0  0  0  0  0
  148.0729  138.2661  177.2680 F   0  0  0  0  0  0  0  0  0  0  0  0
 35 36  1  0  0  0
 36 37  1  0  0  0
 36 38  1  0  0  0
 36 29  1  0  0  0
 29 30  2  0  0  0
 30 31  1  0  0  0
 31 32  2  0  0  0
 32 27  1  0  0  0
 27  1  1  0  0  0
  1  2  2  0  0  0
  2  3  1  0  0  0
  3  4  2  0  0  0
  4  5  1  0  0  0
  5  6  1  0  0  0
  6  7  1  0  0  0
  7  8  1  0  0  0
  8  9  1  0  0  0
  9 10  1  0  0  0
 10 11  1  0  0  0
  8 12  1  0  0  0
 12 13  2  0  0  0
 13 14  1  0  0  0
 14 15  2  0  0  0
 15 16  1  0  0  0
 16 17  2  0  0  0
 17 18  1  0  0  0
 18 19  1  0  0  0
 18 20  1  0  0  0
 18 21  1  0  0  0
  3 22  1  0  0  0
 22 23  1  0  0  0
 23 24  1  0  0  0
 24 25  1  0  0  0
 25 26  1  0  0  0
 32 33  1  0  0  0
 33 34  2  0  0  0
 34 29  1  0  0  0
 11  1  1  0  0  0
 17 12  1  0  0  0
 26 22  1  0  0  0
 11  5  2  0  0  0
 27 28  1  0  0  0
M  END
> <minimizedAffinity>
-9.59919

> <CNNscore>
0.3122031987

> <CNNaffinity>
6.8517446518

> <CNN_VS>
2.1391365528

> <CNNaffinity_variance>
0.1583532244

$$$$
[H]c1nc(N2C([H])([H])C([H])([H])c3nc(N4C([H])([H])C([H])([H])C([H])([H])C([H])([H])C4([H])[H])nc(N([H])c4nc([H])c(C(F)(F)F)c([H])c4[H])c3C([H])([H])C2([H])[H])c(C(F)(F)F)c([H])c1[H]


 39 43  0  0  0  0  0  0  0  0999 V2000
  154.5965  138.5443  184.1829 C   0  0  0  0  0  0  0  0  0  0  0  0
  153.4684  138.2934  183.5256 N   0  0  0  0  0  0  0  0  0  0  0  0
  152.9807  139.1552  182.5868 C   0  0  0  0  0  0  0  0  0  0  0  0
  153.6201  140.3090  182.2601 N   0  0  0  0  0  0  0  0  0  0  0  0
  154.7625  140.5993  182.8839 C   0  0  0  0  0  0  0  0  0  0  0  0
  155.3911  141.8603  182.3469 C   0  0  0  0  0  0  0  0  0  0  0  0
  156.7635  141.4402  181.8232 C   0  0  0  0  0  0  0  0  0  0  0  0
  157.6440  141.0770  182.8897 N   0  0  0  0  0  0  0  0  0  0  0  0
  157.7068  139.8340  183.6364 C   0  0  0  0  0  0  0  0  0  0  0  0
  156.4880  139.8036  184.6100 C   0  0  0  0  0  0  0  0  0  0  0  0
  155.2388  139.7401  183.8299 C   0  0  0  0  0  0  0  0  0  0  0  0
  158.5802  142.0499  183.3121 C   0  0  0  0  0  0  0  0  0  0  0  0
  158.9413  142.0637  184.6539 N   0  0  0  0  0  0  0  0  0  0  0  0
  159.8005  142.9413  185.1583 C   0  0  0  0  0  0  0  0  0  0  0  0
  160.3301  143.8657  184.2890 C   0  0  0  0  0  0  0  0  0  0  0  0
  159.9907  143.8785  182.9593 C   0  0  0  0  0  0  0  0  0  0  0  0
  159.0943  142.9548  182.4245 C   0  0  0  0  0  0  0  0  0  0  0  0
  158.7894  142.9752  181.0006 C   0  0  0  0  0  0  0  0  0  0  0  0
  157.5796  143.4763  180.6381 F   0  0  0  0  0  0  0  0  0  0  0  0
  159.0452  141.8016  180.3087 F   0  0  0  0  0  0  0  0  0  0  0  0
  159.7161  143.8851  180.3961 F   0  0  0  0  0  0  0  0  0  0  0  0
  151.6819  139.0266  181.9789 N   0  0  0  0  0  0  0  0  0  0  0  0
  151.4663  139.8253  180.7727 C   0  0  0  0  0  0  0  0  0  0  0  0
  150.2145  139.3550  180.0695 C   0  0  0  0  0  0  0  0  0  0  0  0
  149.0233  139.3995  181.0145 C   0  0  0  0  0  0  0  0  0  0  0  0
  149.2574  138.6209  182.2586 C   0  0  0  0  0  0  0  0  0  0  0  0
  150.6613  138.1773  182.4619 C   0  0  0  0  0  0  0  0  0  0  0  0
  154.9892  137.8258  185.3110 N   0  0  0  0  0  0  0  0  0  0  0  0
  155.5125  136.8948  185.0483 H   0  0  0  0  0  0  0  0  0  0  0  0
  154.9415  138.2809  189.4646 C   0  0  0  0  0  0  0  0  0  0  0  0
  153.8022  138.5673  188.7299 C   0  0  0  0  0  0  0  0  0  0  0  0
  153.7961  138.4692  187.3557 C   0  0  0  0  0  0  0  0  0  0  0  0
  154.9284  138.0744  186.6774 C   0  0  0  0  0  0  0  0  0  0  0  0
  156.0390  137.8105  187.4335 N   0  0  0  0  0  0  0  0  0  0  0  0
  156.0739  137.9025  188.7680 C   0  0  0  0  0  0  0  0  0  0  0  0
  154.9296  139.6572  191.3618 F   0  0  0  0  0  0  0  0  0  0  0  0
  154.9750  138.3370  190.9320 C   0  0  0  0  0  0  0  0  0  0  0  0
  154.0107  137.6216  191.5518 F   0  0  0  0  0  0  0  0  0  0  0  0
  156.2477  137.8758  191.2934 F   0  0  0  0  0  0  0  0  0  0  0  0
 36 37  1  0  0  0
 37 38  1  0  0  0
 37 39  1  0  0  0
 37 30  1  0  0  0
 30 31  2  0  0  0
 31 32  1  0  0  0
 32 33  2  0  0  0
 33 28  1  0  0  0
 28  1  1  0  0  0
  1  2  2  0  0  0
  2  3  1  0  0  0
  3  4  2  0  0  0
  4  5  1  0  0  0
  5  6  1  0  0  0
  6  7  1  0  0  0
  7  8  1  0  0  0
  8  9  1  0  0  0
  9 10  1  0  0  0
 10 11  1  0  0  0
  8 12  1  0  0  0
 12 13  2  0  0  0
 13 14  1  0  0  0
 14 15  2  0  0  0
 15 16  1  0  0  0
 16 17  2  0  0  0
 17 18  1  0  0  0
 18 19  1  0  0  0
 18 20  1  0  0  0
 18 21  1  0  0  0
  3 22  1  0  0  0
 22 23  1  0  0  0
 23 24  1  0  0  0
 24 25  1  0  0  0
 25 26  1  0  0  0
 26 27  1  0  0  0
 33 34  1  0  0  0
 34 35  2  0  0  0
 35 30  1  0  0  0
 11  1  1  0  0  0
 17 12  1  0  0  0
 27 22  1  0  0  0
 11  5  2  0  0  0
 28 29  1  0  0  0
M  END
> <minimizedAffinity>
-11.41002

> <CNNscore>
0.5557518005

> <CNNaffinity>
7.5100579262

> <CNN_VS>
4.1737279892

> <CNNaffinity_variance>
0.0698037148

$$$$
[H]c1nc(N2C([H])([H])C([H])([H])c3nc(N4C([H])([H])C([H])([H])C([H])([H])C([H])([H])C4([H])[H])nc(N([H])c4nc([H])c(C(F)(F)F)c([H])c4[H])c3C([H])([H])C2([H])[H])c(C(F)(F)F)c([H])c1[H]


 39 43  0  0  0  0  0  0  0  0999 V2000
  154.3778  139.0162  184.4977 C   0  0  0  0  0  0  0  0  0  0  0  0
  155.1743  140.0723  184.3646 N   0  0  0  0  0  0  0  0  0  0  0  0
  155.1963  140.8117  183.2180 C   0  0  0  0  0  0  0  0  0  0  0  0
  154.4022  140.5228  182.1537 N   0  0  0  0  0  0  0  0  0  0  0  0
  153.5767  139.4792  182.2434 C   0  0  0  0  0  0  0  0  0  0  0  0
  152.7031  139.3473  181.0216 C   0  0  0  0  0  0  0  0  0  0  0  0
  151.2677  139.4543  181.5337 C   0  0  0  0  0  0  0  0  0  0  0  0
  150.9005  138.3110  182.3102 N   0  0  0  0  0  0  0  0  0  0  0  0
  151.2200  138.0079  183.6932 C   0  0  0  0  0  0  0  0  0  0  0  0
  152.7210  137.5863  183.7517 C   0  0  0  0  0  0  0  0  0  0  0  0
  153.5679  138.7366  183.3873 C   0  0  0  0  0  0  0  0  0  0  0  0
  150.1387  137.3100  181.6628 C   0  0  0  0  0  0  0  0  0  0  0  0
  150.7560  136.0932  181.3996 N   0  0  0  0  0  0  0  0  0  0  0  0
  150.1378  135.0912  180.7859 C   0  0  0  0  0  0  0  0  0  0  0  0
  148.8347  135.3040  180.4021 C   0  0  0  0  0  0  0  0  0  0  0  0
  148.1994  136.4958  180.6462 C   0  0  0  0  0  0  0  0  0  0  0  0
  148.8426  137.5478  181.2960 C   0  0  0  0  0  0  0  0  0  0  0  0
  148.1226  138.7832  181.5725 C   0  0  0  0  0  0  0  0  0  0  0  0
  148.5903  139.9130  180.9803 F   0  0  0  0  0  0  0  0  0  0  0  0
  147.8308  139.0299  182.9049 F   0  0  0  0  0  0  0  0  0  0  0  0
  146.8161  138.6317  181.0048 F   0  0  0  0  0  0  0  0  0  0  0  0
  156.1603  141.8472  182.9506 N   0  0  0  0  0  0  0  0  0  0  0  0
  155.6628  142.9938  182.1911 C   0  0  0  0  0  0  0  0  0  0  0  0
  156.6616  144.1249  182.2668 C   0  0  0  0  0  0  0  0  0  0  0  0
  158.0290  143.6617  181.7876 C   0  0  0  0  0  0  0  0  0  0  0  0
  158.5174  142.4718  182.5320 C   0  0  0  0  0  0  0  0  0  0  0  0
  157.5010  141.8159  183.3956 C   0  0  0  0  0  0  0  0  0  0  0  0
  154.5071  138.0992  185.5395 N   0  0  0  0  0  0  0  0  0  0  0  0
  154.5599  137.0626  185.1755 H   0  0  0  0  0  0  0  0  0  0  0  0
  155.1484  138.2046  189.6674 C   0  0  0  0  0  0  0  0  0  0  0  0
  153.8657  138.3638  189.1681 C   0  0  0  0  0  0  0  0  0  0  0  0
  153.6248  138.3770  187.8116 C   0  0  0  0  0  0  0  0  0  0  0  0
  154.6601  138.2239  186.9156 C   0  0  0  0  0  0  0  0  0  0  0  0
  155.9154  138.0806  187.4432 N   0  0  0  0  0  0  0  0  0  0  0  0
  156.1780  138.0692  188.7552 C   0  0  0  0  0  0  0  0  0  0  0  0
  154.4798  137.3819  191.7579 F   0  0  0  0  0  0  0  0  0  0  0  0
  155.4388  138.1469  191.1062 C   0  0  0  0  0  0  0  0  0  0  0  0
  156.6733  137.6964  191.4207 F   0  0  0  0  0  0  0  0  0  0  0  0
  155.2500  139.4530  191.5768 F   0  0  0  0  0  0  0  0  0  0  0  0
 36 37  1  0  0  0
 37 38  1  0  0  0
 37 39  1  0  0  0
 37 30  1  0  0  0
 30 31  2  0  0  0
 31 32  1  0  0  0
 32 33  2  0  0  0
 33 28  1  0  0  0
 28  1  1  0  0  0
  1  2  2  0  0  0
  2  3  1  0  0  0
  3  4  2  0  0  0
  4  5  1  0  0  0
  5  6  1  0  0  0
  6  7  1  0  0  0
  7  8  1  0  0  0
  8  9  1  0  0  0
  9 10  1  0  0  0
 10 11  1  0  0  0
  8 12  1  0  0  0
 12 13  2  0  0  0
 13 14  1  0  0  0
 14 15  2  0  0  0
 15 16  1  0  0  0
 16 17  2  0  0  0
 17 18  1  0  0  0
 18 19  1  0  0  0
 18 20  1  0  0  0
 18 21  1  0  0  0
  3 22  1  0  0  0
 22 23  1  0  0  0
 23 24  1  0  0  0
 24 25  1  0  0  0
 25 26  1  0  0  0
 26 27  1  0  0  0
 33 34  1  0  0  0
 34 35  2  0  0  0
 35 30  1  0  0  0
 11  1  1  0  0  0
 17 12  1  0  0  0
 27 22  1  0  0  0
 11  5  2  0  0  0
 28 29  1  0  0  0
M  END
> <minimizedAffinity>
-9.10802

> <CNNscore>
0.3993167281

> <CNNaffinity>
6.9528756142

> <CNN_VS>
2.7763996124

> <CNNaffinity_variance>
0.0076694414

$$$$
[H]c1nc(N2C([H])([H])C([H])([H])c3nc(N4C([H])([H])C([H])([H])C([H])([H])C([H])([H])C4([H])[H])nc(N([H])c4nc([H])c(C(F)(F)F)c([H])c4[H])c3C([H])([H])C2([H])[H])c(C(F)(F)F)c([H])c1[H]


 39 43  0  0  0  0  0  0  0  0999 V2000
  153.8528  135.8758  187.1290 C   0  0  0  0  0  0  0  0  0  0  0  0
  154.1657  135.7576  188.4157 N   0  0  0  0  0  0  0  0  0  0  0  0
  153.2063  135.6081  189.3744 C   0  0  0  0  0  0  0  0  0  0  0  0
  151.8820  135.5593  189.0734 N   0  0  0  0  0  0  0  0  0  0  0  0
  151.5184  135.6616  187.7944 C   0  0  0  0  0  0  0  0  0  0  0  0
  150.0298  135.4984  187.6188 C   0  0  0  0  0  0  0  0  0  0  0  0
  149.8581  134.2929  186.6961 C   0  0  0  0  0  0  0  0  0  0  0  0
  150.3038  134.5802  185.3681 N   0  0  0  0  0  0  0  0  0  0  0  0
  151.6582  134.6061  184.8470 C   0  0  0  0  0  0  0  0  0  0  0  0
  152.3453  135.9030  185.3761 C   0  0  0  0  0  0  0  0  0  0  0  0
  152.4810  135.8230  186.8418 C   0  0  0  0  0  0  0  0  0  0  0  0
  149.3134  134.9090  184.4129 C   0  0  0  0  0  0  0  0  0  0  0  0
  148.9429  136.2431  184.2951 N   0  0  0  0  0  0  0  0  0  0  0  0
  148.0155  136.6590  183.4408 C   0  0  0  0  0  0  0  0  0  0  0  0
  147.4117  135.7011  182.6609 C   0  0  0  0  0  0  0  0  0  0  0  0
  147.7548  134.3757  182.7565 C   0  0  0  0  0  0  0  0  0  0  0  0
  148.7325  133.9358  183.6472 C   0  0  0  0  0  0  0  0  0  0  0  0
  149.0973  132.5266  183.6917 C   0  0  0  0  0  0  0  0  0  0  0  0
  148.4612  131.6992  182.8217 F   0  0  0  0  0  0  0  0  0  0  0  0
  149.1399  131.9506  184.9518 F   0  0  0  0  0  0  0  0  0  0  0  0
  150.4671  132.4449  183.2806 F   0  0  0  0  0  0  0  0  0  0  0  0
  153.4721  135.6576  190.7886 N   0  0  0  0  0  0  0  0  0  0  0  0
  154.3725  134.6244  191.2995 C   0  0  0  0  0  0  0  0  0  0  0  0
  154.8161  134.9840  192.6983 C   0  0  0  0  0  0  0  0  0  0  0  0
  153.6109  135.2003  193.6008 C   0  0  0  0  0  0  0  0  0  0  0  0
  152.6751  136.2213  193.0620 C   0  0  0  0  0  0  0  0  0  0  0  0
  152.9444  136.6363  191.6605 C   0  0  0  0  0  0  0  0  0  0  0  0
  154.7725  136.2778  186.1618 N   0  0  0  0  0  0  0  0  0  0  0  0
  155.4930  135.4831  185.9189 H   0  0  0  0  0  0  0  0  0  0  0  0
  155.2129  139.9047  184.1336 C   0  0  0  0  0  0  0  0  0  0  0  0
  154.2577  138.9941  183.7113 C   0  0  0  0  0  0  0  0  0  0  0  0
  154.1148  137.7715  184.3304 C   0  0  0  0  0  0  0  0  0  0  0  0
  154.9191  137.4279  185.3948 C   0  0  0  0  0  0  0  0  0  0  0  0
  155.8595  138.3464  185.7781 N   0  0  0  0  0  0  0  0  0  0  0  0
  156.0230  139.5380  185.1918 C   0  0  0  0  0  0  0  0  0  0  0  0
  156.0438  141.1265  182.3141 F   0  0  0  0  0  0  0  0  0  0  0  0
  155.3690  141.2319  183.5238 C   0  0  0  0  0  0  0  0  0  0  0  0
  154.2176  141.9165  183.3463 F   0  0  0  0  0  0  0  0  0  0  0  0
  156.2390  141.9309  184.3708 F   0  0  0  0  0  0  0  0  0  0  0  0
 36 37  1  0  0  0
 37 38  1  0  0  0
 37 39  1  0  0  0
 37 30  1  0  0  0
 30 31  2  0  0  0
 31 32  1  0  0  0
 32 33  2  0  0  0
 33 28  1  0  0  0
 28  1  1  0  0  0
  1  2  2  0  0  0
  2  3  1  0  0  0
  3  4  2  0  0  0
  4  5  1  0  0  0
  5  6  1  0  0  0
  6  7  1  0  0  0
  7  8  1  0  0  0
  8  9  1  0  0  0
  9 10  1  0  0  0
 10 11  1  0  0  0
  8 12  1  0  0  0
 12 13  2  0  0  0
 13 14  1  0  0  0
 14 15  2  0  0  0
 15 16  1  0  0  0
 16 17  2  0  0  0
 17 18  1  0  0  0
 18 19  1  0  0  0
 18 20  1  0  0  0
 18 21  1  0  0  0
  3 22  1  0  0  0
 22 23  1  0  0  0
 23 24  1  0  0  0
 24 25  1  0  0  0
 25 26  1  0  0  0
 26 27  1  0  0  0
 33 34  1  0  0  0
 34 35  2  0  0  0
 35 30  1  0  0  0
 11  1  1  0  0  0
 17 12  1  0  0  0
 27 22  1  0  0  0
 11  5  2  0  0  0
 28 29  1  0  0  0
M  END
> <minimizedAffinity>
-4.01108

> <CNNscore>
0.3459521532

> <CNNaffinity>
6.7695364952

> <CNN_VS>
2.3419356346

> <CNNaffinity_variance>
1.6574786901

$$$$
[H]c1nc(N2C([H])([H])C([H])([H])c3nc(N4C([H])([H])C([H])([H])C([H])([H])C([H])([H])C4([H])[H])nc(N([H])c4nc([H])c(C(F)(F)F)c([H])c4[H])c3C([H])([H])C2([H])[H])c(C(F)(F)F)c([H])c1[H]


 39 43  0  0  0  0  0  0  0  0999 V2000
  153.1989  137.0399  185.6789 C   0  0  0  0  0  0  0  0  0  0  0  0
  151.8952  137.2270  185.4971 N   0  0  0  0  0  0  0  0  0  0  0  0
  150.9667  136.5850  186.2636 C   0  0  0  0  0  0  0  0  0  0  0  0
  151.3156  135.7300  187.2607 N   0  0  0  0  0  0  0  0  0  0  0  0
  152.6122  135.5185  187.4898 C   0  0  0  0  0  0  0  0  0  0  0  0
  152.8332  134.6206  188.6807 C   0  0  0  0  0  0  0  0  0  0  0  0
  153.6568  135.4471  189.6669 C   0  0  0  0  0  0  0  0  0  0  0  0
  154.9854  135.6677  189.1861 N   0  0  0  0  0  0  0  0  0  0  0  0
  155.4519  136.6329  188.2076 C   0  0  0  0  0  0  0  0  0  0  0  0
  155.0070  136.1325  186.7984 C   0  0  0  0  0  0  0  0  0  0  0  0
  153.5355  136.1537  186.7125 C   0  0  0  0  0  0  0  0  0  0  0  0
  156.0039  134.8314  189.7003 C   0  0  0  0  0  0  0  0  0  0  0  0
  156.3644  133.7148  188.9559 N   0  0  0  0  0  0  0  0  0  0  0  0
  157.2979  132.8575  189.3516 C   0  0  0  0  0  0  0  0  0  0  0  0
  157.9076  133.1124  190.5574 C   0  0  0  0  0  0  0  0  0  0  0  0
  157.5711  134.2055  191.3158 C   0  0  0  0  0  0  0  0  0  0  0  0
  156.5965  135.1115  190.9009 C   0  0  0  0  0  0  0  0  0  0  0  0
  156.2951  136.2813  191.7142 C   0  0  0  0  0  0  0  0  0  0  0  0
  155.0394  136.3671  192.2261 F   0  0  0  0  0  0  0  0  0  0  0  0
  156.6776  137.5036  191.1840 F   0  0  0  0  0  0  0  0  0  0  0  0
  157.1202  136.1921  192.8818 F   0  0  0  0  0  0  0  0  0  0  0  0
  149.5522  136.6080  185.9959 N   0  0  0  0  0  0  0  0  0  0  0  0
  149.0456  135.5077  185.1762 C   0  0  0  0  0  0  0  0  0  0  0  0
  147.5369  135.4734  185.2489 C   0  0  0  0  0  0  0  0  0  0  0  0
  146.9526  136.8171  184.8403 C   0  0  0  0  0  0  0  0  0  0  0  0
  147.4973  137.9407  185.6462 C   0  0  0  0  0  0  0  0  0  0  0  0
  148.6674  137.5909  186.4932 C   0  0  0  0  0  0  0  0  0  0  0  0
  154.1588  137.4745  184.7664 N   0  0  0  0  0  0  0  0  0  0  0  0
  154.8226  136.6593  184.4429 H   0  0  0  0  0  0  0  0  0  0  0  0
  154.9386  141.2461  183.1451 C   0  0  0  0  0  0  0  0  0  0  0  0
  153.8132  140.5454  182.7420 C   0  0  0  0  0  0  0  0  0  0  0  0
  153.5488  139.2821  183.2241 C   0  0  0  0  0  0  0  0  0  0  0  0
  154.3995  138.6864  184.1294 C   0  0  0  0  0  0  0  0  0  0  0  0
  155.5074  139.4022  184.4969 N   0  0  0  0  0  0  0  0  0  0  0  0
  155.7907  140.6278  184.0407 C   0  0  0  0  0  0  0  0  0  0  0  0
  155.5097  143.4328  183.7665 F   0  0  0  0  0  0  0  0  0  0  0  0
  155.2332  142.6088  182.6827 C   0  0  0  0  0  0  0  0  0  0  0  0
  156.2294  142.6995  181.7743 F   0  0  0  0  0  0  0  0  0  0  0  0
  154.0293  143.0904  182.1520 F   0  0  0  0  0  0  0  0  0  0  0  0
 36 37  1  0  0  0
 37 38  1  0  0  0
 37 39  1  0  0  0
 37 30  1  0  0  0
 30 31  2  0  0  0
 31 32  1  0  0  0
 32 33  2  0  0  0
 33 28  1  0  0  0
 28  1  1  0  0  0
  1  2  2  0  0  0
  2  3  1  0  0  0
  3  4  2  0  0  0
  4  5  1  0  0  0
  5  6  1  0  0  0
  6  7  1  0  0  0
  7  8  1  0  0  0
  8  9  1  0  0  0
  9 10  1  0  0  0
 10 11  1  0  0  0
  8 12  1  0  0  0
 12 13  2  0  0  0
 13 14  1  0  0  0
 14 15  2  0  0  0
 15 16  1  0  0  0
 16 17  2  0  0  0
 17 18  1  0  0  0
 18 19  1  0  0  0
 18 20  1  0  0  0
 18 21  1  0  0  0
  3 22  1  0  0  0
 22 23  1  0  0  0
 23 24  1  0  0  0
 24 25  1  0  0  0
 25 26  1  0  0  0
 26 27  1  0  0  0
 33 34  1  0  0  0
 34 35  2  0  0  0
 35 30  1  0  0  0
 11  1  1  0  0  0
 17 12  1  0  0  0
 27 22  1  0  0  0
 11  5  2  0  0  0
 28 29  1  0  0  0
M  END
> <minimizedAffinity>
-7.70127

> <CNNscore>
0.3312401175

> <CNNaffinity>
6.6732506752

> <CNN_VS>
2.2104482651

> <CNNaffinity_variance>
0.2224271744

$$$$
[H]c1nc(N2C([H])([H])C([H])([H])c3nc(N4C([H])([H])C([H])([H])C([H])([H])C([H])([H])C4([H])[H])nc(N([H])c4nc([H])c(C(F)(F)F)c([H])c4[H])c3C([H])([H])C2([H])[H])c(C(F)(F)F)c([H])c1[H]


 39 43  0  0  0  0  0  0  0  0999 V2000
  155.6413  139.0515  184.2675 C   0  0  0  0  0  0  0  0  0  0  0  0
  154.7739  139.4651  183.3488 N   0  0  0  0  0  0  0  0  0  0  0  0
  153.4667  139.0744  183.3720 C   0  0  0  0  0  0  0  0  0  0  0  0
  152.9723  138.2538  184.3358 N   0  0  0  0  0  0  0  0  0  0  0  0
  153.8012  137.8214  185.2868 C   0  0  0  0  0  0  0  0  0  0  0  0
  153.0831  136.9987  186.3265 C   0  0  0  0  0  0  0  0  0  0  0  0
  153.2998  137.7335  187.6484 C   0  0  0  0  0  0  0  0  0  0  0  0
  154.6633  137.6598  188.0729 N   0  0  0  0  0  0  0  0  0  0  0  0
  155.8024  138.4363  187.6188 C   0  0  0  0  0  0  0  0  0  0  0  0
  156.1976  137.9148  186.2025 C   0  0  0  0  0  0  0  0  0  0  0  0
  155.1094  138.2055  185.2516 C   0  0  0  0  0  0  0  0  0  0  0  0
  154.9812  136.6917  189.0543 C   0  0  0  0  0  0  0  0  0  0  0  0
  155.1322  135.3736  188.6408 N   0  0  0  0  0  0  0  0  0  0  0  0
  155.4172  134.3850  189.4800 C   0  0  0  0  0  0  0  0  0  0  0  0
  155.5547  134.7143  190.8078 C   0  0  0  0  0  0  0  0  0  0  0  0
  155.4090  136.0066  191.2464 C   0  0  0  0  0  0  0  0  0  0  0  0
  155.1163  137.0484  190.3679 C   0  0  0  0  0  0  0  0  0  0  0  0
  155.0086  138.4129  190.8652 C   0  0  0  0  0  0  0  0  0  0  0  0
  154.3499  139.3036  190.0787 F   0  0  0  0  0  0  0  0  0  0  0  0
  156.1797  138.9775  191.3461 F   0  0  0  0  0  0  0  0  0  0  0  0
  154.1992  138.3559  192.0458 F   0  0  0  0  0  0  0  0  0  0  0  0
  152.5317  139.3414  182.3102 N   0  0  0  0  0  0  0  0  0  0  0  0
  151.3249  138.5149  182.3074 C   0  0  0  0  0  0  0  0  0  0  0  0
  150.3051  139.1087  181.3641 C   0  0  0  0  0  0  0  0  0  0  0  0
  150.8978  139.2733  179.9729 C   0  0  0  0  0  0  0  0  0  0  0  0
  152.1463  140.0794  179.9804 C   0  0  0  0  0  0  0  0  0  0  0  0
  152.7103  140.3432  181.3299 C   0  0  0  0  0  0  0  0  0  0  0  0
  157.0187  139.2212  184.1365 N   0  0  0  0  0  0  0  0  0  0  0  0
  157.5017  138.3491  183.6720 H   0  0  0  0  0  0  0  0  0  0  0  0
  159.8601  142.2176  184.7766 C   0  0  0  0  0  0  0  0  0  0  0  0
  159.0135  141.8434  185.8076 C   0  0  0  0  0  0  0  0  0  0  0  0
  158.0374  140.8896  185.6186 C   0  0  0  0  0  0  0  0  0  0  0  0
  157.8851  140.2773  184.3939 C   0  0  0  0  0  0  0  0  0  0  0  0
  158.7307  140.6794  183.3948 N   0  0  0  0  0  0  0  0  0  0  0  0
  159.6834  141.6062  183.5496 C   0  0  0  0  0  0  0  0  0  0  0  0
  162.1539  142.6524  184.5692 F   0  0  0  0  0  0  0  0  0  0  0  0
  160.9364  143.2020  184.9506 C   0  0  0  0  0  0  0  0  0  0  0  0
  160.7443  144.3757  184.3094 F   0  0  0  0  0  0  0  0  0  0  0  0
  161.0393  143.4005  186.3337 F   0  0  0  0  0  0  0  0  0  0  0  0
 36 37  1  0  0  0
 37 38  1  0  0  0
 37 39  1  0  0  0
 37 30  1  0  0  0
 30 31  2  0  0  0
 31 32  1  0  0  0
 32 33  2  0  0  0
 33 28  1  0  0  0
 28  1  1  0  0  0
  1  2  2  0  0  0
  2  3  1  0  0  0
  3  4  2  0  0  0
  4  5  1  0  0  0
  5  6  1  0  0  0
  6  7  1  0  0  0
  7  8  1  0  0  0
  8  9  1  0  0  0
  9 10  1  0  0  0
 10 11  1  0  0  0
  8 12  1  0  0  0
 12 13  2  0  0  0
 13 14  1  0  0  0
 14 15  2  0  0  0
 15 16  1  0  0  0
 16 17  2  0  0  0
 17 18  1  0  0  0
 18 19  1  0  0  0
 18 20  1  0  0  0
 18 21  1  0  0  0
  3 22  1  0  0  0
 22 23  1  0  0  0
 23 24  1  0  0  0
 24 25  1  0  0  0
 25 26  1  0  0  0
 26 27  1  0  0  0
 33 34  1  0  0  0
 34 35  2  0  0  0
 35 30  1  0  0  0
 11  1  1  0  0  0
 17 12  1  0  0  0
 27 22  1  0  0  0
 11  5  2  0  0  0
 28 29  1  0  0  0
M  END
> <minimizedAffinity>
-9.44910

> <CNNscore>
0.3207539916

> <CNNaffinity>
7.0792708397

> <CNN_VS>
2.2707042694

> <CNNaffinity_variance>
0.1209680885

$$$$
[H]c1nc(N2C([H])([H])C([H])([H])c3nc(N4C([H])([H])C([H])([H])C([H])([H])C([H])([H])C4([H])[H])nc(N([H])c4nc([H])c(C(F)(F)F)c([H])c4[H])c3C([H])([H])C2([H])[H])c(C(F)(F)F)c([H])c1[H]


 39 43  0  0  0  0  0  0  0  0999 V2000
  156.7008  133.2488  187.4129 C   0  0  0  0  0  0  0  0  0  0  0  0
  155.9563  133.8747  188.3192 N   0  0  0  0  0  0  0  0  0  0  0  0
  154.9568  134.7300  187.9569 C   0  0  0  0  0  0  0  0  0  0  0  0
  154.6555  134.9834  186.6562 N   0  0  0  0  0  0  0  0  0  0  0  0
  155.3667  134.3699  185.7095 C   0  0  0  0  0  0  0  0  0  0  0  0
  154.8522  134.6846  184.3275 C   0  0  0  0  0  0  0  0  0  0  0  0
  154.4590  133.3379  183.7227 C   0  0  0  0  0  0  0  0  0  0  0  0
  155.6062  132.5269  183.4562 N   0  0  0  0  0  0  0  0  0  0  0  0
  156.3882  131.7234  184.3779 C   0  0  0  0  0  0  0  0  0  0  0  0
  157.2545  132.6956  185.2372 C   0  0  0  0  0  0  0  0  0  0  0  0
  156.3724  133.5255  186.0777 C   0  0  0  0  0  0  0  0  0  0  0  0
  156.0811  132.5003  182.1239 C   0  0  0  0  0  0  0  0  0  0  0  0
  157.4556  132.5443  181.9238 N   0  0  0  0  0  0  0  0  0  0  0  0
  158.0069  132.5377  180.7159 C   0  0  0  0  0  0  0  0  0  0  0  0
  157.1516  132.4922  179.6404 C   0  0  0  0  0  0  0  0  0  0  0  0
  155.7899  132.4505  179.8065 C   0  0  0  0  0  0  0  0  0  0  0  0
  155.2073  132.4506  181.0727 C   0  0  0  0  0  0  0  0  0  0  0  0
  153.7599  132.3653  181.2093 C   0  0  0  0  0  0  0  0  0  0  0  0
  153.2827  131.7422  182.3183 F   0  0  0  0  0  0  0  0  0  0  0  0
  153.0691  131.9351  180.0872 F   0  0  0  0  0  0  0  0  0  0  0  0
  153.2825  133.7079  181.3560 F   0  0  0  0  0  0  0  0  0  0  0  0
  154.2436  135.5683  188.8851 N   0  0  0  0  0  0  0  0  0  0  0  0
  153.4578  134.8644  189.8982 C   0  0  0  0  0  0  0  0  0  0  0  0
  153.0405  135.8327  190.9802 C   0  0  0  0  0  0  0  0  0  0  0  0
  152.2895  137.0117  190.3801 C   0  0  0  0  0  0  0  0  0  0  0  0
  153.0716  137.7029  189.3223 C   0  0  0  0  0  0  0  0  0  0  0  0
  154.2913  136.9804  188.8758 C   0  0  0  0  0  0  0  0  0  0  0  0
  157.8769  132.5744  187.7367 N   0  0  0  0  0  0  0  0  0  0  0  0
  157.7130  131.7959  188.4961 H   0  0  0  0  0  0  0  0  0  0  0  0
  161.6634  132.7568  185.9786 C   0  0  0  0  0  0  0  0  0  0  0  0
  161.3871  131.7707  186.9118 C   0  0  0  0  0  0  0  0  0  0  0  0
  160.1636  131.7077  187.5421 C   0  0  0  0  0  0  0  0  0  0  0  0
  159.1785  132.6257  187.2511 C   0  0  0  0  0  0  0  0  0  0  0  0
  159.4895  133.5929  186.3332 N   0  0  0  0  0  0  0  0  0  0  0  0
  160.6705  133.6803  185.7103 C   0  0  0  0  0  0  0  0  0  0  0  0
  163.5937  134.0205  185.5651 F   0  0  0  0  0  0  0  0  0  0  0  0
  162.9414  132.8329  185.2585 C   0  0  0  0  0  0  0  0  0  0  0  0
  163.7740  131.7886  185.4634 F   0  0  0  0  0  0  0  0  0  0  0  0
  162.5998  132.9397  183.9039 F   0  0  0  0  0  0  0  0  0  0  0  0
 36 37  1  0  0  0
 37 38  1  0  0  0
 37 39  1  0  0  0
 37 30  1  0  0  0
 30 31  2  0  0  0
 31 32  1  0  0  0
 32 33  2  0  0  0
 33 28  1  0  0  0
 28  1  1  0  0  0
  1  2  2  0  0  0
  2  3  1  0  0  0
  3  4  2  0  0  0
  4  5  1  0  0  0
  5  6  1  0  0  0
  6  7  1  0  0  0
  7  8  1  0  0  0
  8  9  1  0  0  0
  9 10  1  0  0  0
 10 11  1  0  0  0
  8 12  1  0  0  0
 12 13  2  0  0  0
 13 14  1  0  0  0
 14 15  2  0  0  0
 15 16  1  0  0  0
 16 17  2  0  0  0
 17 18  1  0  0  0
 18 19  1  0  0  0
 18 20  1  0  0  0
 18 21  1  0  0  0
  3 22  1  0  0  0
 22 23  1  0  0  0
 23 24  1  0  0  0
 24 25  1  0  0  0
 25 26  1  0  0  0
 26 27  1  0  0  0
 33 34  1  0  0  0
 34 35  2  0  0  0
 35 30  1  0  0  0
 11  1  1  0  0  0
 17 12  1  0  0  0
 27 22  1  0  0  0
 11  5  2  0  0  0
 28 29  1  0  0  0
M  END
> <minimizedAffinity>
9.65912

> <CNNscore>
0.3174779713

> <CNNaffinity>
6.4508619308

> <CNN_VS>
2.0480065346

> <CNNaffinity_variance>
1.6395769119

$$$$
[H]c1nc(N2C([H])([H])C([H])([H])c3nc(N4C([H])([H])C([H])([H])C([H])([H])C([H])([H])C4([H])[H])nc(N([H])c4nc([H])c(C(F)(F)F)c([H])c4[H])c3C([H])([H])C2([H])[H])c(C(F)(F)F)c([H])c1[H]


 39 43  0  0  0  0  0  0  0  0999 V2000
  153.9096  138.5889  184.7030 C   0  0  0  0  0  0  0  0  0  0  0  0
  154.8989  139.4749  184.6413 N   0  0  0  0  0  0  0  0  0  0  0  0
  155.1881  140.1451  183.4884 C   0  0  0  0  0  0  0  0  0  0  0  0
  154.4798  139.9579  182.3439 N   0  0  0  0  0  0  0  0  0  0  0  0
  153.4694  139.0876  182.3587 C   0  0  0  0  0  0  0  0  0  0  0  0
  152.7306  139.0620  181.0446 C   0  0  0  0  0  0  0  0  0  0  0  0
  151.2917  139.4521  181.3786 C   0  0  0  0  0  0  0  0  0  0  0  0
  150.6322  138.4315  182.1323 N   0  0  0  0  0  0  0  0  0  0  0  0
  150.7309  138.1381  183.5504 C   0  0  0  0  0  0  0  0  0  0  0  0
  152.1105  137.4530  183.7980 C   0  0  0  0  0  0  0  0  0  0  0  0
  153.1928  138.4117  183.5105 C   0  0  0  0  0  0  0  0  0  0  0  0
  149.7754  137.5579  181.4223 C   0  0  0  0  0  0  0  0  0  0  0  0
  150.2320  136.2718  181.1605 N   0  0  0  0  0  0  0  0  0  0  0  0
  149.5152  135.3766  180.4913 C   0  0  0  0  0  0  0  0  0  0  0  0
  148.2766  135.7757  180.0472 C   0  0  0  0  0  0  0  0  0  0  0  0
  147.7998  137.0398  180.2883 C   0  0  0  0  0  0  0  0  0  0  0  0
  148.5463  137.9803  180.9960 C   0  0  0  0  0  0  0  0  0  0  0  0
  147.9900  139.2989  181.2663 C   0  0  0  0  0  0  0  0  0  0  0  0
  147.8811  139.6646  182.5703 F   0  0  0  0  0  0  0  0  0  0  0  0
  146.8266  139.6179  180.5836 F   0  0  0  0  0  0  0  0  0  0  0  0
  148.9180  140.2518  180.7345 F   0  0  0  0  0  0  0  0  0  0  0  0
  156.3523  140.9741  183.3139 N   0  0  0  0  0  0  0  0  0  0  0  0
  156.1105  142.2860  182.7143 C   0  0  0  0  0  0  0  0  0  0  0  0
  157.3320  143.1576  182.8905 C   0  0  0  0  0  0  0  0  0  0  0  0
  158.5623  142.4744  182.3131 C   0  0  0  0  0  0  0  0  0  0  0  0
  158.7857  141.1244  182.8929 C   0  0  0  0  0  0  0  0  0  0  0  0
  157.6573  140.6004  183.7060 C   0  0  0  0  0  0  0  0  0  0  0  0
  153.7468  137.7119  185.7741 N   0  0  0  0  0  0  0  0  0  0  0  0
  152.7038  137.6697  186.1208 H   0  0  0  0  0  0  0  0  0  0  0  0
  156.5541  135.2175  187.6068 C   0  0  0  0  0  0  0  0  0  0  0  0
  155.4220  134.6672  187.0278 C   0  0  0  0  0  0  0  0  0  0  0  0
  154.4558  135.4637  186.4530 C   0  0  0  0  0  0  0  0  0  0  0  0
  154.5984  136.8339  186.4347 C   0  0  0  0  0  0  0  0  0  0  0  0
  155.7231  137.3442  187.0258 N   0  0  0  0  0  0  0  0  0  0  0  0
  156.6740  136.5945  187.5952 C   0  0  0  0  0  0  0  0  0  0  0  0
  158.7205  135.1938  188.5014 F   0  0  0  0  0  0  0  0  0  0  0  0
  157.6231  134.3992  188.1945 C   0  0  0  0  0  0  0  0  0  0  0  0
  157.2602  133.6824  189.2809 F   0  0  0  0  0  0  0  0  0  0  0  0
  158.0563  133.5559  187.1629 F   0  0  0  0  0  0  0  0  0  0  0  0
 36 37  1  0  0  0
 37 38  1  0  0  0
 37 39  1  0  0  0
 37 30  1  0  0  0
 30 31  2  0  0  0
 31 32  1  0  0  0
 32 33  2  0  0  0
 33 28  1  0  0  0
 28  1  1  0  0  0
  1  2  2  0  0  0
  2  3  1  0  0  0
  3  4  2  0  0  0
  4  5  1  0  0  0
  5  6  1  0  0  0
  6  7  1  0  0  0
  7  8  1  0  0  0
  8  9  1  0  0  0
  9 10  1  0  0  0
 10 11  1  0  0  0
  8 12  1  0  0  0
 12 13  2  0  0  0
 13 14  1  0  0  0
 14 15  2  0  0  0
 15 16  1  0  0  0
 16 17  2  0  0  0
 17 18  1  0  0  0
 18 19  1  0  0  0
 18 20  1  0  0  0
 18 21  1  0  0  0
  3 22  1  0  0  0
 22 23  1  0  0  0
 23 24  1  0  0  0
 24 25  1  0  0  0
 25 26  1  0  0  0
 26 27  1  0  0  0
 33 34  1  0  0  0
 34 35  2  0  0  0
 35 30  1  0  0  0
 11  1  1  0  0  0
 17 12  1  0  0  0
 27 22  1  0  0  0
 11  5  2  0  0  0
 28 29  1  0  0  0
M  END
> <minimizedAffinity>
-6.75843

> <CNNscore>
0.3128236532

> <CNNaffinity>
6.6817522049

> <CNN_VS>
2.0902101994

> <CNNaffinity_variance>
0.0666314960

$$$$
[H]c1nc(N2C([H])([H])C([H])([H])c3nc(N4C([H])([H])C([H])([H])C([H])([H])C([H])([H])C4([H])[H])nc(N([H])c4nc([H])c(C(F)(F)F)c([H])c4[H])c3C([H])([H])C2([H])[H])c(C(F)(F)F)c([H])c1[H]


 39 43  0  0  0  0  0  0  0  0999 V2000
  155.2270  139.3027  184.2054 C   0  0  0  0  0  0  0  0  0  0  0  0
  154.1498  138.8907  183.5441 N   0  0  0  0  0  0  0  0  0  0  0  0
  153.6207  139.6157  182.5163 C   0  0  0  0  0  0  0  0  0  0  0  0
  154.1658  140.7892  182.1009 N   0  0  0  0  0  0  0  0  0  0  0  0
  155.2550  141.2386  182.7256 C   0  0  0  0  0  0  0  0  0  0  0  0
  155.7872  142.4984  182.0908 C   0  0  0  0  0  0  0  0  0  0  0  0
  157.2092  142.1609  181.6457 C   0  0  0  0  0  0  0  0  0  0  0  0
  158.0804  141.9781  182.7648 N   0  0  0  0  0  0  0  0  0  0  0  0
  158.2273  140.8186  183.6255 C   0  0  0  0  0  0  0  0  0  0  0  0
  156.9824  140.7641  184.5644 C   0  0  0  0  0  0  0  0  0  0  0  0
  155.7722  140.5158  183.7601 C   0  0  0  0  0  0  0  0  0  0  0  0
  158.9106  143.0671  183.1199 C   0  0  0  0  0  0  0  0  0  0  0  0
  158.5648  144.3276  182.6481 N   0  0  0  0  0  0  0  0  0  0  0  0
  159.2805  145.4148  182.9102 C   0  0  0  0  0  0  0  0  0  0  0  0
  160.4090  145.2482  183.6779 C   0  0  0  0  0  0  0  0  0  0  0  0
  160.7772  144.0156  184.1561 C   0  0  0  0  0  0  0  0  0  0  0  0
  160.0251  142.8730  183.8887 C   0  0  0  0  0  0  0  0  0  0  0  0
  160.4262  141.5890  184.4469 C   0  0  0  0  0  0  0  0  0  0  0  0
  160.4206  140.5235  183.6039 F   0  0  0  0  0  0  0  0  0  0  0  0
  159.8409  141.2434  185.6549 F   0  0  0  0  0  0  0  0  0  0  0  0
  161.8064  141.7133  184.8097 F   0  0  0  0  0  0  0  0  0  0  0  0
  152.3608  139.3138  181.8880 N   0  0  0  0  0  0  0  0  0  0  0  0
  151.6166  138.1961  182.4679 C   0  0  0  0  0  0  0  0  0  0  0  0
  150.2010  138.2004  181.9399 C   0  0  0  0  0  0  0  0  0  0  0  0
  150.1991  138.1711  180.4191 C   0  0  0  0  0  0  0  0  0  0  0  0
  150.9886  139.2836  179.8296 C   0  0  0  0  0  0  0  0  0  0  0  0
  151.8240  140.0380  180.8000 C   0  0  0  0  0  0  0  0  0  0  0  0
  155.6421  138.7282  185.4057 N   0  0  0  0  0  0  0  0  0  0  0  0
  156.7270  138.5492  185.4265 H   0  0  0  0  0  0  0  0  0  0  0  0
  153.8641  137.5001  188.9824 C   0  0  0  0  0  0  0  0  0  0  0  0
  153.0713  137.9726  187.9489 C   0  0  0  0  0  0  0  0  0  0  0  0
  153.6277  138.4253  186.7726 C   0  0  0  0  0  0  0  0  0  0  0  0
  154.9937  138.4116  186.5939 C   0  0  0  0  0  0  0  0  0  0  0  0
  155.7471  137.9493  187.6395 N   0  0  0  0  0  0  0  0  0  0  0  0
  155.2334  137.5087  188.7938 C   0  0  0  0  0  0  0  0  0  0  0  0
  153.7394  137.7381  191.3108 F   0  0  0  0  0  0  0  0  0  0  0  0
  153.3056  136.9739  190.2349 C   0  0  0  0  0  0  0  0  0  0  0  0
  151.9583  136.8732  190.2601 F   0  0  0  0  0  0  0  0  0  0  0  0
  153.9027  135.7187  190.4105 F   0  0  0  0  0  0  0  0  0  0  0  0
 36 37  1  0  0  0
 37 38  1  0  0  0
 37 39  1  0  0  0
 37 30  1  0  0  0
 30 31  2  0  0  0
 31 32  1  0  0  0
 32 33  2  0  0  0
 33 28  1  0  0  0
 28  1  1  0  0  0
  1  2  2  0  0  0
  2  3  1  0  0  0
  3  4  2  0  0  0
  4  5  1  0  0  0
  5  6  1  0  0  0
  6  7  1  0  0  0
  7  8  1  0  0  0
  8  9  1  0  0  0
  9 10  1  0  0  0
 10 11  1  0  0  0
  8 12  1  0  0  0
 12 13  2  0  0  0
 13 14  1  0  0  0
 14 15  2  0  0  0
 15 16  1  0  0  0
 16 17  2  0  0  0
 17 18  1  0  0  0
 18 19  1  0  0  0
 18 20  1  0  0  0
 18 21  1  0  0  0
  3 22  1  0  0  0
 22 23  1  0  0  0
 23 24  1  0  0  0
 24 25  1  0  0  0
 25 26  1  0  0  0
 26 27  1  0  0  0
 33 34  1  0  0  0
 34 35  2  0  0  0
 35 30  1  0  0  0
 11  1  1  0  0  0
 17 12  1  0  0  0
 27 22  1  0  0  0
 11  5  2  0  0  0
 28 29  1  0  0  0
M  END
> <minimizedAffinity>
-10.50692

> <CNNscore>
0.3071761429

> <CNNaffinity>
7.2933416367

> <CNN_VS>
2.2403404713

> <CNNaffinity_variance>
0.1011000052

$$$$
[H]c1nc(N2C([H])([H])C([H])([H])c3nc(N4C([H])([H])C([H])([H])C([H])([H])C([H])([H])C4([H])[H])nc(N([H])c4nc([H])c(C(F)(F)F)c([H])c4[H])c3C([H])([H])C2([H])[H])c(C(F)(F)F)c([H])c1[H]


 39 43  0  0  0  0  0  0  0  0999 V2000
  157.2565  140.9056  184.3119 C   0  0  0  0  0  0  0  0  0  0  0  0
  157.6354  141.7223  183.3337 N   0  0  0  0  0  0  0  0  0  0  0  0
  157.0489  141.6838  182.1022 C   0  0  0  0  0  0  0  0  0  0  0  0
  156.0404  140.8224  181.8061 N   0  0  0  0  0  0  0  0  0  0  0  0
  155.6168  139.9908  182.7587 C   0  0  0  0  0  0  0  0  0  0  0  0
  154.4387  139.1676  182.3026 C   0  0  0  0  0  0  0  0  0  0  0  0
  153.3058  139.5069  183.2698 C   0  0  0  0  0  0  0  0  0  0  0  0
  153.5621  138.9938  184.5797 N   0  0  0  0  0  0  0  0  0  0  0  0
  154.4194  139.5347  185.6186 C   0  0  0  0  0  0  0  0  0  0  0  0
  155.8982  139.2607  185.2037 C   0  0  0  0  0  0  0  0  0  0  0  0
  156.2149  140.0254  183.9839 C   0  0  0  0  0  0  0  0  0  0  0  0
  152.9234  137.7822  184.9337 C   0  0  0  0  0  0  0  0  0  0  0  0
  152.6362  136.8789  183.9174 N   0  0  0  0  0  0  0  0  0  0  0  0
  152.0280  135.7193  184.1368 C   0  0  0  0  0  0  0  0  0  0  0  0
  151.6750  135.4362  185.4352 C   0  0  0  0  0  0  0  0  0  0  0  0
  151.9432  136.3095  186.4594 C   0  0  0  0  0  0  0  0  0  0  0  0
  152.5874  137.5248  186.2344 C   0  0  0  0  0  0  0  0  0  0  0  0
  152.8903  138.4074  187.3525 C   0  0  0  0  0  0  0  0  0  0  0  0
  152.4922  137.9969  188.5850 F   0  0  0  0  0  0  0  0  0  0  0  0
  152.5758  139.7452  187.1717 F   0  0  0  0  0  0  0  0  0  0  0  0
  154.3177  138.4500  187.4658 F   0  0  0  0  0  0  0  0  0  0  0  0
  157.5360  142.4119  180.9596 N   0  0  0  0  0  0  0  0  0  0  0  0
  157.5572  141.6703  179.6991 C   0  0  0  0  0  0  0  0  0  0  0  0
  157.7699  142.6281  178.5501 C   0  0  0  0  0  0  0  0  0  0  0  0
  159.0358  143.4442  178.7637 C   0  0  0  0  0  0  0  0  0  0  0  0
  159.0324  144.1661  180.0626 C   0  0  0  0  0  0  0  0  0  0  0  0
  157.9503  143.7622  180.9979 C   0  0  0  0  0  0  0  0  0  0  0  0
  157.9895  140.7425  185.4862 N   0  0  0  0  0  0  0  0  0  0  0  0
  157.4982  140.0544  186.1897 H   0  0  0  0  0  0  0  0  0  0  0  0
  161.5758  142.3935  186.8555 C   0  0  0  0  0  0  0  0  0  0  0  0
  161.5388  141.7582  185.6247 C   0  0  0  0  0  0  0  0  0  0  0  0
  160.3840  141.1659  185.1621 C   0  0  0  0  0  0  0  0  0  0  0  0
  159.2307  141.1987  185.9150 C   0  0  0  0  0  0  0  0  0  0  0  0
  159.3061  141.8244  187.1305 N   0  0  0  0  0  0  0  0  0  0  0  0
  160.4150  142.4030  187.6059 C   0  0  0  0  0  0  0  0  0  0  0  0
  162.5690  144.4415  187.4149 F   0  0  0  0  0  0  0  0  0  0  0  0
  162.7767  143.0689  187.3646 C   0  0  0  0  0  0  0  0  0  0  0  0
  163.2122  142.6286  188.5656 F   0  0  0  0  0  0  0  0  0  0  0  0
  163.7555  142.8806  186.3799 F   0  0  0  0  0  0  0  0  0  0  0  0
 36 37  1  0  0  0
 37 38  1  0  0  0
 37 39  1  0  0  0
 37 30  1  0  0  0
 30 31  2  0  0  0
 31 32  1  0  0  0
 32 33  2  0  0  0
 33 28  1  0  0  0
 28  1  1  0  0  0
  1  2  2  0  0  0
  2  3  1  0  0  0
  3  4  2  0  0  0
  4  5  1  0  0  0
  5  6  1  0  0  0
  6  7  1  0  0  0
  7  8  1  0  0  0
  8  9  1  0  0  0
  9 10  1  0  0  0
 10 11  1  0  0  0
  8 12  1  0  0  0
 12 13  2  0  0  0
 13 14  1  0  0  0
 14 15  2  0  0  0
 15 16  1  0  0  0
 16 17  2  0  0  0
 17 18  1  0  0  0
 18 19  1  0  0  0
 18 20  1  0  0  0
 18 21  1  0  0  0
  3 22  1  0  0  0
 22 23  1  0  0  0
 23 24  1  0  0  0
 24 25  1  0  0  0
 25 26  1  0  0  0
 26 27  1  0  0  0
 33 34  1  0  0  0
 34 35  2  0  0  0
 35 30  1  0  0  0
 11  1  1  0  0  0
 17 12  1  0  0  0
 27 22  1  0  0  0
 11  5  2  0  0  0
 28 29  1  0  0  0
M  END
> <minimizedAffinity>
-3.18784

> <CNNscore>
0.2982643545

> <CNNaffinity>
7.1669058800

> <CNN_VS>
2.1376326084

> <CNNaffinity_variance>
0.9465497732

$$$$
[H]Oc1c([H])c([H])c2c([H])c([H])c([H])c(N([H])C(=O)N([H])c3c([H])c([H])c(Cl)c(C(F)(F)F)c3[H])c2c1[H]


 29 31  0  0  0  0  0  0  0  0999 V2000
  156.1529  138.7440  185.8136 N   0  0  0  0  0  0  0  0  0  0  0  0
  156.3299  139.6156  184.7059 C   0  0  0  0  0  0  0  0  0  0  0  0
  155.4386  140.1418  184.0320 O   0  0  0  0  0  0  0  0  0  0  0  0
  157.6749  139.9413  184.2990 N   0  0  0  0  0  0  0  0  0  0  0  0
  157.0557  138.3993  186.2567 H   0  0  0  0  0  0  0  0  0  0  0  0
  158.4695  139.4951  184.8625 H   0  0  0  0  0  0  0  0  0  0  0  0
  156.9664  138.1708  190.6910 O   0  0  0  0  0  0  0  0  0  0  0  0
  155.8263  137.9930  189.9253 C   0  0  0  0  0  0  0  0  0  0  0  0
  154.6261  137.5885  190.4624 C   0  0  0  0  0  0  0  0  0  0  0  0
  153.5165  137.4244  189.6625 C   0  0  0  0  0  0  0  0  0  0  0  0
  153.6181  137.6742  188.2831 C   0  0  0  0  0  0  0  0  0  0  0  0
  152.5077  137.5093  187.4858 C   0  0  0  0  0  0  0  0  0  0  0  0
  152.5611  137.7406  186.1424 C   0  0  0  0  0  0  0  0  0  0  0  0
  153.7755  138.1528  185.5802 C   0  0  0  0  0  0  0  0  0  0  0  0
  154.9140  138.3327  186.3301 C   0  0  0  0  0  0  0  0  0  0  0  0
  154.8036  138.0807  187.7083 C   0  0  0  0  0  0  0  0  0  0  0  0
  155.8848  138.2325  188.5389 C   0  0  0  0  0  0  0  0  0  0  0  0
  157.6397  137.4324  190.8682 H   0  0  0  0  0  0  0  0  0  0  0  0
  158.0281  140.7943  183.2341 C   0  0  0  0  0  0  0  0  0  0  0  0
  158.1947  140.1838  181.9707 C   0  0  0  0  0  0  0  0  0  0  0  0
  158.5608  140.8902  180.8598 C   0  0  0  0  0  0  0  0  0  0  0  0
  158.7747  142.2466  180.9776 C   0  0  0  0  0  0  0  0  0  0  0  0
  159.2455  143.2356  179.6122 Cl  0  0  0  0  0  0  0  0  0  0  0  0
  158.6230  142.8774  182.1908 C   0  0  0  0  0  0  0  0  0  0  0  0
  158.2515  142.1481  183.3100 C   0  0  0  0  0  0  0  0  0  0  0  0
  158.8507  144.3365  182.3278 C   0  0  0  0  0  0  0  0  0  0  0  0
  157.5783  144.9164  182.4201 F   0  0  0  0  0  0  0  0  0  0  0  0
  159.6024  144.5886  183.4341 F   0  0  0  0  0  0  0  0  0  0  0  0
  159.4128  144.8672  181.1775 F   0  0  0  0  0  0  0  0  0  0  0  0
  7  8  1  0  0  0
  8  9  2  0  0  0
  9 10  1  0  0  0
 10 11  2  0  0  0
 11 12  1  0  0  0
 12 13  2  0  0  0
 13 14  1  0  0  0
 14 15  2  0  0  0
 15  1  1  0  0  0
  1  2  1  0  0  0
  2  3  2  0  0  0
  2  4  1  0  0  0
  4 19  1  0  0  0
 19 20  2  0  0  0
 20 21  1  0  0  0
 21 22  2  0  0  0
 22 23  1  0  0  0
 22 24  1  0  0  0
 24 25  2  0  0  0
 24 26  1  0  0  0
 26 27  1  0  0  0
 26 28  1  0  0  0
 26 29  1  0  0  0
 15 16  1  0  0  0
 16 17  2  0  0  0
 17  8  1  0  0  0
 16 11  1  0  0  0
 25 19  1  0  0  0
  7 18  1  0  0  0
  1  5  1  0  0  0
  4  6  1  0  0  0
M  END
> <minimizedAffinity>
-9.58578

> <CNNscore>
0.4710388184

> <CNNaffinity>
5.8446402550

> <CNN_VS>
2.7530524731

> <CNNaffinity_variance>
0.0247750785

$$$$
[H]Oc1c([H])c([H])c2c([H])c([H])c([H])c(N([H])C(=O)N([H])c3c([H])c([H])c(Cl)c(C(F)(F)F)c3[H])c2c1[H]


 29 31  0  0  0  0  0  0  0  0999 V2000
  154.3192  140.6884  181.8262 N   0  0  0  0  0  0  0  0  0  0  0  0
  155.4417  141.1832  182.5427 C   0  0  0  0  0  0  0  0  0  0  0  0
  155.8246  140.8161  183.6580 O   0  0  0  0  0  0  0  0  0  0  0  0
  156.2385  142.2209  181.9353 N   0  0  0  0  0  0  0  0  0  0  0  0
  154.1625  141.1416  180.8774 H   0  0  0  0  0  0  0  0  0  0  0  0
  155.9271  142.5632  180.9689 H   0  0  0  0  0  0  0  0  0  0  0  0
  150.7920  140.4286  178.3233 O   0  0  0  0  0  0  0  0  0  0  0  0
  150.9659  139.7232  179.5024 C   0  0  0  0  0  0  0  0  0  0  0  0
  150.0936  138.7441  179.9181 C   0  0  0  0  0  0  0  0  0  0  0  0
  150.3059  138.0672  181.0991 C   0  0  0  0  0  0  0  0  0  0  0  0
  151.4278  138.3852  181.8837 C   0  0  0  0  0  0  0  0  0  0  0  0
  151.6377  137.7074  183.0637 C   0  0  0  0  0  0  0  0  0  0  0  0
  152.7133  137.9835  183.8560 C   0  0  0  0  0  0  0  0  0  0  0  0
  153.6107  138.9775  183.4470 C   0  0  0  0  0  0  0  0  0  0  0  0
  153.4485  139.6844  182.2787 C   0  0  0  0  0  0  0  0  0  0  0  0
  152.3243  139.3602  181.5003 C   0  0  0  0  0  0  0  0  0  0  0  0
  152.0772  140.0107  180.3180 C   0  0  0  0  0  0  0  0  0  0  0  0
  150.2665  141.2947  178.2642 H   0  0  0  0  0  0  0  0  0  0  0  0
  157.3858  142.8136  182.4999 C   0  0  0  0  0  0  0  0  0  0  0  0
  157.6977  144.1196  182.0600 C   0  0  0  0  0  0  0  0  0  0  0  0
  158.7954  144.7993  182.5076 C   0  0  0  0  0  0  0  0  0  0  0  0
  159.6269  144.1876  183.4206 C   0  0  0  0  0  0  0  0  0  0  0  0
  161.0556  144.9776  184.0520 Cl  0  0  0  0  0  0  0  0  0  0  0  0
  159.3572  142.9165  183.8727 C   0  0  0  0  0  0  0  0  0  0  0  0
  158.2399  142.2383  183.4098 C   0  0  0  0  0  0  0  0  0  0  0  0
  160.2458  142.2498  184.8553 C   0  0  0  0  0  0  0  0  0  0  0  0
  159.5902  141.0677  185.2251 F   0  0  0  0  0  0  0  0  0  0  0  0
  161.4590  141.9996  184.2913 F   0  0  0  0  0  0  0  0  0  0  0  0
  160.3505  142.9911  186.0216 F   0  0  0  0  0  0  0  0  0  0  0  0
  7  8  1  0  0  0
  8  9  2  0  0  0
  9 10  1  0  0  0
 10 11  2  0  0  0
 11 12  1  0  0  0
 12 13  2  0  0  0
 13 14  1  0  0  0
 14 15  2  0  0  0
 15  1  1  0  0  0
  1  2  1  0  0  0
  2  3  2  0  0  0
  2  4  1  0  0  0
  4 19  1  0  0  0
 19 20  2  0  0  0
 20 21  1  0  0  0
 21 22  2  0  0  0
 22 23  1  0  0  0
 22 24  1  0  0  0
 24 25  2  0  0  0
 24 26  1  0  0  0
 26 27  1  0  0  0
 26 28  1  0  0  0
 26 29  1  0  0  0
 15 16  1  0  0  0
 16 17  2  0  0  0
 17  8  1  0  0  0
 16 11  1  0  0  0
 25 19  1  0  0  0
  7 18  1  0  0  0
  1  5  1  0  0  0
  4  6  1  0  0  0
M  END
> <minimizedAffinity>
-9.89480

> <CNNscore>
0.4457407594

> <CNNaffinity>
6.0829911232

> <CNN_VS>
2.7114369869

> <CNNaffinity_variance>
0.0370013639

$$$$
[H]Oc1c([H])c([H])c2c([H])c([H])c([H])c(N([H])C(=O)N([H])c3c([H])c([H])c(Cl)c(C(F)(F)F)c3[H])c2c1[H]


 29 31  0  0  0  0  0  0  0  0999 V2000
  151.9122  136.7575  184.4603 N   0  0  0  0  0  0  0  0  0  0  0  0
  151.9052  137.0444  185.8516 C   0  0  0  0  0  0  0  0  0  0  0  0
  151.0420  137.6756  186.4697 O   0  0  0  0  0  0  0  0  0  0  0  0
  153.0028  136.5648  186.6553 N   0  0  0  0  0  0  0  0  0  0  0  0
  152.7520  136.1977  184.1262 H   0  0  0  0  0  0  0  0  0  0  0  0
  153.7697  136.0178  186.1449 H   0  0  0  0  0  0  0  0  0  0  0  0
  154.0775  140.3162  181.7353 O   0  0  0  0  0  0  0  0  0  0  0  0
  152.8054  139.7711  181.6860 C   0  0  0  0  0  0  0  0  0  0  0  0
  151.8563  140.1803  180.7781 C   0  0  0  0  0  0  0  0  0  0  0  0
  150.6024  139.6096  180.7650 C   0  0  0  0  0  0  0  0  0  0  0  0
  150.2954  138.5988  181.6919 C   0  0  0  0  0  0  0  0  0  0  0  0
  149.0416  138.0301  181.6768 C   0  0  0  0  0  0  0  0  0  0  0  0
  148.7007  137.0462  182.5581 C   0  0  0  0  0  0  0  0  0  0  0  0
  149.6555  136.6184  183.4888 C   0  0  0  0  0  0  0  0  0  0  0  0
  150.9215  137.1521  183.5473 C   0  0  0  0  0  0  0  0  0  0  0  0
  151.2200  138.1622  182.6170 C   0  0  0  0  0  0  0  0  0  0  0  0
  152.4568  138.7557  182.5971 C   0  0  0  0  0  0  0  0  0  0  0  0
  154.3171  141.1218  182.3041 H   0  0  0  0  0  0  0  0  0  0  0  0
  153.1468  136.7498  188.0450 C   0  0  0  0  0  0  0  0  0  0  0  0
  152.1317  136.1991  188.8592 C   0  0  0  0  0  0  0  0  0  0  0  0
  152.1354  136.3274  190.2196 C   0  0  0  0  0  0  0  0  0  0  0  0
  153.1667  137.0191  190.8172 C   0  0  0  0  0  0  0  0  0  0  0  0
  153.2585  137.2360  192.5518 Cl  0  0  0  0  0  0  0  0  0  0  0  0
  154.1734  137.5703  190.0586 C   0  0  0  0  0  0  0  0  0  0  0  0
  154.1568  137.4326  188.6790 C   0  0  0  0  0  0  0  0  0  0  0  0
  155.2876  138.3163  190.6923 C   0  0  0  0  0  0  0  0  0  0  0  0
  156.2022  138.5854  189.6652 F   0  0  0  0  0  0  0  0  0  0  0  0
  154.8177  139.4592  191.2629 F   0  0  0  0  0  0  0  0  0  0  0  0
  155.9746  137.5210  191.5958 F   0  0  0  0  0  0  0  0  0  0  0  0
  7  8  1  0  0  0
  8  9  2  0  0  0
  9 10  1  0  0  0
 10 11  2  0  0  0
 11 12  1  0  0  0
 12 13  2  0  0  0
 13 14  1  0  0  0
 14 15  2  0  0  0
 15  1  1  0  0  0
  1  2  1  0  0  0
  2  3  2  0  0  0
  2  4  1  0  0  0
  4 19  1  0  0  0
 19 20  2  0  0  0
 20 21  1  0  0  0
 21 22  2  0  0  0
 22 23  1  0  0  0
 22 24  1  0  0  0
 24 25  2  0  0  0
 24 26  1  0  0  0
 26 27  1  0  0  0
 26 28  1  0  0  0
 26 29  1  0  0  0
 15 16  1  0  0  0
 16 17  2  0  0  0
 17  8  1  0  0  0
 16 11  1  0  0  0
 25 19  1  0  0  0
  7 18  1  0  0  0
  1  5  1  0  0  0
  4  6  1  0  0  0
M  END
> <minimizedAffinity>
-7.23394

> <CNNscore>
0.4411470890

> <CNNaffinity>
5.1864500046

> <CNN_VS>
2.2879872322

> <CNNaffinity_variance>
0.0444942340

$$$$
[H]Oc1c([H])c([H])c2c([H])c([H])c([H])c(N([H])C(=O)N([H])c3c([H])c([H])c(Cl)c(C(F)(F)F)c3[H])c2c1[H]


 29 31  0  0  0  0  0  0  0  0999 V2000
  153.8642  138.0482  184.2583 N   0  0  0  0  0  0  0  0  0  0  0  0
  153.7158  138.2143  185.6613 C   0  0  0  0  0  0  0  0  0  0  0  0
  153.3047  139.2223  186.2449 O   0  0  0  0  0  0  0  0  0  0  0  0
  154.0721  137.1136  186.5228 N   0  0  0  0  0  0  0  0  0  0  0  0
  154.2362  137.0979  183.9601 H   0  0  0  0  0  0  0  0  0  0  0  0
  154.4370  136.2270  186.0444 H   0  0  0  0  0  0  0  0  0  0  0  0
  150.0688  136.1087  181.6867 O   0  0  0  0  0  0  0  0  0  0  0  0
  150.7410  137.3129  181.5599 C   0  0  0  0  0  0  0  0  0  0  0  0
  150.4203  138.2455  180.6007 C   0  0  0  0  0  0  0  0  0  0  0  0
  151.1163  139.4311  180.5110 C   0  0  0  0  0  0  0  0  0  0  0  0
  152.1647  139.6848  181.4120 C   0  0  0  0  0  0  0  0  0  0  0  0
  152.8588  140.8704  181.3202 C   0  0  0  0  0  0  0  0  0  0  0  0
  153.8832  141.1579  182.1739 C   0  0  0  0  0  0  0  0  0  0  0  0
  154.2222  140.2190  183.1559 C   0  0  0  0  0  0  0  0  0  0  0  0
  153.5622  139.0202  183.2916 C   0  0  0  0  0  0  0  0  0  0  0  0
  152.5154  138.7747  182.3866 C   0  0  0  0  0  0  0  0  0  0  0  0
  151.7980  137.6066  182.4426 C   0  0  0  0  0  0  0  0  0  0  0  0
  150.3466  135.2616  181.2020 H   0  0  0  0  0  0  0  0  0  0  0  0
  153.9764  137.1053  187.9288 C   0  0  0  0  0  0  0  0  0  0  0  0
  152.8027  136.5380  188.4739 C   0  0  0  0  0  0  0  0  0  0  0  0
  152.5711  136.4888  189.8197 C   0  0  0  0  0  0  0  0  0  0  0  0
  153.5172  137.0119  190.6744 C   0  0  0  0  0  0  0  0  0  0  0  0
  153.3106  136.9948  192.4126 Cl  0  0  0  0  0  0  0  0  0  0  0  0
  154.6728  137.5731  190.1822 C   0  0  0  0  0  0  0  0  0  0  0  0
  154.8946  137.6166  188.8141 C   0  0  0  0  0  0  0  0  0  0  0  0
  155.6970  138.1384  191.0938 C   0  0  0  0  0  0  0  0  0  0  0  0
  156.8182  138.4014  190.2953 F   0  0  0  0  0  0  0  0  0  0  0  0
  155.2214  139.2684  191.6850 F   0  0  0  0  0  0  0  0  0  0  0  0
  156.1191  137.1977  192.0199 F   0  0  0  0  0  0  0  0  0  0  0  0
  7  8  1  0  0  0
  8  9  2  0  0  0
  9 10  1  0  0  0
 10 11  2  0  0  0
 11 12  1  0  0  0
 12 13  2  0  0  0
 13 14  1  0  0  0
 14 15  2  0  0  0
 15  1  1  0  0  0
  1  2  1  0  0  0
  2  3  2  0  0  0
  2  4  1  0  0  0
  4 19  1  0  0  0
 19 20  2  0  0  0
 20 21  1  0  0  0
 21 22  2  0  0  0
 22 23  1  0  0  0
 22 24  1  0  0  0
 24 25  2  0  0  0
 24 26  1  0  0  0
 26 27  1  0  0  0
 26 28  1  0  0  0
 26 29  1  0  0  0
 15 16  1  0  0  0
 16 17  2  0  0  0
 17  8  1  0  0  0
 16 11  1  0  0  0
 25 19  1  0  0  0
  7 18  1  0  0  0
  1  5  1  0  0  0
  4  6  1  0  0  0
M  END
> <minimizedAffinity>
-7.99460

> <CNNscore>
0.4026632905

> <CNNaffinity>
5.1609458923

> <CNN_VS>
2.0781235695

> <CNNaffinity_variance>
0.0593145117

$$$$
[H]Oc1c([H])c([H])c2c([H])c([H])c([H])c(N([H])C(=O)N([H])c3c([H])c([H])c(Cl)c(C(F)(F)F)c3[H])c2c1[H]


 29 31  0  0  0  0  0  0  0  0999 V2000
  153.4400  137.4352  185.3195 N   0  0  0  0  0  0  0  0  0  0  0  0
  152.9304  137.5467  186.6408 C   0  0  0  0  0  0  0  0  0  0  0  0
  152.6399  138.5907  187.2332 O   0  0  0  0  0  0  0  0  0  0  0  0
  152.7179  136.3369  187.3971 N   0  0  0  0  0  0  0  0  0  0  0  0
  153.6249  136.4392  184.9969 H   0  0  0  0  0  0  0  0  0  0  0  0
  152.9660  135.4153  186.9102 H   0  0  0  0  0  0  0  0  0  0  0  0
  150.0634  136.9741  181.6911 O   0  0  0  0  0  0  0  0  0  0  0  0
  151.0656  137.9074  181.8967 C   0  0  0  0  0  0  0  0  0  0  0  0
  151.2953  138.9535  181.0331 C   0  0  0  0  0  0  0  0  0  0  0  0
  152.3043  139.8593  181.2772 C   0  0  0  0  0  0  0  0  0  0  0  0
  153.1046  139.7076  182.4225 C   0  0  0  0  0  0  0  0  0  0  0  0
  154.1124  140.6141  182.6641 C   0  0  0  0  0  0  0  0  0  0  0  0
  154.9130  140.5051  183.7633 C   0  0  0  0  0  0  0  0  0  0  0  0
  154.6922  139.4458  184.6521 C   0  0  0  0  0  0  0  0  0  0  0  0
  153.7004  138.5131  184.4586 C   0  0  0  0  0  0  0  0  0  0  0  0
  152.9050  138.6723  183.3111 C   0  0  0  0  0  0  0  0  0  0  0  0
  151.8903  137.7921  183.0321 C   0  0  0  0  0  0  0  0  0  0  0  0
  150.1999  136.1157  181.1673 H   0  0  0  0  0  0  0  0  0  0  0  0
  152.2108  136.2663  188.7101 C   0  0  0  0  0  0  0  0  0  0  0  0
  150.9076  135.7387  188.8512 C   0  0  0  0  0  0  0  0  0  0  0  0
  150.2870  135.6377  190.0644 C   0  0  0  0  0  0  0  0  0  0  0  0
  150.9575  136.0663  191.1895 C   0  0  0  0  0  0  0  0  0  0  0  0
  150.2460  135.9770  192.7863 Cl  0  0  0  0  0  0  0  0  0  0  0  0
  152.2276  136.5863  191.0932 C   0  0  0  0  0  0  0  0  0  0  0  0
  152.8452  136.6832  189.8555 C   0  0  0  0  0  0  0  0  0  0  0  0
  152.9575  137.0500  192.2980 C   0  0  0  0  0  0  0  0  0  0  0  0
  154.1401  137.6368  191.8280 F   0  0  0  0  0  0  0  0  0  0  0  0
  152.1940  137.9377  192.9921 F   0  0  0  0  0  0  0  0  0  0  0  0
  153.3646  135.9813  193.0809 F   0  0  0  0  0  0  0  0  0  0  0  0
  7  8  1  0  0  0
  8  9  2  0  0  0
  9 10  1  0  0  0
 10 11  2  0  0  0
 11 12  1  0  0  0
 12 13  2  0  0  0
 13 14  1  0  0  0
 14 15  2  0  0  0
 15  1  1  0  0  0
  1  2  1  0  0  0
  2  3  2  0  0  0
  2  4  1  0  0  0
  4 19  1  0  0  0
 19 20  2  0  0  0
 20 21  1  0  0  0
 21 22  2  0  0  0
 22 23  1  0  0  0
 22 24  1  0  0  0
 24 25  2  0  0  0
 24 26  1  0  0  0
 26 27  1  0  0  0
 26 28  1  0  0  0
 26 29  1  0  0  0
 15 16  1  0  0  0
 16 17  2  0  0  0
 17  8  1  0  0  0
 16 11  1  0  0  0
 25 19  1  0  0  0
  7 18  1  0  0  0
  1  5  1  0  0  0
  4  6  1  0  0  0
M  END
> <minimizedAffinity>
-7.48986

> <CNNscore>
0.3472470343

> <CNNaffinity>
5.1584181786

> <CNN_VS>
1.7912454605

> <CNNaffinity_variance>
0.1292043477

$$$$
[H]Oc1c([H])c([H])c2c([H])c([H])c([H])c(N([H])C(=O)N([H])c3c([H])c([H])c(Cl)c(C(F)(F)F)c3[H])c2c1[H]


 29 31  0  0  0  0  0  0  0  0999 V2000
  154.1785  136.8766  187.5924 N   0  0  0  0  0  0  0  0  0  0  0  0
  153.8941  137.7531  186.5112 C   0  0  0  0  0  0  0  0  0  0  0  0
  153.8790  138.9875  186.5472 O   0  0  0  0  0  0  0  0  0  0  0  0
  153.5874  137.1766  185.2249 N   0  0  0  0  0  0  0  0  0  0  0  0
  154.1384  135.8425  187.3488 H   0  0  0  0  0  0  0  0  0  0  0  0
  153.5881  136.1069  185.1647 H   0  0  0  0  0  0  0  0  0  0  0  0
  150.2502  135.4740  190.3091 O   0  0  0  0  0  0  0  0  0  0  0  0
  151.4258  136.1156  190.6616 C   0  0  0  0  0  0  0  0  0  0  0  0
  151.7051  136.4980  191.9532 C   0  0  0  0  0  0  0  0  0  0  0  0
  152.8883  137.1342  192.2588 C   0  0  0  0  0  0  0  0  0  0  0  0
  153.8161  137.3929  191.2353 C   0  0  0  0  0  0  0  0  0  0  0  0
  154.9978  138.0289  191.5433 C   0  0  0  0  0  0  0  0  0  0  0  0
  155.9266  138.2998  190.5814 C   0  0  0  0  0  0  0  0  0  0  0  0
  155.6574  137.9170  189.2617 C   0  0  0  0  0  0  0  0  0  0  0  0
  154.4939  137.2796  188.8996 C   0  0  0  0  0  0  0  0  0  0  0  0
  153.5718  137.0249  189.9291 C   0  0  0  0  0  0  0  0  0  0  0  0
  152.3824  136.3937  189.6664 C   0  0  0  0  0  0  0  0  0  0  0  0
  149.4100  135.9668  190.0242 H   0  0  0  0  0  0  0  0  0  0  0  0
  153.2943  137.8971  184.0497 C   0  0  0  0  0  0  0  0  0  0  0  0
  152.5723  137.2034  183.0527 C   0  0  0  0  0  0  0  0  0  0  0  0
  152.2445  137.7753  181.8558 C   0  0  0  0  0  0  0  0  0  0  0  0
  152.6328  139.0753  181.6141 C   0  0  0  0  0  0  0  0  0  0  0  0
  152.2594  139.8932  180.1121 Cl  0  0  0  0  0  0  0  0  0  0  0  0
  153.3374  139.7838  182.5597 C   0  0  0  0  0  0  0  0  0  0  0  0
  153.6636  139.1908  183.7699 C   0  0  0  0  0  0  0  0  0  0  0  0
  153.7596  141.1833  182.3091 C   0  0  0  0  0  0  0  0  0  0  0  0
  154.1968  141.6792  183.5447 F   0  0  0  0  0  0  0  0  0  0  0  0
  154.7490  141.2110  181.3748 F   0  0  0  0  0  0  0  0  0  0  0  0
  152.6803  141.9779  181.9563 F   0  0  0  0  0  0  0  0  0  0  0  0
  7  8  1  0  0  0
  8  9  2  0  0  0
  9 10  1  0  0  0
 10 11  2  0  0  0
 11 12  1  0  0  0
 12 13  2  0  0  0
 13 14  1  0  0  0
 14 15  2  0  0  0
 15  1  1  0  0  0
  1  2  1  0  0  0
  2  3  2  0  0  0
  2  4  1  0  0  0
  4 19  1  0  0  0
 19 20  2  0  0  0
 20 21  1  0  0  0
 21 22  2  0  0  0
 22 23  1  0  0  0
 22 24  1  0  0  0
 24 25  2  0  0  0
 24 26  1  0  0  0
 26 27  1  0  0  0
 26 28  1  0  0  0
 26 29  1  0  0  0
 15 16  1  0  0  0
 16 17  2  0  0  0
 17  8  1  0  0  0
 16 11  1  0  0  0
 25 19  1  0  0  0
  7 18  1  0  0  0
  1  5  1  0  0  0
  4  6  1  0  0  0
M  END
> <minimizedAffinity>
-7.63948

> <CNNscore>
0.3279611468

> <CNNaffinity>
5.1442632675

> <CNN_VS>
1.6871185303

> <CNNaffinity_variance>
0.0768805146

$$$$
[H]Oc1c([H])c([H])c2c([H])c([H])c([H])c(N([H])C(=O)N([H])c3c([H])c([H])c(Cl)c(C(F)(F)F)c3[H])c2c1[H]


 29 31  0  0  0  0  0  0  0  0999 V2000
  156.8510  139.6446  183.6224 N   0  0  0  0  0  0  0  0  0  0  0  0
  155.4650  139.7535  183.3303 C   0  0  0  0  0  0  0  0  0  0  0  0
  154.8260  140.7977  183.1664 O   0  0  0  0  0  0  0  0  0  0  0  0
  154.6943  138.5407  183.2051 N   0  0  0  0  0  0  0  0  0  0  0  0
  157.2065  138.6480  183.7258 H   0  0  0  0  0  0  0  0  0  0  0  0
  155.2214  137.6188  183.3472 H   0  0  0  0  0  0  0  0  0  0  0  0
  157.5027  141.3795  179.0024 O   0  0  0  0  0  0  0  0  0  0  0  0
  158.0220  141.7928  180.2179 C   0  0  0  0  0  0  0  0  0  0  0  0
  158.8857  142.8573  180.3336 C   0  0  0  0  0  0  0  0  0  0  0  0
  159.3781  143.2338  181.5640 C   0  0  0  0  0  0  0  0  0  0  0  0
  158.9902  142.5186  182.7099 C   0  0  0  0  0  0  0  0  0  0  0  0
  159.4838  142.8969  183.9384 C   0  0  0  0  0  0  0  0  0  0  0  0
  159.1339  142.2310  185.0765 C   0  0  0  0  0  0  0  0  0  0  0  0
  158.2556  141.1452  184.9757 C   0  0  0  0  0  0  0  0  0  0  0  0
  157.7336  140.7256  183.7747 C   0  0  0  0  0  0  0  0  0  0  0  0
  158.1266  141.4463  182.6340 C   0  0  0  0  0  0  0  0  0  0  0  0
  157.6589  141.1034  181.3907 C   0  0  0  0  0  0  0  0  0  0  0  0
  157.9527  140.6897  178.4095 H   0  0  0  0  0  0  0  0  0  0  0  0
  153.3184  138.4677  182.9090 C   0  0  0  0  0  0  0  0  0  0  0  0
  152.5139  137.7676  183.8360 C   0  0  0  0  0  0  0  0  0  0  0  0
  151.1695  137.6002  183.6575 C   0  0  0  0  0  0  0  0  0  0  0  0
  150.5788  138.1339  182.5326 C   0  0  0  0  0  0  0  0  0  0  0  0
  148.8647  137.9720  182.2170 Cl  0  0  0  0  0  0  0  0  0  0  0  0
  151.3284  138.8219  181.6065 C   0  0  0  0  0  0  0  0  0  0  0  0
  152.6918  138.9839  181.8002 C   0  0  0  0  0  0  0  0  0  0  0  0
  150.7020  139.4000  180.3929 C   0  0  0  0  0  0  0  0  0  0  0  0
  150.2170  138.3113  179.6558 F   0  0  0  0  0  0  0  0  0  0  0  0
  149.7041  140.2555  180.7465 F   0  0  0  0  0  0  0  0  0  0  0  0
  151.6475  140.0024  179.5781 F   0  0  0  0  0  0  0  0  0  0  0  0
  7  8  1  0  0  0
  8  9  2  0  0  0
  9 10  1  0  0  0
 10 11  2  0  0  0
 11 12  1  0  0  0
 12 13  2  0  0  0
 13 14  1  0  0  0
 14 15  2  0  0  0
 15  1  1  0  0  0
  1  2  1  0  0  0
  2  3  2  0  0  0
  2  4  1  0  0  0
  4 19  1  0  0  0
 19 20  2  0  0  0
 20 21  1  0  0  0
 21 22  2  0  0  0
 22 23  1  0  0  0
 22 24  1  0  0  0
 24 25  2  0  0  0
 24 26  1  0  0  0
 26 27  1  0  0  0
 26 28  1  0  0  0
 26 29  1  0  0  0
 15 16  1  0  0  0
 16 17  2  0  0  0
 17  8  1  0  0  0
 16 11  1  0  0  0
 25 19  1  0  0  0
  7 18  1  0  0  0
  1  5  1  0  0  0
  4  6  1  0  0  0
M  END
> <minimizedAffinity>
-8.14893

> <CNNscore>
0.3258057535

> <CNNaffinity>
6.0287361145

> <CNN_VS>
1.9641969204

> <CNNaffinity_variance>
0.0760316998

$$$$
[H]Oc1c([H])c([H])c2c([H])c([H])c([H])c(N([H])C(=O)N([H])c3c([H])c([H])c(Cl)c(C(F)(F)F)c3[H])c2c1[H]


 29 31  0  0  0  0  0  0  0  0999 V2000
  152.2152  139.0017  182.9923 N   0  0  0  0  0  0  0  0  0  0  0  0
  153.2112  139.8588  182.4525 C   0  0  0  0  0  0  0  0  0  0  0  0
  153.3394  140.1859  181.2684 O   0  0  0  0  0  0  0  0  0  0  0  0
  154.1891  140.4229  183.3504 N   0  0  0  0  0  0  0  0  0  0  0  0
  152.2823  138.8482  184.0422 H   0  0  0  0  0  0  0  0  0  0  0  0
  154.1058  140.1526  184.3838 H   0  0  0  0  0  0  0  0  0  0  0  0
  153.5595  134.2117  182.8262 O   0  0  0  0  0  0  0  0  0  0  0  0
  152.4623  134.8740  182.3014 C   0  0  0  0  0  0  0  0  0  0  0  0
  151.4815  134.2322  181.5813 C   0  0  0  0  0  0  0  0  0  0  0  0
  150.4066  134.9313  181.0774 C   0  0  0  0  0  0  0  0  0  0  0  0
  150.3167  136.3153  181.3048 C   0  0  0  0  0  0  0  0  0  0  0  0
  149.2415  137.0118  180.8002 C   0  0  0  0  0  0  0  0  0  0  0  0
  149.1141  138.3557  180.9969 C   0  0  0  0  0  0  0  0  0  0  0  0
  150.1041  139.0238  181.7279 C   0  0  0  0  0  0  0  0  0  0  0  0
  151.1978  138.3770  182.2537 C   0  0  0  0  0  0  0  0  0  0  0  0
  151.2798  136.9934  182.0217 C   0  0  0  0  0  0  0  0  0  0  0  0
  152.3339  136.2612  182.5062 C   0  0  0  0  0  0  0  0  0  0  0  0
  154.4315  134.0907  182.3214 H   0  0  0  0  0  0  0  0  0  0  0  0
  155.2331  141.2964  182.9856 C   0  0  0  0  0  0  0  0  0  0  0  0
  154.9196  142.6740  182.9656 C   0  0  0  0  0  0  0  0  0  0  0  0
  155.8312  143.6263  182.6058 C   0  0  0  0  0  0  0  0  0  0  0  0
  157.1013  143.2269  182.2499 C   0  0  0  0  0  0  0  0  0  0  0  0
  158.3371  144.3721  181.7749 Cl  0  0  0  0  0  0  0  0  0  0  0  0
  157.4449  141.8947  182.2565 C   0  0  0  0  0  0  0  0  0  0  0  0
  156.5097  140.9391  182.6235 C   0  0  0  0  0  0  0  0  0  0  0  0
  158.8091  141.4550  181.8754 C   0  0  0  0  0  0  0  0  0  0  0  0
  158.9874  141.8653  180.5473 F   0  0  0  0  0  0  0  0  0  0  0  0
  159.7288  142.0179  182.7059 F   0  0  0  0  0  0  0  0  0  0  0  0
  158.9016  140.0725  181.8475 F   0  0  0  0  0  0  0  0  0  0  0  0
  7  8  1  0  0  0
  8  9  2  0  0  0
  9 10  1  0  0  0
 10 11  2  0  0  0
 11 12  1  0  0  0
 12 13  2  0  0  0
 13 14  1  0  0  0
 14 15  2  0  0  0
 15  1  1  0  0  0
  1  2  1  0  0  0
  2  3  2  0  0  0
  2  4  1  0  0  0
  4 19  1  0  0  0
 19 20  2  0  0  0
 20 21  1  0  0  0
 21 22  2  0  0  0
 22 23  1  0  0  0
 22 24  1  0  0  0
 24 25  2  0  0  0
 24 26  1  0  0  0
 26 27  1  0  0  0
 26 28  1  0  0  0
 26 29  1  0  0  0
 15 16  1  0  0  0
 16 17  2  0  0  0
 17  8  1  0  0  0
 16 11  1  0  0  0
 25 19  1  0  0  0
  7 18  1  0  0  0
  1  5  1  0  0  0
  4  6  1  0  0  0
M  END
> <minimizedAffinity>
-7.45460

> <CNNscore>
0.3112763762

> <CNNaffinity>
5.6901373863

> <CNN_VS>
1.7712053061

> <CNNaffinity_variance>
0.0771821812

$$$$
[H]Oc1c([H])c([H])c2c([H])c([H])c([H])c(N([H])C(=O)N([H])c3c([H])c([H])c(Cl)c(C(F)(F)F)c3[H])c2c1[H]


 29 31  0  0  0  0  0  0  0  0999 V2000
  154.9325  140.3714  184.0282 N   0  0  0  0  0  0  0  0  0  0  0  0
  156.3238  140.3911  184.3143 C   0  0  0  0  0  0  0  0  0  0  0  0
  156.9778  139.4945  184.8564 O   0  0  0  0  0  0  0  0  0  0  0  0
  157.0817  141.5624  183.9478 N   0  0  0  0  0  0  0  0  0  0  0  0
  154.5635  141.2490  183.5550 H   0  0  0  0  0  0  0  0  0  0  0  0
  156.5395  142.3593  183.4799 H   0  0  0  0  0  0  0  0  0  0  0  0
  152.4577  139.5864  179.7810 O   0  0  0  0  0  0  0  0  0  0  0  0
  152.3805  138.9625  181.0150 C   0  0  0  0  0  0  0  0  0  0  0  0
  151.5146  137.9244  181.2699 C   0  0  0  0  0  0  0  0  0  0  0  0
  151.4715  137.3328  182.5134 C   0  0  0  0  0  0  0  0  0  0  0  0
  152.3239  137.7995  183.5287 C   0  0  0  0  0  0  0  0  0  0  0  0
  152.2789  137.2066  184.7706 C   0  0  0  0  0  0  0  0  0  0  0  0
  153.0882  137.6276  185.7849 C   0  0  0  0  0  0  0  0  0  0  0  0
  153.9753  138.6834  185.5416 C   0  0  0  0  0  0  0  0  0  0  0  0
  154.0609  139.3105  184.3208 C   0  0  0  0  0  0  0  0  0  0  0  0
  153.2051  138.8376  183.3114 C   0  0  0  0  0  0  0  0  0  0  0  0
  153.2172  139.3995  182.0599 C   0  0  0  0  0  0  0  0  0  0  0  0
  151.8953  140.3922  179.5276 H   0  0  0  0  0  0  0  0  0  0  0  0
  158.4651  141.7425  184.1476 C   0  0  0  0  0  0  0  0  0  0  0  0
  159.3122  141.2912  183.1106 C   0  0  0  0  0  0  0  0  0  0  0  0
  160.6735  141.3820  183.1867 C   0  0  0  0  0  0  0  0  0  0  0  0
  161.2388  141.9336  184.3161 C   0  0  0  0  0  0  0  0  0  0  0  0
  162.9717  142.0928  184.5055 Cl  0  0  0  0  0  0  0  0  0  0  0  0
  160.4476  142.3841  185.3475 C   0  0  0  0  0  0  0  0  0  0  0  0
  159.0675  142.2854  185.2569 C   0  0  0  0  0  0  0  0  0  0  0  0
  161.0464  142.9793  186.5668 C   0  0  0  0  0  0  0  0  0  0  0  0
  159.9775  143.2213  187.4402 F   0  0  0  0  0  0  0  0  0  0  0  0
  161.9551  142.1213  187.1059 F   0  0  0  0  0  0  0  0  0  0  0  0
  161.5921  144.2253  186.3014 F   0  0  0  0  0  0  0  0  0  0  0  0
  7  8  1  0  0  0
  8  9  2  0  0  0
  9 10  1  0  0  0
 10 11  2  0  0  0
 11 12  1  0  0  0
 12 13  2  0  0  0
 13 14  1  0  0  0
 14 15  2  0  0  0
 15  1  1  0  0  0
  1  2  1  0  0  0
  2  3  2  0  0  0
  2  4  1  0  0  0
  4 19  1  0  0  0
 19 20  2  0  0  0
 20 21  1  0  0  0
 21 22  2  0  0  0
 22 23  1  0  0  0
 22 24  1  0  0  0
 24 25  2  0  0  0
 24 26  1  0  0  0
 26 27  1  0  0  0
 26 28  1  0  0  0
 26 29  1  0  0  0
 15 16  1  0  0  0
 16 17  2  0  0  0
 17  8  1  0  0  0
 16 11  1  0  0  0
 25 19  1  0  0  0
  7 18  1  0  0  0
  1  5  1  0  0  0
  4  6  1  0  0  0
M  END
> <minimizedAffinity>
-9.18123

> <CNNscore>
0.2930135727

> <CNNaffinity>
5.8401899338

> <CNN_VS>
1.7112549543

> <CNNaffinity_variance>
0.0889070034

$$$$
[H]c1nc(N2C([H])([H])C([H])([H])c3nc(N4C([H])([H])C([H])([H])OC([H])([H])C4([H])[H])nc(N([H])c4nc([H])c(C(F)(F)F)c([H])c4[H])c3C([H])([H])C2([H])[H])c(C(F)(F)F)c([H])c1[H]


 39 43  0  0  0  0  0  0  0  0999 V2000
  154.3857  138.3595  184.1358 C   0  0  0  0  0  0  0  0  0  0  0  0
  153.3167  138.1935  183.3359 N   0  0  0  0  0  0  0  0  0  0  0  0
  152.9408  139.0762  182.4120 C   0  0  0  0  0  0  0  0  0  0  0  0
  153.6414  140.2117  182.2343 N   0  0  0  0  0  0  0  0  0  0  0  0
  154.7509  140.4880  182.9879 C   0  0  0  0  0  0  0  0  0  0  0  0
  155.2879  141.7861  182.5883 C   0  0  0  0  0  0  0  0  0  0  0  0
  156.1509  142.4544  183.6829 C   0  0  0  0  0  0  0  0  0  0  0  0
  157.3334  141.7246  183.9313 N   0  0  0  0  0  0  0  0  0  0  0  0
  157.4558  140.2812  183.9583 C   0  0  0  0  0  0  0  0  0  0  0  0
  156.3245  139.6040  184.7473 C   0  0  0  0  0  0  0  0  0  0  0  0
  155.0901  139.5471  183.9162 C   0  0  0  0  0  0  0  0  0  0  0  0
  158.5968  142.3502  184.1496 C   0  0  0  0  0  0  0  0  0  0  0  0
  159.2671  142.0268  185.3130 N   0  0  0  0  0  0  0  0  0  0  0  0
  160.4181  142.5719  185.6766 C   0  0  0  0  0  0  0  0  0  0  0  0
  160.9759  143.5151  184.8451 C   0  0  0  0  0  0  0  0  0  0  0  0
  160.3336  143.8575  183.6777 C   0  0  0  0  0  0  0  0  0  0  0  0
  159.1167  143.2780  183.2953 C   0  0  0  0  0  0  0  0  0  0  0  0
  158.4879  143.6894  182.0038 C   0  0  0  0  0  0  0  0  0  0  0  0
  157.4596  144.5682  182.1501 F   0  0  0  0  0  0  0  0  0  0  0  0
  159.4766  144.4672  181.3126 F   0  0  0  0  0  0  0  0  0  0  0  0
  158.2721  142.6425  181.1398 F   0  0  0  0  0  0  0  0  0  0  0  0
  151.8253  138.8258  181.5750 N   0  0  0  0  0  0  0  0  0  0  0  0
  150.5629  138.3752  182.1290 C   0  0  0  0  0  0  0  0  0  0  0  0
  149.6811  137.9739  180.9666 C   0  0  0  0  0  0  0  0  0  0  0  0
  149.4569  138.9915  180.0611 O   0  0  0  0  0  0  0  0  0  0  0  0
  150.5774  139.7704  179.8068 C   0  0  0  0  0  0  0  0  0  0  0  0
  151.8547  139.0140  180.1429 C   0  0  0  0  0  0  0  0  0  0  0  0
  154.7509  137.5362  185.1914 N   0  0  0  0  0  0  0  0  0  0  0  0
  155.1132  136.5605  184.9363 H   0  0  0  0  0  0  0  0  0  0  0  0
  154.9782  138.1602  189.3470 C   0  0  0  0  0  0  0  0  0  0  0  0
  153.8441  138.5422  188.6750 C   0  0  0  0  0  0  0  0  0  0  0  0
  153.7581  138.3561  187.3043 C   0  0  0  0  0  0  0  0  0  0  0  0
  154.7831  137.7902  186.5797 C   0  0  0  0  0  0  0  0  0  0  0  0
  155.8699  137.4315  187.2769 N   0  0  0  0  0  0  0  0  0  0  0  0
  155.9772  137.5992  188.5750 C   0  0  0  0  0  0  0  0  0  0  0  0
  154.8886  139.6023  191.2458 F   0  0  0  0  0  0  0  0  0  0  0  0
  155.1641  138.3233  190.8191 C   0  0  0  0  0  0  0  0  0  0  0  0
  156.4998  138.0786  191.0929 F   0  0  0  0  0  0  0  0  0  0  0  0
  154.4522  137.3734  191.5408 F   0  0  0  0  0  0  0  0  0  0  0  0
 36 37  1  0  0  0
 37 38  1  0  0  0
 37 39  1  0  0  0
 37 30  1  0  0  0
 30 31  2  0  0  0
 31 32  1  0  0  0
 32 33  2  0  0  0
 33 28  1  0  0  0
 28  1  1  0  0  0
  1  2  2  0  0  0
  2  3  1  0  0  0
  3  4  2  0  0  0
  4  5  1  0  0  0
  5  6  1  0  0  0
  6  7  1  0  0  0
  7  8  1  0  0  0
  8  9  1  0  0  0
  9 10  1  0  0  0
 10 11  1  0  0  0
  8 12  1  0  0  0
 12 13  2  0  0  0
 13 14  1  0  0  0
 14 15  2  0  0  0
 15 16  1  0  0  0
 16 17  2  0  0  0
 17 18  1  0  0  0
 18 19  1  0  0  0
 18 20  1  0  0  0
 18 21  1  0  0  0
  3 22  1  0  0  0
 22 23  1  0  0  0
 23 24  1  0  0  0
 24 25  1  0  0  0
 25 26  1  0  0  0
 26 27  1  0  0  0
 33 34  1  0  0  0
 34 35  2  0  0  0
 35 30  1  0  0  0
 11  1  1  0  0  0
 17 12  1  0  0  0
 27 22  1  0  0  0
 11  5  2  0  0  0
 28 29  1  0  0  0
M  END
> <minimizedAffinity>
-11.19089

> <CNNscore>
0.7160745263

> <CNNaffinity>
7.6899461746

> <CNN_VS>
5.5065746307

> <CNNaffinity_variance>
0.0736141354

$$$$
[H]c1nc(N2C([H])([H])C([H])([H])c3nc(N4C([H])([H])C([H])([H])OC([H])([H])C4([H])[H])nc(N([H])c4nc([H])c(C(F)(F)F)c([H])c4[H])c3C([H])([H])C2([H])[H])c(C(F)(F)F)c([H])c1[H]


 39 43  0  0  0  0  0  0  0  0999 V2000
  154.3393  138.9021  184.2490 C   0  0  0  0  0  0  0  0  0  0  0  0
  155.1641  139.9528  184.0876 N   0  0  0  0  0  0  0  0  0  0  0  0
  155.1047  140.7866  183.0506 C   0  0  0  0  0  0  0  0  0  0  0  0
  154.1827  140.6053  182.0868 N   0  0  0  0  0  0  0  0  0  0  0  0
  153.2866  139.5715  182.1454 C   0  0  0  0  0  0  0  0  0  0  0  0
  152.4287  139.6162  180.9641 C   0  0  0  0  0  0  0  0  0  0  0  0
  151.7843  138.2528  180.6242 C   0  0  0  0  0  0  0  0  0  0  0  0
  150.8709  137.8459  181.6205 N   0  0  0  0  0  0  0  0  0  0  0  0
  151.0324  138.0216  183.0495 C   0  0  0  0  0  0  0  0  0  0  0  0
  152.4406  137.6487  183.5383 C   0  0  0  0  0  0  0  0  0  0  0  0
  153.3927  138.7518  183.2311 C   0  0  0  0  0  0  0  0  0  0  0  0
  149.6196  137.2313  181.3179 C   0  0  0  0  0  0  0  0  0  0  0  0
  149.6219  135.8654  181.1134 N   0  0  0  0  0  0  0  0  0  0  0  0
  148.5491  135.1697  180.7681 C   0  0  0  0  0  0  0  0  0  0  0  0
  147.3649  135.8501  180.6041 C   0  0  0  0  0  0  0  0  0  0  0  0
  147.3293  137.2110  180.8027 C   0  0  0  0  0  0  0  0  0  0  0  0
  148.4658  137.9438  181.1692 C   0  0  0  0  0  0  0  0  0  0  0  0
  148.3445  139.4176  181.3832 C   0  0  0  0  0  0  0  0  0  0  0  0
  149.1931  140.1545  180.6165 F   0  0  0  0  0  0  0  0  0  0  0  0
  147.0537  139.7861  180.8754 F   0  0  0  0  0  0  0  0  0  0  0  0
  148.2590  139.7751  182.7076 F   0  0  0  0  0  0  0  0  0  0  0  0
  155.9791  141.8975  182.9568 N   0  0  0  0  0  0  0  0  0  0  0  0
  157.3687  141.7236  182.5793 C   0  0  0  0  0  0  0  0  0  0  0  0
  158.0652  143.0467  182.8120 C   0  0  0  0  0  0  0  0  0  0  0  0
  157.5166  144.0965  182.1030 O   0  0  0  0  0  0  0  0  0  0  0  0
  156.1295  144.0753  182.0566 C   0  0  0  0  0  0  0  0  0  0  0  0
  155.5581  143.2570  183.2056 C   0  0  0  0  0  0  0  0  0  0  0  0
  154.4333  137.9354  185.2400 N   0  0  0  0  0  0  0  0  0  0  0  0
  154.4340  136.9140  184.9160 H   0  0  0  0  0  0  0  0  0  0  0  0
  155.0491  138.2205  189.3933 C   0  0  0  0  0  0  0  0  0  0  0  0
  153.8130  138.5222  188.8788 C   0  0  0  0  0  0  0  0  0  0  0  0
  153.5968  138.4463  187.5119 C   0  0  0  0  0  0  0  0  0  0  0  0
  154.5908  138.0705  186.6364 C   0  0  0  0  0  0  0  0  0  0  0  0
  155.7804  137.7841  187.1828 N   0  0  0  0  0  0  0  0  0  0  0  0
  156.0117  137.8505  188.4739 C   0  0  0  0  0  0  0  0  0  0  0  0
  154.6797  137.3446  191.5818 F   0  0  0  0  0  0  0  0  0  0  0  0
  155.3777  138.2766  190.8483 C   0  0  0  0  0  0  0  0  0  0  0  0
  154.9971  139.5273  191.3063 F   0  0  0  0  0  0  0  0  0  0  0  0
  156.7457  138.1933  191.0753 F   0  0  0  0  0  0  0  0  0  0  0  0
 36 37  1  0  0  0
 37 38  1  0  0  0
 37 39  1  0  0  0
 37 30  1  0  0  0
 30 31  2  0  0  0
 31 32  1  0  0  0
 32 33  2  0  0  0
 33 28  1  0  0  0
 28  1  1  0  0  0
  1  2  2  0  0  0
  2  3  1  0  0  0
  3  4  2  0  0  0
  4  5  1  0  0  0
  5  6  1  0  0  0
  6  7  1  0  0  0
  7  8  1  0  0  0
  8  9  1  0  0  0
  9 10  1  0  0  0
 10 11  1  0  0  0
  8 12  1  0  0  0
 12 13  2  0  0  0
 13 14  1  0  0  0
 14 15  2  0  0  0
 15 16  1  0  0  0
 16 17  2  0  0  0
 17 18  1  0  0  0
 18 19  1  0  0  0
 18 20  1  0  0  0
 18 21  1  0  0  0
  3 22  1  0  0  0
 22 23  1  0  0  0
 23 24  1  0  0  0
 24 25  1  0  0  0
 25 26  1  0  0  0
 26 27  1  0  0  0
 33 34  1  0  0  0
 34 35  2  0  0  0
 35 30  1  0  0  0
 11  1  1  0  0  0
 17 12  1  0  0  0
 27 22  1  0  0  0
 11  5  2  0  0  0
 28 29  1  0  0  0
M  END
> <minimizedAffinity>
-9.55074

> <CNNscore>
0.4587125480

> <CNNaffinity>
6.8480224609

> <CNN_VS>
3.1412737370

> <CNNaffinity_variance>
0.0400225259

$$$$
[H]c1nc(N2C([H])([H])C([H])([H])c3nc(N4C([H])([H])C([H])([H])OC([H])([H])C4([H])[H])nc(N([H])c4nc([H])c(C(F)(F)F)c([H])c4[H])c3C([H])([H])C2([H])[H])c(C(F)(F)F)c([H])c1[H]


 39 43  0  0  0  0  0  0  0  0999 V2000
  156.7930  141.9650  184.7267 C   0  0  0  0  0  0  0  0  0  0  0  0
  155.9209  140.9901  185.0419 N   0  0  0  0  0  0  0  0  0  0  0  0
  155.2390  140.2880  184.1384 C   0  0  0  0  0  0  0  0  0  0  0  0
  155.4013  140.5341  182.8250 N   0  0  0  0  0  0  0  0  0  0  0  0
  156.2651  141.5010  182.3842 C   0  0  0  0  0  0  0  0  0  0  0  0
  156.2180  141.5536  180.9253 C   0  0  0  0  0  0  0  0  0  0  0  0
  156.6817  142.9100  180.3469 C   0  0  0  0  0  0  0  0  0  0  0  0
  158.0526  143.1395  180.5929 N   0  0  0  0  0  0  0  0  0  0  0  0
  158.7711  142.7989  181.8041 C   0  0  0  0  0  0  0  0  0  0  0  0
  158.0049  143.1876  183.0781 C   0  0  0  0  0  0  0  0  0  0  0  0
  156.9381  142.1858  183.3538 C   0  0  0  0  0  0  0  0  0  0  0  0
  158.9265  143.7153  179.6235 C   0  0  0  0  0  0  0  0  0  0  0  0
  158.9112  143.1659  178.3565 N   0  0  0  0  0  0  0  0  0  0  0  0
  159.7080  143.5571  177.3735 C   0  0  0  0  0  0  0  0  0  0  0  0
  160.6022  144.5697  177.6328 C   0  0  0  0  0  0  0  0  0  0  0  0
  160.6405  145.1391  178.8846 C   0  0  0  0  0  0  0  0  0  0  0  0
  159.7954  144.7239  179.9218 C   0  0  0  0  0  0  0  0  0  0  0  0
  159.8846  145.4024  181.2501 C   0  0  0  0  0  0  0  0  0  0  0  0
  160.4882  146.6208  181.2039 F   0  0  0  0  0  0  0  0  0  0  0  0
  158.5363  145.7279  181.6192 F   0  0  0  0  0  0  0  0  0  0  0  0
  160.2809  144.5678  182.2677 F   0  0  0  0  0  0  0  0  0  0  0  0
  154.3617  139.2479  184.5334 N   0  0  0  0  0  0  0  0  0  0  0  0
  154.3377  137.9825  183.8249 C   0  0  0  0  0  0  0  0  0  0  0  0
  153.1432  137.2061  184.3348 C   0  0  0  0  0  0  0  0  0  0  0  0
  153.1674  136.9785  185.6962 O   0  0  0  0  0  0  0  0  0  0  0  0
  153.6201  138.0622  186.4361 C   0  0  0  0  0  0  0  0  0  0  0  0
  153.4598  139.3596  185.6565 C   0  0  0  0  0  0  0  0  0  0  0  0
  157.4357  142.8064  185.6236 N   0  0  0  0  0  0  0  0  0  0  0  0
  156.8515  143.6039  186.0370 H   0  0  0  0  0  0  0  0  0  0  0  0
  161.3944  142.7912  187.0516 C   0  0  0  0  0  0  0  0  0  0  0  0
  160.6024  141.6910  187.2661 C   0  0  0  0  0  0  0  0  0  0  0  0
  159.2923  141.6846  186.8141 C   0  0  0  0  0  0  0  0  0  0  0  0
  158.7470  142.7569  186.1442 C   0  0  0  0  0  0  0  0  0  0  0  0
  159.5566  143.8081  185.9562 N   0  0  0  0  0  0  0  0  0  0  0  0
  160.8004  143.8401  186.3765 C   0  0  0  0  0  0  0  0  0  0  0  0
  163.1475  144.1636  187.9095 F   0  0  0  0  0  0  0  0  0  0  0  0
  162.8135  142.8919  187.5032 C   0  0  0  0  0  0  0  0  0  0  0  0
  163.6128  142.5865  186.4138 F   0  0  0  0  0  0  0  0  0  0  0  0
  163.1189  141.9435  188.4713 F   0  0  0  0  0  0  0  0  0  0  0  0
 36 37  1  0  0  0
 37 38  1  0  0  0
 37 39  1  0  0  0
 37 30  1  0  0  0
 30 31  2  0  0  0
 31 32  1  0  0  0
 32 33  2  0  0  0
 33 28  1  0  0  0
 28  1  1  0  0  0
  1  2  2  0  0  0
  2  3  1  0  0  0
  3  4  2  0  0  0
  4  5  1  0  0  0
  5  6  1  0  0  0
  6  7  1  0  0  0
  7  8  1  0  0  0
  8  9  1  0  0  0
  9 10  1  0  0  0
 10 11  1  0  0  0
  8 12  1  0  0  0
 12 13  2  0  0  0
 13 14  1  0  0  0
 14 15  2  0  0  0
 15 16  1  0  0  0
 16 17  2  0  0  0
 17 18  1  0  0  0
 18 19  1  0  0  0
 18 20  1  0  0  0
 18 21  1  0  0  0
  3 22  1  0  0  0
 22 23  1  0  0  0
 23 24  1  0  0  0
 24 25  1  0  0  0
 25 26  1  0  0  0
 26 27  1  0  0  0
 33 34  1  0  0  0
 34 35  2  0  0  0
 35 30  1  0  0  0
 11  1  1  0  0  0
 17 12  1  0  0  0
 27 22  1  0  0  0
 11  5  2  0  0  0
 28 29  1  0  0  0
M  END
> <minimizedAffinity>
10.06856

> <CNNscore>
0.3909224868

> <CNNaffinity>
7.3295202255

> <CNN_VS>
2.8652741909

> <CNNaffinity_variance>
0.7841886878

$$$$
[H]c1nc(N2C([H])([H])C([H])([H])c3nc(N4C([H])([H])C([H])([H])OC([H])([H])C4([H])[H])nc(N([H])c4nc([H])c(C(F)(F)F)c([H])c4[H])c3C([H])([H])C2([H])[H])c(C(F)(F)F)c([H])c1[H]


 39 43  0  0  0  0  0  0  0  0999 V2000
  154.0337  139.5778  183.7427 C   0  0  0  0  0  0  0  0  0  0  0  0
  153.3073  139.5188  182.6117 N   0  0  0  0  0  0  0  0  0  0  0  0
  152.3424  138.6256  182.3989 C   0  0  0  0  0  0  0  0  0  0  0  0
  152.0436  137.7126  183.3417 N   0  0  0  0  0  0  0  0  0  0  0  0
  152.7137  137.6778  184.5355 C   0  0  0  0  0  0  0  0  0  0  0  0
  152.1907  136.5797  185.3442 C   0  0  0  0  0  0  0  0  0  0  0  0
  153.1848  136.0847  186.4196 C   0  0  0  0  0  0  0  0  0  0  0  0
  153.4220  137.0700  187.4021 N   0  0  0  0  0  0  0  0  0  0  0  0
  153.5489  138.4944  187.1692 C   0  0  0  0  0  0  0  0  0  0  0  0
  154.4458  138.8216  185.9652 C   0  0  0  0  0  0  0  0  0  0  0  0
  153.6892  138.6178  184.6989 C   0  0  0  0  0  0  0  0  0  0  0  0
  153.5248  136.7670  188.7923 C   0  0  0  0  0  0  0  0  0  0  0  0
  152.3459  136.5534  189.4792 N   0  0  0  0  0  0  0  0  0  0  0  0
  152.2829  136.3217  190.7817 C   0  0  0  0  0  0  0  0  0  0  0  0
  153.4623  136.2931  191.4890 C   0  0  0  0  0  0  0  0  0  0  0  0
  154.6538  136.5001  190.8332 C   0  0  0  0  0  0  0  0  0  0  0  0
  154.7170  136.7435  189.4550 C   0  0  0  0  0  0  0  0  0  0  0  0
  156.0504  136.9424  188.8107 C   0  0  0  0  0  0  0  0  0  0  0  0
  156.3983  138.2493  188.6626 F   0  0  0  0  0  0  0  0  0  0  0  0
  157.0204  136.4584  189.7515 F   0  0  0  0  0  0  0  0  0  0  0  0
  156.2600  136.1321  187.7203 F   0  0  0  0  0  0  0  0  0  0  0  0
  151.5878  138.6388  181.1997 N   0  0  0  0  0  0  0  0  0  0  0  0
  150.2204  138.1560  181.1732 C   0  0  0  0  0  0  0  0  0  0  0  0
  149.7999  138.0804  179.7216 C   0  0  0  0  0  0  0  0  0  0  0  0
  149.8821  139.2865  179.0550 O   0  0  0  0  0  0  0  0  0  0  0  0
  151.0072  140.0306  179.3827 C   0  0  0  0  0  0  0  0  0  0  0  0
  152.1046  139.1397  179.9470 C   0  0  0  0  0  0  0  0  0  0  0  0
  155.1259  140.4032  183.9690 N   0  0  0  0  0  0  0  0  0  0  0  0
  155.4600  140.4903  184.9835 H   0  0  0  0  0  0  0  0  0  0  0  0
  157.6540  142.4100  181.2686 C   0  0  0  0  0  0  0  0  0  0  0  0
  156.7215  143.1303  181.9723 C   0  0  0  0  0  0  0  0  0  0  0  0
  155.8721  142.4832  182.8559 C   0  0  0  0  0  0  0  0  0  0  0  0
  155.9315  141.1229  183.0601 C   0  0  0  0  0  0  0  0  0  0  0  0
  156.8574  140.4605  182.3531 N   0  0  0  0  0  0  0  0  0  0  0  0
  157.6722  141.0494  181.5083 C   0  0  0  0  0  0  0  0  0  0  0  0
  158.2286  142.8096  178.9876 F   0  0  0  0  0  0  0  0  0  0  0  0
  158.6078  143.0171  180.2941 C   0  0  0  0  0  0  0  0  0  0  0  0
  159.8296  142.3887  180.4710 F   0  0  0  0  0  0  0  0  0  0  0  0
  158.8348  144.3619  180.5587 F   0  0  0  0  0  0  0  0  0  0  0  0
 36 37  1  0  0  0
 37 38  1  0  0  0
 37 39  1  0  0  0
 37 30  1  0  0  0
 30 31  2  0  0  0
 31 32  1  0  0  0
 32 33  2  0  0  0
 33 28  1  0  0  0
 28  1  1  0  0  0
  1  2  2  0  0  0
  2  3  1  0  0  0
  3  4  2  0  0  0
  4  5  1  0  0  0
  5  6  1  0  0  0
  6  7  1  0  0  0
  7  8  1  0  0  0
  8  9  1  0  0  0
  9 10  1  0  0  0
 10 11  1  0  0  0
  8 12  1  0  0  0
 12 13  2  0  0  0
 13 14  1  0  0  0
 14 15  2  0  0  0
 15 16  1  0  0  0
 16 17  2  0  0  0
 17 18  1  0  0  0
 18 19  1  0  0  0
 18 20  1  0  0  0
 18 21  1  0  0  0
  3 22  1  0  0  0
 22 23  1  0  0  0
 23 24  1  0  0  0
 24 25  1  0  0  0
 25 26  1  0  0  0
 26 27  1  0  0  0
 33 34  1  0  0  0
 34 35  2  0  0  0
 35 30  1  0  0  0
 11  1  1  0  0  0
 17 12  1  0  0  0
 27 22  1  0  0  0
 11  5  2  0  0  0
 28 29  1  0  0  0
M  END
> <minimizedAffinity>
-9.33322

> <CNNscore>
0.3560778797

> <CNNaffinity>
6.8292779922

> <CNN_VS>
2.4317548275

> <CNNaffinity_variance>
0.1020429283

$$$$
[H]c1nc(N2C([H])([H])C([H])([H])c3nc(N4C([H])([H])C([H])([H])OC([H])([H])C4([H])[H])nc(N([H])c4nc([H])c(C(F)(F)F)c([H])c4[H])c3C([H])([H])C2([H])[H])c(C(F)(F)F)c([H])c1[H]


 39 43  0  0  0  0  0  0  0  0999 V2000
  153.7686  136.6820  187.6280 C   0  0  0  0  0  0  0  0  0  0  0  0
  153.5180  136.6793  188.9499 N   0  0  0  0  0  0  0  0  0  0  0  0
  152.3633  136.2827  189.4825 C   0  0  0  0  0  0  0  0  0  0  0  0
  151.3637  135.8524  188.6904 N   0  0  0  0  0  0  0  0  0  0  0  0
  151.5044  135.8072  187.3290 C   0  0  0  0  0  0  0  0  0  0  0  0
  150.2612  135.3201  186.7368 C   0  0  0  0  0  0  0  0  0  0  0  0
  150.0822  135.7387  185.2596 C   0  0  0  0  0  0  0  0  0  0  0  0
  151.0474  135.1332  184.4263 N   0  0  0  0  0  0  0  0  0  0  0  0
  152.4406  134.9108  184.7558 C   0  0  0  0  0  0  0  0  0  0  0  0
  153.1000  136.1370  185.4060 C   0  0  0  0  0  0  0  0  0  0  0  0
  152.7088  136.2225  186.8403 C   0  0  0  0  0  0  0  0  0  0  0  0
  150.7374  134.6143  183.1341 C   0  0  0  0  0  0  0  0  0  0  0  0
  151.3158  135.2416  182.0482 N   0  0  0  0  0  0  0  0  0  0  0  0
  151.0742  134.9083  180.7893 C   0  0  0  0  0  0  0  0  0  0  0  0
  150.1953  133.8770  180.5528 C   0  0  0  0  0  0  0  0  0  0  0  0
  149.6041  133.2306  181.6136 C   0  0  0  0  0  0  0  0  0  0  0  0
  149.8628  133.5847  182.9442 C   0  0  0  0  0  0  0  0  0  0  0  0
  149.1949  132.8244  184.0435 C   0  0  0  0  0  0  0  0  0  0  0  0
  148.1452  133.4823  184.6059 F   0  0  0  0  0  0  0  0  0  0  0  0
  148.5663  131.6956  183.4184 F   0  0  0  0  0  0  0  0  0  0  0  0
  150.0764  132.2318  184.9158 F   0  0  0  0  0  0  0  0  0  0  0  0
  152.1742  136.2690  190.8866 N   0  0  0  0  0  0  0  0  0  0  0  0
  153.2529  136.6251  191.7884 C   0  0  0  0  0  0  0  0  0  0  0  0
  152.8005  136.2737  193.1890 C   0  0  0  0  0  0  0  0  0  0  0  0
  151.6391  136.9121  193.5752 O   0  0  0  0  0  0  0  0  0  0  0  0
  150.6853  136.9935  192.5700 C   0  0  0  0  0  0  0  0  0  0  0  0
  150.9172  135.9256  191.5107 C   0  0  0  0  0  0  0  0  0  0  0  0
  154.9015  137.1957  187.0131 N   0  0  0  0  0  0  0  0  0  0  0  0
  155.8335  136.7243  187.2529 H   0  0  0  0  0  0  0  0  0  0  0  0
  155.1108  140.2660  184.1426 C   0  0  0  0  0  0  0  0  0  0  0  0
  156.2010  139.4543  184.3336 C   0  0  0  0  0  0  0  0  0  0  0  0
  156.1535  138.4468  185.2841 C   0  0  0  0  0  0  0  0  0  0  0  0
  155.0346  138.2237  186.0548 C   0  0  0  0  0  0  0  0  0  0  0  0
  153.9943  139.0390  185.8335 N   0  0  0  0  0  0  0  0  0  0  0  0
  154.0146  140.0021  184.9410 C   0  0  0  0  0  0  0  0  0  0  0  0
  156.2594  141.5249  182.4726 F   0  0  0  0  0  0  0  0  0  0  0  0
  155.0690  141.3773  183.1470 C   0  0  0  0  0  0  0  0  0  0  0  0
  154.8486  142.5499  183.8509 F   0  0  0  0  0  0  0  0  0  0  0  0
  153.9938  141.2539  182.2760 F   0  0  0  0  0  0  0  0  0  0  0  0
 36 37  1  0  0  0
 37 38  1  0  0  0
 37 39  1  0  0  0
 37 30  1  0  0  0
 30 31  2  0  0  0
 31 32  1  0  0  0
 32 33  2  0  0  0
 33 28  1  0  0  0
 28  1  1  0  0  0
  1  2  2  0  0  0
  2  3  1  0  0  0
  3  4  2  0  0  0
  4  5  1  0  0  0
  5  6  1  0  0  0
  6  7  1  0  0  0
  7  8  1  0  0  0
  8  9  1  0  0  0
  9 10  1  0  0  0
 10 11  1  0  0  0
  8 12  1  0  0  0
 12 13  2  0  0  0
 13 14  1  0  0  0
 14 15  2  0  0  0
 15 16  1  0  0  0
 16 17  2  0  0  0
 17 18  1  0  0  0
 18 19  1  0  0  0
 18 20  1  0  0  0
 18 21  1  0  0  0
  3 22  1  0  0  0
 22 23  1  0  0  0
 23 24  1  0  0  0
 24 25  1  0  0  0
 25 26  1  0  0  0
 26 27  1  0  0  0
 33 34  1  0  0  0
 34 35  2  0  0  0
 35 30  1  0  0  0
 11  1  1  0  0  0
 17 12  1  0  0  0
 27 22  1  0  0  0
 11  5  2  0  0  0
 28 29  1  0  0  0
M  END
> <minimizedAffinity>
-4.31248

> <CNNscore>
0.2606742978

> <CNNaffinity>
6.4985032082

> <CNN_VS>
1.6939927340

> <CNNaffinity_variance>
0.6043256521

$$$$
[H]c1nc(N2C([H])([H])C([H])([H])c3nc(N4C([H])([H])C([H])([H])OC([H])([H])C4([H])[H])nc(N([H])c4nc([H])c(C(F)(F)F)c([H])c4[H])c3C([H])([H])C2([H])[H])c(C(F)(F)F)c([H])c1[H]


 39 43  0  0  0  0  0  0  0  0999 V2000
  154.1298  139.5190  183.2470 C   0  0  0  0  0  0  0  0  0  0  0  0
  153.7181  138.4866  184.0053 N   0  0  0  0  0  0  0  0  0  0  0  0
  154.4386  137.9638  184.9960 C   0  0  0  0  0  0  0  0  0  0  0  0
  155.6524  138.4661  185.2899 N   0  0  0  0  0  0  0  0  0  0  0  0
  156.1747  139.5198  184.5885 C   0  0  0  0  0  0  0  0  0  0  0  0
  157.5010  139.8324  185.1143 C   0  0  0  0  0  0  0  0  0  0  0  0
  158.3993  140.5806  184.1029 C   0  0  0  0  0  0  0  0  0  0  0  0
  157.8991  141.8690  183.8161 N   0  0  0  0  0  0  0  0  0  0  0  0
  156.5039  142.2283  183.6628 C   0  0  0  0  0  0  0  0  0  0  0  0
  155.7259  141.2297  182.7918 C   0  0  0  0  0  0  0  0  0  0  0  0
  155.3914  140.0161  183.5874 C   0  0  0  0  0  0  0  0  0  0  0  0
  158.7406  143.0132  183.6824 C   0  0  0  0  0  0  0  0  0  0  0  0
  158.5414  143.8156  182.5761 N   0  0  0  0  0  0  0  0  0  0  0  0
  159.2834  144.8748  182.2903 C   0  0  0  0  0  0  0  0  0  0  0  0
  160.3120  145.1915  183.1470 C   0  0  0  0  0  0  0  0  0  0  0  0
  160.5348  144.4128  184.2591 C   0  0  0  0  0  0  0  0  0  0  0  0
  159.7472  143.2938  184.5593 C   0  0  0  0  0  0  0  0  0  0  0  0
  160.0405  142.5068  185.7951 C   0  0  0  0  0  0  0  0  0  0  0  0
  158.9298  142.1567  186.4985 F   0  0  0  0  0  0  0  0  0  0  0  0
  160.5468  141.2408  185.3469 F   0  0  0  0  0  0  0  0  0  0  0  0
  161.0899  143.0068  186.5286 F   0  0  0  0  0  0  0  0  0  0  0  0
  153.9330  136.8993  185.7827 N   0  0  0  0  0  0  0  0  0  0  0  0
  153.7586  135.5736  185.2208 C   0  0  0  0  0  0  0  0  0  0  0  0
  152.9855  134.7561  186.2326 C   0  0  0  0  0  0  0  0  0  0  0  0
  153.6046  134.6640  187.4631 O   0  0  0  0  0  0  0  0  0  0  0  0
  154.1989  135.8471  187.8799 C   0  0  0  0  0  0  0  0  0  0  0  0
  153.5793  137.0458  187.1758 C   0  0  0  0  0  0  0  0  0  0  0  0
  153.4779  140.0223  182.1302 N   0  0  0  0  0  0  0  0  0  0  0  0
  153.8967  140.9030  181.6861 H   0  0  0  0  0  0  0  0  0  0  0  0
  150.0890  138.7236  179.9996 C   0  0  0  0  0  0  0  0  0  0  0  0
  150.7124  137.8533  180.8586 C   0  0  0  0  0  0  0  0  0  0  0  0
  151.8374  138.2606  181.5580 C   0  0  0  0  0  0  0  0  0  0  0  0
  152.3604  139.5272  181.4239 C   0  0  0  0  0  0  0  0  0  0  0  0
  151.7190  140.3430  180.5760 N   0  0  0  0  0  0  0  0  0  0  0  0
  150.6530  139.9810  179.8998 C   0  0  0  0  0  0  0  0  0  0  0  0
  148.6980  137.0162  179.0818 F   0  0  0  0  0  0  0  0  0  0  0  0
  148.8763  138.3754  179.2021 C   0  0  0  0  0  0  0  0  0  0  0  0
  149.0671  138.8784  177.9257 F   0  0  0  0  0  0  0  0  0  0  0  0
  147.7370  139.0047  179.6879 F   0  0  0  0  0  0  0  0  0  0  0  0
 36 37  1  0  0  0
 37 38  1  0  0  0
 37 39  1  0  0  0
 37 30  1  0  0  0
 30 31  2  0  0  0
 31 32  1  0  0  0
 32 33  2  0  0  0
 33 28  1  0  0  0
 28  1  1  0  0  0
  1  2  2  0  0  0
  2  3  1  0  0  0
  3  4  2  0  0  0
  4  5  1  0  0  0
  5  6  1  0  0  0
  6  7  1  0  0  0
  7  8  1  0  0  0
  8  9  1  0  0  0
  9 10  1  0  0  0
 10 11  1  0  0  0
  8 12  1  0  0  0
 12 13  2  0  0  0
 13 14  1  0  0  0
 14 15  2  0  0  0
 15 16  1  0  0  0
 16 17  2  0  0  0
 17 18  1  0  0  0
 18 19  1  0  0  0
 18 20  1  0  0  0
 18 21  1  0  0  0
  3 22  1  0  0  0
 22 23  1  0  0  0
 23 24  1  0  0  0
 24 25  1  0  0  0
 25 26  1  0  0  0
 26 27  1  0  0  0
 33 34  1  0  0  0
 34 35  2  0  0  0
 35 30  1  0  0  0
 11  1  1  0  0  0
 17 12  1  0  0  0
 27 22  1  0  0  0
 11  5  2  0  0  0
 28 29  1  0  0  0
M  END
> <minimizedAffinity>
-9.38051

> <CNNscore>
0.2424707711

> <CNNaffinity>
6.9521698952

> <CNN_VS>
1.6856980324

> <CNNaffinity_variance>
0.0657053441

$$$$
[H]c1nc(N2C([H])([H])C([H])([H])c3nc(N4C([H])([H])C([H])([H])OC([H])([H])C4([H])[H])nc(N([H])c4nc([H])c(C(F)(F)F)c([H])c4[H])c3C([H])([H])C2([H])[H])c(C(F)(F)F)c([H])c1[H]


 39 43  0  0  0  0  0  0  0  0999 V2000
  154.4155  137.9481  185.1612 C   0  0  0  0  0  0  0  0  0  0  0  0
  154.6390  137.9165  186.4876 N   0  0  0  0  0  0  0  0  0  0  0  0
  153.7121  137.5870  187.3856 C   0  0  0  0  0  0  0  0  0  0  0  0
  152.4686  137.2595  186.9877 N   0  0  0  0  0  0  0  0  0  0  0  0
  152.1249  137.2527  185.6622 C   0  0  0  0  0  0  0  0  0  0  0  0
  150.7185  136.8794  185.5360 C   0  0  0  0  0  0  0  0  0  0  0  0
  150.0734  137.3624  184.2169 C   0  0  0  0  0  0  0  0  0  0  0  0
  150.6377  136.7179  183.0949 N   0  0  0  0  0  0  0  0  0  0  0  0
  152.0359  136.3824  182.9171 C   0  0  0  0  0  0  0  0  0  0  0  0
  152.9768  137.5331  183.3067 C   0  0  0  0  0  0  0  0  0  0  0  0
  153.1149  137.5957  184.7881 C   0  0  0  0  0  0  0  0  0  0  0  0
  149.8583  136.2695  181.9874 C   0  0  0  0  0  0  0  0  0  0  0  0
  149.3518  134.9863  182.0521 N   0  0  0  0  0  0  0  0  0  0  0  0
  148.6622  134.4157  181.0759 C   0  0  0  0  0  0  0  0  0  0  0  0
  148.4393  135.1462  179.9318 C   0  0  0  0  0  0  0  0  0  0  0  0
  148.9291  136.4283  179.8374 C   0  0  0  0  0  0  0  0  0  0  0  0
  149.6570  137.0295  180.8725 C   0  0  0  0  0  0  0  0  0  0  0  0
  150.1422  138.4325  180.7025 C   0  0  0  0  0  0  0  0  0  0  0  0
  150.0694  139.1790  181.8376 F   0  0  0  0  0  0  0  0  0  0  0  0
  151.5559  138.3370  180.4733 F   0  0  0  0  0  0  0  0  0  0  0  0
  149.6917  139.0339  179.5517 F   0  0  0  0  0  0  0  0  0  0  0  0
  154.0206  137.5370  188.7676 N   0  0  0  0  0  0  0  0  0  0  0  0
  153.9431  136.2904  189.5049 C   0  0  0  0  0  0  0  0  0  0  0  0
  154.0908  136.6279  190.9726 C   0  0  0  0  0  0  0  0  0  0  0  0
  155.2695  137.2784  191.2780 O   0  0  0  0  0  0  0  0  0  0  0  0
  155.6439  138.2279  190.3372 C   0  0  0  0  0  0  0  0  0  0  0  0
  154.4439  138.6926  189.5244 C   0  0  0  0  0  0  0  0  0  0  0  0
  155.3030  138.3989  184.1945 N   0  0  0  0  0  0  0  0  0  0  0  0
  155.9043  137.6555  183.7106 H   0  0  0  0  0  0  0  0  0  0  0  0
  156.1205  142.2428  182.6891 C   0  0  0  0  0  0  0  0  0  0  0  0
  154.8844  141.9848  183.2269 C   0  0  0  0  0  0  0  0  0  0  0  0
  154.5941  140.7206  183.7151 C   0  0  0  0  0  0  0  0  0  0  0  0
  155.5151  139.6975  183.6832 C   0  0  0  0  0  0  0  0  0  0  0  0
  156.7084  139.9950  183.1507 N   0  0  0  0  0  0  0  0  0  0  0  0
  157.0076  141.1837  182.6793 C   0  0  0  0  0  0  0  0  0  0  0  0
  157.2909  144.2958  183.0181 F   0  0  0  0  0  0  0  0  0  0  0  0
  156.5236  143.5695  182.1364 C   0  0  0  0  0  0  0  0  0  0  0  0
  155.3619  144.2906  181.9138 F   0  0  0  0  0  0  0  0  0  0  0  0
  157.1360  143.4506  180.8952 F   0  0  0  0  0  0  0  0  0  0  0  0
 36 37  1  0  0  0
 37 38  1  0  0  0
 37 39  1  0  0  0
 37 30  1  0  0  0
 30 31  2  0  0  0
 31 32  1  0  0  0
 32 33  2  0  0  0
 33 28  1  0  0  0
 28  1  1  0  0  0
  1  2  2  0  0  0
  2  3  1  0  0  0
  3  4  2  0  0  0
  4  5  1  0  0  0
  5  6  1  0  0  0
  6  7  1  0  0  0
  7  8  1  0  0  0
  8  9  1  0  0  0
  9 10  1  0  0  0
 10 11  1  0  0  0
  8 12  1  0  0  0
 12 13  2  0  0  0
 13 14  1  0  0  0
 14 15  2  0  0  0
 15 16  1  0  0  0
 16 17  2  0  0  0
 17 18  1  0  0  0
 18 19  1  0  0  0
 18 20  1  0  0  0
 18 21  1  0  0  0
  3 22  1  0  0  0
 22 23  1  0  0  0
 23 24  1  0  0  0
 24 25  1  0  0  0
 25 26  1  0  0  0
 26 27  1  0  0  0
 33 34  1  0  0  0
 34 35  2  0  0  0
 35 30  1  0  0  0
 11  1  1  0  0  0
 17 12  1  0  0  0
 27 22  1  0  0  0
 11  5  2  0  0  0
 28 29  1  0  0  0
M  END
> <minimizedAffinity>
-7.44907

> <CNNscore>
0.2416854501

> <CNNaffinity>
6.7013902664

> <CNN_VS>
1.6196285486

> <CNNaffinity_variance>
0.0221461821

$$$$
[H]c1nc(N2C([H])([H])C([H])([H])c3nc(N4C([H])([H])C([H])([H])OC([H])([H])C4([H])[H])nc(N([H])c4nc([H])c(C(F)(F)F)c([H])c4[H])c3C([H])([H])C2([H])[H])c(C(F)(F)F)c([H])c1[H]


 39 43  0  0  0  0  0  0  0  0999 V2000
  153.9985  138.1361  183.9912 C   0  0  0  0  0  0  0  0  0  0  0  0
  152.9355  138.1072  183.1668 N   0  0  0  0  0  0  0  0  0  0  0  0
  152.6173  139.0986  182.3362 C   0  0  0  0  0  0  0  0  0  0  0  0
  153.3745  140.2103  182.2857 N   0  0  0  0  0  0  0  0  0  0  0  0
  154.4839  140.3516  183.0761 C   0  0  0  0  0  0  0  0  0  0  0  0
  155.0890  141.6560  182.8202 C   0  0  0  0  0  0  0  0  0  0  0  0
  155.9655  142.1634  183.9880 C   0  0  0  0  0  0  0  0  0  0  0  0
  157.1075  141.3542  184.1716 N   0  0  0  0  0  0  0  0  0  0  0  0
  157.1599  139.9115  184.0489 C   0  0  0  0  0  0  0  0  0  0  0  0
  155.9848  139.2128  184.7504 C   0  0  0  0  0  0  0  0  0  0  0  0
  154.7626  139.3037  183.9045 C   0  0  0  0  0  0  0  0  0  0  0  0
  158.3958  141.8904  184.4677 C   0  0  0  0  0  0  0  0  0  0  0  0
  158.8243  141.8127  185.7783 N   0  0  0  0  0  0  0  0  0  0  0  0
  159.9688  142.3195  186.2112 C   0  0  0  0  0  0  0  0  0  0  0  0
  160.7756  142.9604  185.2999 C   0  0  0  0  0  0  0  0  0  0  0  0
  160.3778  143.0526  183.9862 C   0  0  0  0  0  0  0  0  0  0  0  0
  159.1671  142.5143  183.5312 C   0  0  0  0  0  0  0  0  0  0  0  0
  158.8115  142.6399  182.0854 C   0  0  0  0  0  0  0  0  0  0  0  0
  159.8879  142.7914  181.2673 F   0  0  0  0  0  0  0  0  0  0  0  0
  158.2903  141.3612  181.6938 F   0  0  0  0  0  0  0  0  0  0  0  0
  157.7496  143.4808  181.8519 F   0  0  0  0  0  0  0  0  0  0  0  0
  151.5046  138.9920  181.4655 N   0  0  0  0  0  0  0  0  0  0  0  0
  151.6249  139.3180  180.0574 C   0  0  0  0  0  0  0  0  0  0  0  0
  150.2262  139.3353  179.4803 C   0  0  0  0  0  0  0  0  0  0  0  0
  149.5491  138.1413  179.6268 O   0  0  0  0  0  0  0  0  0  0  0  0
  149.7526  137.5305  180.8566 C   0  0  0  0  0  0  0  0  0  0  0  0
  150.2020  138.5431  181.9003 C   0  0  0  0  0  0  0  0  0  0  0  0
  154.3068  137.1905  184.9588 N   0  0  0  0  0  0  0  0  0  0  0  0
  155.0546  136.4671  184.7022 H   0  0  0  0  0  0  0  0  0  0  0  0
  152.8083  136.6092  188.8482 C   0  0  0  0  0  0  0  0  0  0  0  0
  153.1883  137.8696  188.4599 C   0  0  0  0  0  0  0  0  0  0  0  0
  153.6962  138.0762  187.1871 C   0  0  0  0  0  0  0  0  0  0  0  0
  153.8336  137.0484  186.2812 C   0  0  0  0  0  0  0  0  0  0  0  0
  153.4491  135.8358  186.7028 N   0  0  0  0  0  0  0  0  0  0  0  0
  152.9671  135.6132  187.9039 C   0  0  0  0  0  0  0  0  0  0  0  0
  152.7032  135.0792  190.6760 F   0  0  0  0  0  0  0  0  0  0  0  0
  152.2547  136.2888  190.1968 C   0  0  0  0  0  0  0  0  0  0  0  0
  150.8794  136.1920  190.0626 F   0  0  0  0  0  0  0  0  0  0  0  0
  152.4725  137.3170  191.1052 F   0  0  0  0  0  0  0  0  0  0  0  0
 36 37  1  0  0  0
 37 38  1  0  0  0
 37 39  1  0  0  0
 37 30  1  0  0  0
 30 31  2  0  0  0
 31 32  1  0  0  0
 32 33  2  0  0  0
 33 28  1  0  0  0
 28  1  1  0  0  0
  1  2  2  0  0  0
  2  3  1  0  0  0
  3  4  2  0  0  0
  4  5  1  0  0  0
  5  6  1  0  0  0
  6  7  1  0  0  0
  7  8  1  0  0  0
  8  9  1  0  0  0
  9 10  1  0  0  0
 10 11  1  0  0  0
  8 12  1  0  0  0
 12 13  2  0  0  0
 13 14  1  0  0  0
 14 15  2  0  0  0
 15 16  1  0  0  0
 16 17  2  0  0  0
 17 18  1  0  0  0
 18 19  1  0  0  0
 18 20  1  0  0  0
 18 21  1  0  0  0
  3 22  1  0  0  0
 22 23  1  0  0  0
 23 24  1  0  0  0
 24 25  1  0  0  0
 25 26  1  0  0  0
 26 27  1  0  0  0
 33 34  1  0  0  0
 34 35  2  0  0  0
 35 30  1  0  0  0
 11  1  1  0  0  0
 17 12  1  0  0  0
 27 22  1  0  0  0
 11  5  2  0  0  0
 28 29  1  0  0  0
M  END
> <minimizedAffinity>
-9.42060

> <CNNscore>
0.2350038737

> <CNNaffinity>
6.9118347168

> <CNN_VS>
1.6243079901

> <CNNaffinity_variance>
0.0657276958

$$$$
[H]c1nc(N2C([H])([H])C([H])([H])c3nc(N4C([H])([H])C([H])([H])OC([H])([H])C4([H])[H])nc(N([H])c4nc([H])c(C(F)(F)F)c([H])c4[H])c3C([H])([H])C2([H])[H])c(C(F)(F)F)c([H])c1[H]


 39 43  0  0  0  0  0  0  0  0999 V2000
  153.2655  137.9455  184.0196 C   0  0  0  0  0  0  0  0  0  0  0  0
  152.0844  137.9985  183.3775 N   0  0  0  0  0  0  0  0  0  0  0  0
  150.9477  137.5197  183.8802 C   0  0  0  0  0  0  0  0  0  0  0  0
  150.9341  136.9427  185.0963 N   0  0  0  0  0  0  0  0  0  0  0  0
  152.0756  136.8351  185.8451 C   0  0  0  0  0  0  0  0  0  0  0  0
  151.7614  136.1545  187.0987 C   0  0  0  0  0  0  0  0  0  0  0  0
  152.9901  135.4858  187.7563 C   0  0  0  0  0  0  0  0  0  0  0  0
  153.9363  136.4420  188.1843 N   0  0  0  0  0  0  0  0  0  0  0  0
  154.2978  137.6577  187.4840 C   0  0  0  0  0  0  0  0  0  0  0  0
  154.5204  137.4330  185.9803 C   0  0  0  0  0  0  0  0  0  0  0  0
  153.2085  137.3451  185.2810 C   0  0  0  0  0  0  0  0  0  0  0  0
  154.6379  136.3355  189.4217 C   0  0  0  0  0  0  0  0  0  0  0  0
  154.0334  136.8808  190.5374 N   0  0  0  0  0  0  0  0  0  0  0  0
  154.5910  136.9090  191.7385 C   0  0  0  0  0  0  0  0  0  0  0  0
  155.8456  136.3630  191.8797 C   0  0  0  0  0  0  0  0  0  0  0  0
  156.4735  135.8101  190.7877 C   0  0  0  0  0  0  0  0  0  0  0  0
  155.8804  135.7806  189.5188 C   0  0  0  0  0  0  0  0  0  0  0  0
  156.6183  135.1474  188.3842 C   0  0  0  0  0  0  0  0  0  0  0  0
  157.1348  136.0421  187.4989 F   0  0  0  0  0  0  0  0  0  0  0  0
  157.7916  134.5527  188.9584 F   0  0  0  0  0  0  0  0  0  0  0  0
  155.9680  134.0647  187.8420 F   0  0  0  0  0  0  0  0  0  0  0  0
  149.7281  137.6391  183.1690 N   0  0  0  0  0  0  0  0  0  0  0  0
  148.5627  136.8648  183.5510 C   0  0  0  0  0  0  0  0  0  0  0  0
  147.5301  137.0407  182.4588 C   0  0  0  0  0  0  0  0  0  0  0  0
  147.1672  138.3550  182.2428 O   0  0  0  0  0  0  0  0  0  0  0  0
  148.2305  139.2453  182.3011 C   0  0  0  0  0  0  0  0  0  0  0  0
  149.5519  138.5336  182.0482 C   0  0  0  0  0  0  0  0  0  0  0  0
  154.4962  138.3160  183.4966 N   0  0  0  0  0  0  0  0  0  0  0  0
  155.1440  137.5216  183.1841 H   0  0  0  0  0  0  0  0  0  0  0  0
  156.0115  142.1333  182.5787 C   0  0  0  0  0  0  0  0  0  0  0  0
  156.6597  141.3638  183.5122 C   0  0  0  0  0  0  0  0  0  0  0  0
  156.1665  140.1097  183.8359 C   0  0  0  0  0  0  0  0  0  0  0  0
  155.0339  139.5967  183.2445 C   0  0  0  0  0  0  0  0  0  0  0  0
  154.4348  140.3818  182.3386 N   0  0  0  0  0  0  0  0  0  0  0  0
  154.8803  141.5743  182.0159 C   0  0  0  0  0  0  0  0  0  0  0  0
  155.4142  144.3648  181.9815 F   0  0  0  0  0  0  0  0  0  0  0  0
  156.4643  143.4951  182.1679 C   0  0  0  0  0  0  0  0  0  0  0  0
  157.1079  143.3622  180.9485 F   0  0  0  0  0  0  0  0  0  0  0  0
  157.4142  144.0115  183.0401 F   0  0  0  0  0  0  0  0  0  0  0  0
 36 37  1  0  0  0
 37 38  1  0  0  0
 37 39  1  0  0  0
 37 30  1  0  0  0
 30 31  2  0  0  0
 31 32  1  0  0  0
 32 33  2  0  0  0
 33 28  1  0  0  0
 28  1  1  0  0  0
  1  2  2  0  0  0
  2  3  1  0  0  0
  3  4  2  0  0  0
  4  5  1  0  0  0
  5  6  1  0  0  0
  6  7  1  0  0  0
  7  8  1  0  0  0
  8  9  1  0  0  0
  9 10  1  0  0  0
 10 11  1  0  0  0
  8 12  1  0  0  0
 12 13  2  0  0  0
 13 14  1  0  0  0
 14 15  2  0  0  0
 15 16  1  0  0  0
 16 17  2  0  0  0
 17 18  1  0  0  0
 18 19  1  0  0  0
 18 20  1  0  0  0
 18 21  1  0  0  0
  3 22  1  0  0  0
 22 23  1  0  0  0
 23 24  1  0  0  0
 24 25  1  0  0  0
 25 26  1  0  0  0
 26 27  1  0  0  0
 33 34  1  0  0  0
 34 35  2  0  0  0
 35 30  1  0  0  0
 11  1  1  0  0  0
 17 12  1  0  0  0
 27 22  1  0  0  0
 11  5  2  0  0  0
 28 29  1  0  0  0
M  END
> <minimizedAffinity>
-7.08151

> <CNNscore>
0.2323667109

> <CNNaffinity>
6.4958562851

> <CNN_VS>
1.5094207525

> <CNNaffinity_variance>
0.0385269299

$$$$
[H]c1nc(N2C([H])([H])C([H])([H])c3nc(-c4c([H])c([H])c([H])c([H])c4[H])nc(N([H])c4c([H])c([H])c(C(F)(F)F)c([H])c4[H])c3C([H])([H])C2([H])[H])c(C(F)(F)F)c([H])c1[H]


 39 43  0  0  0  0  0  0  0  0999 V2000
  153.9359  138.4568  183.8137 C   0  0  0  0  0  0  0  0  0  0  0  0
  152.9890  138.2217  182.8598 N   0  0  0  0  0  0  0  0  0  0  0  0
  152.6765  139.1024  181.9049 C   0  0  0  0  0  0  0  0  0  0  0  0
  153.3564  140.2795  181.8964 N   0  0  0  0  0  0  0  0  0  0  0  0
  154.3144  140.5912  182.8172 C   0  0  0  0  0  0  0  0  0  0  0  0
  155.0094  141.8363  182.5137 C   0  0  0  0  0  0  0  0  0  0  0  0
  156.0800  142.2683  183.4210 C   0  0  0  0  0  0  0  0  0  0  0  0
  157.0387  141.4213  184.0130 N   0  0  0  0  0  0  0  0  0  0  0  0
  156.8575  140.1005  184.7254 C   0  0  0  0  0  0  0  0  0  0  0  0
  155.4278  139.9495  185.0141 C   0  0  0  0  0  0  0  0  0  0  0  0
  154.5939  139.6705  183.7892 C   0  0  0  0  0  0  0  0  0  0  0  0
  158.4373  141.6765  184.0580 C   0  0  0  0  0  0  0  0  0  0  0  0
  158.9673  141.7823  185.3403 N   0  0  0  0  0  0  0  0  0  0  0  0
  160.2515  142.1031  185.5476 C   0  0  0  0  0  0  0  0  0  0  0  0
  161.0867  142.3333  184.4727 C   0  0  0  0  0  0  0  0  0  0  0  0
  160.5833  142.2296  183.2063 C   0  0  0  0  0  0  0  0  0  0  0  0
  159.2274  141.8939  182.9852 C   0  0  0  0  0  0  0  0  0  0  0  0
  158.7932  141.8020  181.5907 C   0  0  0  0  0  0  0  0  0  0  0  0
  158.0042  142.8575  181.1589 F   0  0  0  0  0  0  0  0  0  0  0  0
  158.3543  140.5905  181.1581 F   0  0  0  0  0  0  0  0  0  0  0  0
  159.9670  142.0132  180.7818 F   0  0  0  0  0  0  0  0  0  0  0  0
  151.5713  138.9299  180.9634 C   0  0  0  0  0  0  0  0  0  0  0  0
  151.3809  139.7348  179.8672 C   0  0  0  0  0  0  0  0  0  0  0  0
  150.3029  139.5148  178.9942 C   0  0  0  0  0  0  0  0  0  0  0  0
  149.4058  138.4935  179.1979 C   0  0  0  0  0  0  0  0  0  0  0  0
  149.5857  137.6743  180.3013 C   0  0  0  0  0  0  0  0  0  0  0  0
  150.6424  137.9218  181.1251 C   0  0  0  0  0  0  0  0  0  0  0  0
  154.3769  137.5229  184.7322 N   0  0  0  0  0  0  0  0  0  0  0  0
  154.6833  136.5465  184.4018 H   0  0  0  0  0  0  0  0  0  0  0  0
  154.7980  137.9718  188.9225 C   0  0  0  0  0  0  0  0  0  0  0  0
  155.7649  137.3622  188.1715 C   0  0  0  0  0  0  0  0  0  0  0  0
  155.6011  137.1778  186.7931 C   0  0  0  0  0  0  0  0  0  0  0  0
  154.4557  137.6069  186.1428 C   0  0  0  0  0  0  0  0  0  0  0  0
  153.4890  138.2081  186.9106 C   0  0  0  0  0  0  0  0  0  0  0  0
  153.6585  138.3893  188.2737 C   0  0  0  0  0  0  0  0  0  0  0  0
  154.4676  137.2650  191.1914 F   0  0  0  0  0  0  0  0  0  0  0  0
  155.0188  138.2285  190.3945 C   0  0  0  0  0  0  0  0  0  0  0  0
  154.6412  139.5139  190.7081 F   0  0  0  0  0  0  0  0  0  0  0  0
  156.4086  138.1728  190.6402 F   0  0  0  0  0  0  0  0  0  0  0  0
 36 37  1  0  0  0
 37 38  1  0  0  0
 37 39  1  0  0  0
 37 30  1  0  0  0
 30 31  2  0  0  0
 31 32  1  0  0  0
 32 33  2  0  0  0
 33 28  1  0  0  0
 28  1  1  0  0  0
  1  2  2  0  0  0
  2  3  1  0  0  0
  3  4  2  0  0  0
  4  5  1  0  0  0
  5  6  1  0  0  0
  6  7  1  0  0  0
  7  8  1  0  0  0
  8  9  1  0  0  0
  9 10  1  0  0  0
 10 11  1  0  0  0
  8 12  1  0  0  0
 12 13  2  0  0  0
 13 14  1  0  0  0
 14 15  2  0  0  0
 15 16  1  0  0  0
 16 17  2  0  0  0
 17 18  1  0  0  0
 18 19  1  0  0  0
 18 20  1  0  0  0
 18 21  1  0  0  0
  3 22  1  0  0  0
 22 23  2  0  0  0
 23 24  1  0  0  0
 24 25  2  0  0  0
 25 26  1  0  0  0
 26 27  2  0  0  0
 33 34  1  0  0  0
 34 35  2  0  0  0
 35 30  1  0  0  0
 11  1  1  0  0  0
 17 12  1  0  0  0
 27 22  1  0  0  0
 11  5  2  0  0  0
 28 29  1  0  0  0
M  END
> <minimizedAffinity>
-11.16962

> <CNNscore>
0.5894497633

> <CNNaffinity>
7.5435471535

> <CNN_VS>
4.4465422630

> <CNNaffinity_variance>
0.0515438542

$$$$
[H]c1nc(N2C([H])([H])C([H])([H])c3nc(-c4c([H])c([H])c([H])c([H])c4[H])nc(N([H])c4c([H])c([H])c(C(F)(F)F)c([H])c4[H])c3C([H])([H])C2([H])[H])c(C(F)(F)F)c([H])c1[H]


 39 43  0  0  0  0  0  0  0  0999 V2000
  153.9675  138.4690  183.8832 C   0  0  0  0  0  0  0  0  0  0  0  0
  153.0226  138.2274  182.9289 N   0  0  0  0  0  0  0  0  0  0  0  0
  152.7097  139.1028  181.9693 C   0  0  0  0  0  0  0  0  0  0  0  0
  153.3871  140.2813  181.9563 N   0  0  0  0  0  0  0  0  0  0  0  0
  154.3429  140.5996  182.8771 C   0  0  0  0  0  0  0  0  0  0  0  0
  155.0357  141.8447  182.5688 C   0  0  0  0  0  0  0  0  0  0  0  0
  156.1039  142.2834  183.4757 C   0  0  0  0  0  0  0  0  0  0  0  0
  157.0635  141.4413  184.0733 N   0  0  0  0  0  0  0  0  0  0  0  0
  156.8840  140.1235  184.7917 C   0  0  0  0  0  0  0  0  0  0  0  0
  155.4541  139.9708  185.0788 C   0  0  0  0  0  0  0  0  0  0  0  0
  154.6229  139.6841  183.8540 C   0  0  0  0  0  0  0  0  0  0  0  0
  158.4615  141.6998  184.1193 C   0  0  0  0  0  0  0  0  0  0  0  0
  158.9895  141.8110  185.4020 N   0  0  0  0  0  0  0  0  0  0  0  0
  160.2727  142.1354  185.6098 C   0  0  0  0  0  0  0  0  0  0  0  0
  161.1089  142.3639  184.5353 C   0  0  0  0  0  0  0  0  0  0  0  0
  160.6073  142.2549  183.2686 C   0  0  0  0  0  0  0  0  0  0  0  0
  159.2525  141.9155  183.0469 C   0  0  0  0  0  0  0  0  0  0  0  0
  158.8203  141.8180  181.6521 C   0  0  0  0  0  0  0  0  0  0  0  0
  158.0988  142.9090  181.1916 F   0  0  0  0  0  0  0  0  0  0  0  0
  158.3111  140.6255  181.2443 F   0  0  0  0  0  0  0  0  0  0  0  0
  160.0087  141.9392  180.8460 F   0  0  0  0  0  0  0  0  0  0  0  0
  151.6064  138.9234  181.0269 C   0  0  0  0  0  0  0  0  0  0  0  0
  150.6394  137.9591  181.1717 C   0  0  0  0  0  0  0  0  0  0  0  0
  149.5991  137.8402  180.2355 C   0  0  0  0  0  0  0  0  0  0  0  0
  149.5061  138.6775  179.1494 C   0  0  0  0  0  0  0  0  0  0  0  0
  150.4763  139.6544  178.9908 C   0  0  0  0  0  0  0  0  0  0  0  0
  151.4700  139.7359  179.9194 C   0  0  0  0  0  0  0  0  0  0  0  0
  154.4091  137.5405  184.8068 N   0  0  0  0  0  0  0  0  0  0  0  0
  154.7046  136.5585  184.4833 H   0  0  0  0  0  0  0  0  0  0  0  0
  154.8682  138.0293  188.9888 C   0  0  0  0  0  0  0  0  0  0  0  0
  155.8317  137.4194  188.2336 C   0  0  0  0  0  0  0  0  0  0  0  0
  155.6557  137.2218  186.8586 C   0  0  0  0  0  0  0  0  0  0  0  0
  154.5011  137.6375  186.2158 C   0  0  0  0  0  0  0  0  0  0  0  0
  153.5380  138.2393  186.9877 C   0  0  0  0  0  0  0  0  0  0  0  0
  153.7196  138.4336  188.3475 C   0  0  0  0  0  0  0  0  0  0  0  0
  154.6827  139.5430  190.8409 F   0  0  0  0  0  0  0  0  0  0  0  0
  155.1016  138.3006  190.4561 C   0  0  0  0  0  0  0  0  0  0  0  0
  156.4057  138.0103  190.7850 F   0  0  0  0  0  0  0  0  0  0  0  0
  154.3144  137.3903  191.1955 F   0  0  0  0  0  0  0  0  0  0  0  0
 36 37  1  0  0  0
 37 38  1  0  0  0
 37 39  1  0  0  0
 37 30  1  0  0  0
 30 31  2  0  0  0
 31 32  1  0  0  0
 32 33  2  0  0  0
 33 28  1  0  0  0
 28  1  1  0  0  0
  1  2  2  0  0  0
  2  3  1  0  0  0
  3  4  2  0  0  0
  4  5  1  0  0  0
  5  6  1  0  0  0
  6  7  1  0  0  0
  7  8  1  0  0  0
  8  9  1  0  0  0
  9 10  1  0  0  0
 10 11  1  0  0  0
  8 12  1  0  0  0
 12 13  2  0  0  0
 13 14  1  0  0  0
 14 15  2  0  0  0
 15 16  1  0  0  0
 16 17  2  0  0  0
 17 18  1  0  0  0
 18 19  1  0  0  0
 18 20  1  0  0  0
 18 21  1  0  0  0
  3 22  1  0  0  0
 22 23  2  0  0  0
 23 24  1  0  0  0
 24 25  2  0  0  0
 25 26  1  0  0  0
 26 27  2  0  0  0
 33 34  1  0  0  0
 34 35  2  0  0  0
 35 30  1  0  0  0
 11  1  1  0  0  0
 17 12  1  0  0  0
 27 22  1  0  0  0
 11  5  2  0  0  0
 28 29  1  0  0  0
M  END
> <minimizedAffinity>
-11.19301

> <CNNscore>
0.5437803268

> <CNNaffinity>
7.5196046829

> <CNN_VS>
4.0890130997

> <CNNaffinity_variance>
0.0536235794

$$$$
[H]c1nc(N2C([H])([H])C([H])([H])c3nc(-c4c([H])c([H])c([H])c([H])c4[H])nc(N([H])c4c([H])c([H])c(C(F)(F)F)c([H])c4[H])c3C([H])([H])C2([H])[H])c(C(F)(F)F)c([H])c1[H]


 39 43  0  0  0  0  0  0  0  0999 V2000
  158.6797  141.0851  185.5951 C   0  0  0  0  0  0  0  0  0  0  0  0
  159.6524  141.4580  186.4764 N   0  0  0  0  0  0  0  0  0  0  0  0
  160.8745  141.8440  186.0986 C   0  0  0  0  0  0  0  0  0  0  0  0
  161.1353  141.8693  184.7648 N   0  0  0  0  0  0  0  0  0  0  0  0
  160.2179  141.5081  183.8210 C   0  0  0  0  0  0  0  0  0  0  0  0
  160.6729  141.7644  182.4599 C   0  0  0  0  0  0  0  0  0  0  0  0
  159.7630  141.4377  181.3547 C   0  0  0  0  0  0  0  0  0  0  0  0
  158.3717  141.6642  181.3495 N   0  0  0  0  0  0  0  0  0  0  0  0
  157.3344  141.3504  182.4032 C   0  0  0  0  0  0  0  0  0  0  0  0
  157.9528  140.4383  183.3707 C   0  0  0  0  0  0  0  0  0  0  0  0
  158.9834  141.1024  184.2482 C   0  0  0  0  0  0  0  0  0  0  0  0
  157.6448  142.2582  180.2808 C   0  0  0  0  0  0  0  0  0  0  0  0
  157.7220  141.5707  179.0734 N   0  0  0  0  0  0  0  0  0  0  0  0
  157.1608  142.0476  177.9541 C   0  0  0  0  0  0  0  0  0  0  0  0
  156.4799  143.2483  177.9818 C   0  0  0  0  0  0  0  0  0  0  0  0
  156.3912  143.9344  179.1605 C   0  0  0  0  0  0  0  0  0  0  0  0
  156.9853  143.4344  180.3424 C   0  0  0  0  0  0  0  0  0  0  0  0
  156.8243  144.2440  181.5509 C   0  0  0  0  0  0  0  0  0  0  0  0
  156.1011  145.4137  181.3725 F   0  0  0  0  0  0  0  0  0  0  0  0
  157.9205  144.4044  182.3384 F   0  0  0  0  0  0  0  0  0  0  0  0
  155.9268  143.5179  182.4134 F   0  0  0  0  0  0  0  0  0  0  0  0
  161.9715  142.1103  187.0277 C   0  0  0  0  0  0  0  0  0  0  0  0
  161.8826  141.8974  188.3815 C   0  0  0  0  0  0  0  0  0  0  0  0
  162.9744  142.1662  189.2232 C   0  0  0  0  0  0  0  0  0  0  0  0
  164.1648  142.6454  188.7307 C   0  0  0  0  0  0  0  0  0  0  0  0
  164.2675  142.8659  187.3662 C   0  0  0  0  0  0  0  0  0  0  0  0
  163.1855  142.5947  186.5839 C   0  0  0  0  0  0  0  0  0  0  0  0
  157.3701  140.8079  185.9390 N   0  0  0  0  0  0  0  0  0  0  0  0
  156.7417  141.5857  186.3346 H   0  0  0  0  0  0  0  0  0  0  0  0
  155.1192  137.2226  186.0690 C   0  0  0  0  0  0  0  0  0  0  0  0
  156.0802  137.4937  187.0037 C   0  0  0  0  0  0  0  0  0  0  0  0
  156.8512  138.6604  186.9310 C   0  0  0  0  0  0  0  0  0  0  0  0
  156.6668  139.5801  185.9116 C   0  0  0  0  0  0  0  0  0  0  0  0
  155.7056  139.2904  184.9746 C   0  0  0  0  0  0  0  0  0  0  0  0
  154.9450  138.1350  185.0537 C   0  0  0  0  0  0  0  0  0  0  0  0
  153.1087  136.0705  185.4470 F   0  0  0  0  0  0  0  0  0  0  0  0
  154.2466  135.9968  186.2000 C   0  0  0  0  0  0  0  0  0  0  0  0
  154.0343  135.7121  187.5293 F   0  0  0  0  0  0  0  0  0  0  0  0
  154.9676  134.8951  185.6886 F   0  0  0  0  0  0  0  0  0  0  0  0
 36 37  1  0  0  0
 37 38  1  0  0  0
 37 39  1  0  0  0
 37 30  1  0  0  0
 30 31  2  0  0  0
 31 32  1  0  0  0
 32 33  2  0  0  0
 33 28  1  0  0  0
 28  1  1  0  0  0
  1  2  2  0  0  0
  2  3  1  0  0  0
  3  4  2  0  0  0
  4  5  1  0  0  0
  5  6  1  0  0  0
  6  7  1  0  0  0
  7  8  1  0  0  0
  8  9  1  0  0  0
  9 10  1  0  0  0
 10 11  1  0  0  0
  8 12  1  0  0  0
 12 13  2  0  0  0
 13 14  1  0  0  0
 14 15  2  0  0  0
 15 16  1  0  0  0
 16 17  2  0  0  0
 17 18  1  0  0  0
 18 19  1  0  0  0
 18 20  1  0  0  0
 18 21  1  0  0  0
  3 22  1  0  0  0
 22 23  2  0  0  0
 23 24  1  0  0  0
 24 25  2  0  0  0
 25 26  1  0  0  0
 26 27  2  0  0  0
 33 34  1  0  0  0
 34 35  2  0  0  0
 35 30  1  0  0  0
 11  1  1  0  0  0
 17 12  1  0  0  0
 27 22  1  0  0  0
 11  5  2  0  0  0
 28 29  1  0  0  0
M  END
> <minimizedAffinity>
12.18141

> <CNNscore>
0.4215884209

> <CNNaffinity>
7.3560743332

> <CNN_VS>
3.1012358665

> <CNNaffinity_variance>
1.1577546597

$$$$
[H]c1nc(N2C([H])([H])C([H])([H])c3nc(-c4c([H])c([H])c([H])c([H])c4[H])nc(N([H])c4c([H])c([H])c(C(F)(F)F)c([H])c4[H])c3C([H])([H])C2([H])[H])c(C(F)(F)F)c([H])c1[H]


 39 43  0  0  0  0  0  0  0  0999 V2000
  154.4238  139.2506  184.3611 C   0  0  0  0  0  0  0  0  0  0  0  0
  155.4505  140.1491  184.3763 N   0  0  0  0  0  0  0  0  0  0  0  0
  155.7169  140.9746  183.3599 C   0  0  0  0  0  0  0  0  0  0  0  0
  154.9048  140.9055  182.2721 N   0  0  0  0  0  0  0  0  0  0  0  0
  153.8602  140.0322  182.1785 C   0  0  0  0  0  0  0  0  0  0  0  0
  153.0438  140.2491  180.9903 C   0  0  0  0  0  0  0  0  0  0  0  0
  151.8742  139.3845  180.7888 C   0  0  0  0  0  0  0  0  0  0  0  0
  150.9865  138.9645  181.8000 N   0  0  0  0  0  0  0  0  0  0  0  0
  151.2766  138.3901  183.1678 C   0  0  0  0  0  0  0  0  0  0  0  0
  152.6930  138.0110  183.1936 C   0  0  0  0  0  0  0  0  0  0  0  0
  153.6300  139.1916  183.2327 C   0  0  0  0  0  0  0  0  0  0  0  0
  149.5675  138.9990  181.7073 C   0  0  0  0  0  0  0  0  0  0  0  0
  148.9094  139.1435  182.9248 N   0  0  0  0  0  0  0  0  0  0  0  0
  147.5728  139.1092  183.0115 C   0  0  0  0  0  0  0  0  0  0  0  0
  146.8124  138.9319  181.8729 C   0  0  0  0  0  0  0  0  0  0  0  0
  147.4427  138.7926  180.6683 C   0  0  0  0  0  0  0  0  0  0  0  0
  148.8534  138.8254  180.5748 C   0  0  0  0  0  0  0  0  0  0  0  0
  149.4260  138.6740  179.2366 C   0  0  0  0  0  0  0  0  0  0  0  0
  150.3423  139.6534  178.8843 F   0  0  0  0  0  0  0  0  0  0  0  0
  148.5707  138.3510  178.2307 F   0  0  0  0  0  0  0  0  0  0  0  0
  150.2909  137.5225  179.2894 F   0  0  0  0  0  0  0  0  0  0  0  0
  156.8923  141.8418  183.2975 C   0  0  0  0  0  0  0  0  0  0  0  0
  158.0362  141.6161  184.0230 C   0  0  0  0  0  0  0  0  0  0  0  0
  159.1366  142.4824  183.9154 C   0  0  0  0  0  0  0  0  0  0  0  0
  159.1143  143.5781  183.0859 C   0  0  0  0  0  0  0  0  0  0  0  0
  157.9653  143.8181  182.3489 C   0  0  0  0  0  0  0  0  0  0  0  0
  156.9191  142.9556  182.4827 C   0  0  0  0  0  0  0  0  0  0  0  0
  154.0386  138.4770  185.4397 N   0  0  0  0  0  0  0  0  0  0  0  0
  153.0262  138.5217  185.7995 H   0  0  0  0  0  0  0  0  0  0  0  0
  156.1547  135.9186  188.0693 C   0  0  0  0  0  0  0  0  0  0  0  0
  156.1772  137.2770  188.2268 C   0  0  0  0  0  0  0  0  0  0  0  0
  155.5112  138.1204  187.3289 C   0  0  0  0  0  0  0  0  0  0  0  0
  154.8064  137.6086  186.2518 C   0  0  0  0  0  0  0  0  0  0  0  0
  154.8005  136.2439  186.1001 C   0  0  0  0  0  0  0  0  0  0  0  0
  155.4599  135.4151  186.9933 C   0  0  0  0  0  0  0  0  0  0  0  0
  156.4085  135.2690  190.3649 F   0  0  0  0  0  0  0  0  0  0  0  0
  156.8166  135.0180  189.0851 C   0  0  0  0  0  0  0  0  0  0  0  0
  158.1808  135.0336  188.9073 F   0  0  0  0  0  0  0  0  0  0  0  0
  156.4158  133.6910  188.8139 F   0  0  0  0  0  0  0  0  0  0  0  0
 36 37  1  0  0  0
 37 38  1  0  0  0
 37 39  1  0  0  0
 37 30  1  0  0  0
 30 31  2  0  0  0
 31 32  1  0  0  0
 32 33  2  0  0  0
 33 28  1  0  0  0
 28  1  1  0  0  0
  1  2  2  0  0  0
  2  3  1  0  0  0
  3  4  2  0  0  0
  4  5  1  0  0  0
  5  6  1  0  0  0
  6  7  1  0  0  0
  7  8  1  0  0  0
  8  9  1  0  0  0
  9 10  1  0  0  0
 10 11  1  0  0  0
  8 12  1  0  0  0
 12 13  2  0  0  0
 13 14  1  0  0  0
 14 15  2  0  0  0
 15 16  1  0  0  0
 16 17  2  0  0  0
 17 18  1  0  0  0
 18 19  1  0  0  0
 18 20  1  0  0  0
 18 21  1  0  0  0
  3 22  1  0  0  0
 22 23  2  0  0  0
 23 24  1  0  0  0
 24 25  2  0  0  0
 25 26  1  0  0  0
 26 27  2  0  0  0
 33 34  1  0  0  0
 34 35  2  0  0  0
 35 30  1  0  0  0
 11  1  1  0  0  0
 17 12  1  0  0  0
 27 22  1  0  0  0
 11  5  2  0  0  0
 28 29  1  0  0  0
M  END
> <minimizedAffinity>
-8.46370

> <CNNscore>
0.4081262052

> <CNNaffinity>
6.6929140091

> <CNN_VS>
2.7315535545

> <CNNaffinity_variance>
0.1253429800

$$$$
[H]c1nc(N2C([H])([H])C([H])([H])c3nc(-c4c([H])c([H])c([H])c([H])c4[H])nc(N([H])c4c([H])c([H])c(C(F)(F)F)c([H])c4[H])c3C([H])([H])C2([H])[H])c(C(F)(F)F)c([H])c1[H]


 39 43  0  0  0  0  0  0  0  0999 V2000
  152.4158  136.2331  187.1199 C   0  0  0  0  0  0  0  0  0  0  0  0
  152.1687  135.5752  188.2894 N   0  0  0  0  0  0  0  0  0  0  0  0
  150.9394  135.3819  188.7759 C   0  0  0  0  0  0  0  0  0  0  0  0
  149.8982  135.8636  188.0468 N   0  0  0  0  0  0  0  0  0  0  0  0
  150.0624  136.5351  186.8699 C   0  0  0  0  0  0  0  0  0  0  0  0
  148.8006  136.8165  186.1962 C   0  0  0  0  0  0  0  0  0  0  0  0
  148.8476  137.5167  184.9064 C   0  0  0  0  0  0  0  0  0  0  0  0
  149.7907  137.2827  183.8852 N   0  0  0  0  0  0  0  0  0  0  0  0
  151.2952  137.1590  183.9646 C   0  0  0  0  0  0  0  0  0  0  0  0
  151.7077  137.6531  185.2822 C   0  0  0  0  0  0  0  0  0  0  0  0
  151.3374  136.7278  186.4136 C   0  0  0  0  0  0  0  0  0  0  0  0
  149.4788  137.1193  182.5071 C   0  0  0  0  0  0  0  0  0  0  0  0
  149.6423  138.2654  181.7349 N   0  0  0  0  0  0  0  0  0  0  0  0
  149.3099  138.2938  180.4373 C   0  0  0  0  0  0  0  0  0  0  0  0
  148.7950  137.1646  179.8326 C   0  0  0  0  0  0  0  0  0  0  0  0
  148.6318  136.0291  180.5756 C   0  0  0  0  0  0  0  0  0  0  0  0
  148.9792  135.9977  181.9461 C   0  0  0  0  0  0  0  0  0  0  0  0
  148.7714  134.7298  182.6467 C   0  0  0  0  0  0  0  0  0  0  0  0
  149.7096  134.4500  183.6287 F   0  0  0  0  0  0  0  0  0  0  0  0
  148.4489  133.6493  181.8876 F   0  0  0  0  0  0  0  0  0  0  0  0
  147.5938  134.8997  183.4598 F   0  0  0  0  0  0  0  0  0  0  0  0
  150.6615  134.8072  190.0912 C   0  0  0  0  0  0  0  0  0  0  0  0
  149.4243  134.8463  190.6859 C   0  0  0  0  0  0  0  0  0  0  0  0
  149.2175  134.2699  191.9499 C   0  0  0  0  0  0  0  0  0  0  0  0
  150.2338  133.6472  192.6344 C   0  0  0  0  0  0  0  0  0  0  0  0
  151.4878  133.6018  192.0460 C   0  0  0  0  0  0  0  0  0  0  0  0
  151.6481  134.1741  190.8200 C   0  0  0  0  0  0  0  0  0  0  0  0
  153.6576  136.3365  186.5219 N   0  0  0  0  0  0  0  0  0  0  0  0
  154.2765  137.1949  186.7125 H   0  0  0  0  0  0  0  0  0  0  0  0
  155.3621  133.5751  183.8003 C   0  0  0  0  0  0  0  0  0  0  0  0
  155.5104  133.4260  185.1517 C   0  0  0  0  0  0  0  0  0  0  0  0
  154.9816  134.3654  186.0454 C   0  0  0  0  0  0  0  0  0  0  0  0
  154.2898  135.4767  185.5923 C   0  0  0  0  0  0  0  0  0  0  0  0
  154.1570  135.6191  184.2330 C   0  0  0  0  0  0  0  0  0  0  0  0
  154.6810  134.6847  183.3544 C   0  0  0  0  0  0  0  0  0  0  0  0
  156.6013  133.0374  181.8175 F   0  0  0  0  0  0  0  0  0  0  0  0
  155.8746  132.5176  182.8515 C   0  0  0  0  0  0  0  0  0  0  0  0
  154.8427  131.6930  182.4665 F   0  0  0  0  0  0  0  0  0  0  0  0
  156.7709  131.6923  183.5660 F   0  0  0  0  0  0  0  0  0  0  0  0
 36 37  1  0  0  0
 37 38  1  0  0  0
 37 39  1  0  0  0
 37 30  1  0  0  0
 30 31  2  0  0  0
 31 32  1  0  0  0
 32 33  2  0  0  0
 33 28  1  0  0  0
 28  1  1  0  0  0
  1  2  2  0  0  0
  2  3  1  0  0  0
  3  4  2  0  0  0
  4  5  1  0  0  0
  5  6  1  0  0  0
  6  7  1  0  0  0
  7  8  1  0  0  0
  8  9  1  0  0  0
  9 10  1  0  0  0
 10 11  1  0  0  0
  8 12  1  0  0  0
 12 13  2  0  0  0
 13 14  1  0  0  0
 14 15  2  0  0  0
 15 16  1  0  0  0
 16 17  2  0  0  0
 17 18  1  0  0  0
 18 19  1  0  0  0
 18 20  1  0  0  0
 18 21  1  0  0  0
  3 22  1  0  0  0
 22 23  2  0  0  0
 23 24  1  0  0  0
 24 25  2  0  0  0
 25 26  1  0  0  0
 26 27  2  0  0  0
 33 34  1  0  0  0
 34 35  2  0  0  0
 35 30  1  0  0  0
 11  1  1  0  0  0
 17 12  1  0  0  0
 27 22  1  0  0  0
 11  5  2  0  0  0
 28 29  1  0  0  0
M  END
> <minimizedAffinity>
-4.34316

> <CNNscore>
0.3999781311

> <CNNaffinity>
6.5750646591

> <CNN_VS>
2.6298820972

> <CNNaffinity_variance>
1.7238048315

$$$$
[H]c1nc(N2C([H])([H])C([H])([H])c3nc(-c4c([H])c([H])c([H])c([H])c4[H])nc(N([H])c4c([H])c([H])c(C(F)(F)F)c([H])c4[H])c3C([H])([H])C2([H])[H])c(C(F)(F)F)c([H])c1[H]


 39 43  0  0  0  0  0  0  0  0999 V2000
  153.5271  139.0856  184.4113 C   0  0  0  0  0  0  0  0  0  0  0  0
  154.3257  140.1821  184.2638 N   0  0  0  0  0  0  0  0  0  0  0  0
  154.5718  140.7558  183.0825 C   0  0  0  0  0  0  0  0  0  0  0  0
  153.9774  140.2095  181.9889 N   0  0  0  0  0  0  0  0  0  0  0  0
  153.1687  139.1118  182.0526 C   0  0  0  0  0  0  0  0  0  0  0  0
  152.5261  138.8056  180.7804 C   0  0  0  0  0  0  0  0  0  0  0  0
  151.6124  137.6574  180.7270 C   0  0  0  0  0  0  0  0  0  0  0  0
  150.6827  137.3077  181.7272 N   0  0  0  0  0  0  0  0  0  0  0  0
  150.8643  137.1966  183.2237 C   0  0  0  0  0  0  0  0  0  0  0  0
  152.3058  137.1989  183.4927 C   0  0  0  0  0  0  0  0  0  0  0  0
  152.9548  138.5428  183.2779 C   0  0  0  0  0  0  0  0  0  0  0  0
  149.3218  136.9658  181.4938 C   0  0  0  0  0  0  0  0  0  0  0  0
  149.0887  135.6069  181.3056 N   0  0  0  0  0  0  0  0  0  0  0  0
  147.8733  135.1374  180.9931 C   0  0  0  0  0  0  0  0  0  0  0  0
  146.8119  136.0093  180.8551 C   0  0  0  0  0  0  0  0  0  0  0  0
  147.0227  137.3469  181.0405 C   0  0  0  0  0  0  0  0  0  0  0  0
  148.3053  137.8450  181.3675 C   0  0  0  0  0  0  0  0  0  0  0  0
  148.4197  139.2923  181.5515 C   0  0  0  0  0  0  0  0  0  0  0  0
  149.3670  139.9056  180.7456 F   0  0  0  0  0  0  0  0  0  0  0  0
  148.4200  139.7552  182.8295 F   0  0  0  0  0  0  0  0  0  0  0  0
  147.2141  139.8699  181.0132 F   0  0  0  0  0  0  0  0  0  0  0  0
  155.5328  141.8396  182.8843 C   0  0  0  0  0  0  0  0  0  0  0  0
  156.8850  141.6935  183.0739 C   0  0  0  0  0  0  0  0  0  0  0  0
  157.7599  142.7714  182.8607 C   0  0  0  0  0  0  0  0  0  0  0  0
  157.3031  144.0026  182.4549 C   0  0  0  0  0  0  0  0  0  0  0  0
  155.9402  144.1640  182.2609 C   0  0  0  0  0  0  0  0  0  0  0  0
  155.1247  143.0948  182.4801 C   0  0  0  0  0  0  0  0  0  0  0  0
  153.1456  138.5471  185.6257 N   0  0  0  0  0  0  0  0  0  0  0  0
  152.1186  138.2775  185.7957 H   0  0  0  0  0  0  0  0  0  0  0  0
  155.5407  138.1039  189.0905 C   0  0  0  0  0  0  0  0  0  0  0  0
  156.0832  138.0348  187.8369 C   0  0  0  0  0  0  0  0  0  0  0  0
  155.2800  138.1388  186.6945 C   0  0  0  0  0  0  0  0  0  0  0  0
  153.9098  138.3161  186.7943 C   0  0  0  0  0  0  0  0  0  0  0  0
  153.3773  138.3737  188.0587 C   0  0  0  0  0  0  0  0  0  0  0  0
  154.1781  138.2722  189.1848 C   0  0  0  0  0  0  0  0  0  0  0  0
  155.9854  138.8759  191.3182 F   0  0  0  0  0  0  0  0  0  0  0  0
  156.4270  138.0626  190.3128 C   0  0  0  0  0  0  0  0  0  0  0  0
  157.7382  138.2655  189.9483 F   0  0  0  0  0  0  0  0  0  0  0  0
  156.3797  136.7524  190.8381 F   0  0  0  0  0  0  0  0  0  0  0  0
 36 37  1  0  0  0
 37 38  1  0  0  0
 37 39  1  0  0  0
 37 30  1  0  0  0
 30 31  2  0  0  0
 31 32  1  0  0  0
 32 33  2  0  0  0
 33 28  1  0  0  0
 28  1  1  0  0  0
  1  2  2  0  0  0
  2  3  1  0  0  0
  3  4  2  0  0  0
  4  5  1  0  0  0
  5  6  1  0  0  0
  6  7  1  0  0  0
  7  8  1  0  0  0
  8  9  1  0  0  0
  9 10  1  0  0  0
 10 11  1  0  0  0
  8 12  1  0  0  0
 12 13  2  0  0  0
 13 14  1  0  0  0
 14 15  2  0  0  0
 15 16  1  0  0  0
 16 17  2  0  0  0
 17 18  1  0  0  0
 18 19  1  0  0  0
 18 20  1  0  0  0
 18 21  1  0  0  0
  3 22  1  0  0  0
 22 23  2  0  0  0
 23 24  1  0  0  0
 24 25  2  0  0  0
 25 26  1  0  0  0
 26 27  2  0  0  0
 33 34  1  0  0  0
 34 35  2  0  0  0
 35 30  1  0  0  0
 11  1  1  0  0  0
 17 12  1  0  0  0
 27 22  1  0  0  0
 11  5  2  0  0  0
 28 29  1  0  0  0
M  END
> <minimizedAffinity>
-9.31407

> <CNNscore>
0.3934707642

> <CNNaffinity>
6.6449203491

> <CNN_VS>
2.6145818233

> <CNNaffinity_variance>
0.0994932428

$$$$
[H]c1nc(N2C([H])([H])C([H])([H])c3nc(-c4c([H])c([H])c([H])c([H])c4[H])nc(N([H])c4c([H])c([H])c(C(F)(F)F)c([H])c4[H])c3C([H])([H])C2([H])[H])c(C(F)(F)F)c([H])c1[H]


 39 43  0  0  0  0  0  0  0  0999 V2000
  154.0433  139.7044  183.7700 C   0  0  0  0  0  0  0  0  0  0  0  0
  153.1490  139.8336  182.7477 N   0  0  0  0  0  0  0  0  0  0  0  0
  152.3277  138.8519  182.3642 C   0  0  0  0  0  0  0  0  0  0  0  0
  152.3965  137.6793  183.0482 N   0  0  0  0  0  0  0  0  0  0  0  0
  153.2658  137.4701  184.0795 C   0  0  0  0  0  0  0  0  0  0  0  0
  153.0490  136.1967  184.7551 C   0  0  0  0  0  0  0  0  0  0  0  0
  153.9093  135.8661  185.8982 C   0  0  0  0  0  0  0  0  0  0  0  0
  154.3226  136.7714  186.8966 N   0  0  0  0  0  0  0  0  0  0  0  0
  154.8942  138.1646  186.7656 C   0  0  0  0  0  0  0  0  0  0  0  0
  155.2791  138.3516  185.3631 C   0  0  0  0  0  0  0  0  0  0  0  0
  154.1023  138.4936  184.4312 C   0  0  0  0  0  0  0  0  0  0  0  0
  154.2825  136.5185  188.2957 C   0  0  0  0  0  0  0  0  0  0  0  0
  153.1841  137.0642  188.9531 N   0  0  0  0  0  0  0  0  0  0  0  0
  153.0482  136.9839  190.2836 C   0  0  0  0  0  0  0  0  0  0  0  0
  154.0105  136.3424  191.0376 C   0  0  0  0  0  0  0  0  0  0  0  0
  155.0938  135.7973  190.4072 C   0  0  0  0  0  0  0  0  0  0  0  0
  155.2408  135.8834  189.0034 C   0  0  0  0  0  0  0  0  0  0  0  0
  156.4337  135.2598  188.4292 C   0  0  0  0  0  0  0  0  0  0  0  0
  157.3446  136.1491  187.8793 F   0  0  0  0  0  0  0  0  0  0  0  0
  156.2463  134.1459  187.6731 F   0  0  0  0  0  0  0  0  0  0  0  0
  157.2056  134.7560  189.5369 F   0  0  0  0  0  0  0  0  0  0  0  0
  151.4655  138.9208  181.1854 C   0  0  0  0  0  0  0  0  0  0  0  0
  150.4406  138.0384  180.9473 C   0  0  0  0  0  0  0  0  0  0  0  0
  149.6414  138.1602  179.7987 C   0  0  0  0  0  0  0  0  0  0  0  0
  149.8487  139.1591  178.8776 C   0  0  0  0  0  0  0  0  0  0  0  0
  150.8807  140.0559  179.1053 C   0  0  0  0  0  0  0  0  0  0  0  0
  151.6343  139.9027  180.2300 C   0  0  0  0  0  0  0  0  0  0  0  0
  154.8121  140.7344  184.2783 N   0  0  0  0  0  0  0  0  0  0  0  0
  154.6501  141.0813  185.2831 H   0  0  0  0  0  0  0  0  0  0  0  0
  157.7609  143.2549  182.5785 C   0  0  0  0  0  0  0  0  0  0  0  0
  156.4278  143.4780  182.3696 C   0  0  0  0  0  0  0  0  0  0  0  0
  155.4587  142.6165  182.8982 C   0  0  0  0  0  0  0  0  0  0  0  0
  155.8161  141.5100  183.6511 C   0  0  0  0  0  0  0  0  0  0  0  0
  157.1581  141.2925  183.8445 C   0  0  0  0  0  0  0  0  0  0  0  0
  158.1116  142.1502  183.3203 C   0  0  0  0  0  0  0  0  0  0  0  0
  159.2209  143.9358  180.8005 F   0  0  0  0  0  0  0  0  0  0  0  0
  158.7916  144.2316  182.0636 C   0  0  0  0  0  0  0  0  0  0  0  0
  159.7989  144.3815  182.9888 F   0  0  0  0  0  0  0  0  0  0  0  0
  158.1765  145.4994  181.9667 F   0  0  0  0  0  0  0  0  0  0  0  0
 36 37  1  0  0  0
 37 38  1  0  0  0
 37 39  1  0  0  0
 37 30  1  0  0  0
 30 31  2  0  0  0
 31 32  1  0  0  0
 32 33  2  0  0  0
 33 28  1  0  0  0
 28  1  1  0  0  0
  1  2  2  0  0  0
  2  3  1  0  0  0
  3  4  2  0  0  0
  4  5  1  0  0  0
  5  6  1  0  0  0
  6  7  1  0  0  0
  7  8  1  0  0  0
  8  9  1  0  0  0
  9 10  1  0  0  0
 10 11  1  0  0  0
  8 12  1  0  0  0
 12 13  2  0  0  0
 13 14  1  0  0  0
 14 15  2  0  0  0
 15 16  1  0  0  0
 16 17  2  0  0  0
 17 18  1  0  0  0
 18 19  1  0  0  0
 18 20  1  0  0  0
 18 21  1  0  0  0
  3 22  1  0  0  0
 22 23  2  0  0  0
 23 24  1  0  0  0
 24 25  2  0  0  0
 25 26  1  0  0  0
 26 27  2  0  0  0
 33 34  1  0  0  0
 34 35  2  0  0  0
 35 30  1  0  0  0
 11  1  1  0  0  0
 17 12  1  0  0  0
 27 22  1  0  0  0
 11  5  2  0  0  0
 28 29  1  0  0  0
M  END
> <minimizedAffinity>
-9.49806

> <CNNscore>
0.3900762200

> <CNNaffinity>
6.9779129028

> <CNN_VS>
2.7219178677

> <CNNaffinity_variance>
0.2280485332

$$$$
[H]c1nc(N2C([H])([H])C([H])([H])c3nc(-c4c([H])c([H])c([H])c([H])c4[H])nc(N([H])c4c([H])c([H])c(C(F)(F)F)c([H])c4[H])c3C([H])([H])C2([H])[H])c(C(F)(F)F)c([H])c1[H]


 39 43  0  0  0  0  0  0  0  0999 V2000
  151.0475  137.1938  185.9966 C   0  0  0  0  0  0  0  0  0  0  0  0
  151.4601  136.1369  186.7545 N   0  0  0  0  0  0  0  0  0  0  0  0
  150.8791  134.9344  186.7132 C   0  0  0  0  0  0  0  0  0  0  0  0
  149.8341  134.7766  185.8583 N   0  0  0  0  0  0  0  0  0  0  0  0
  149.3597  135.7848  185.0700 C   0  0  0  0  0  0  0  0  0  0  0  0
  148.3402  135.3375  184.1289 C   0  0  0  0  0  0  0  0  0  0  0  0
  147.7672  136.3284  183.2091 C   0  0  0  0  0  0  0  0  0  0  0  0
  148.4907  137.3412  182.5475 N   0  0  0  0  0  0  0  0  0  0  0  0
  149.5117  138.3153  183.0893 C   0  0  0  0  0  0  0  0  0  0  0  0
  149.4232  138.2760  184.5525 C   0  0  0  0  0  0  0  0  0  0  0  0
  149.9703  137.0060  185.1534 C   0  0  0  0  0  0  0  0  0  0  0  0
  148.3772  137.6559  181.1649 C   0  0  0  0  0  0  0  0  0  0  0  0
  147.0864  137.5657  180.6530 N   0  0  0  0  0  0  0  0  0  0  0  0
  146.8306  137.7500  179.3507 C   0  0  0  0  0  0  0  0  0  0  0  0
  147.8614  138.0428  178.4803 C   0  0  0  0  0  0  0  0  0  0  0  0
  149.1348  138.1391  178.9674 C   0  0  0  0  0  0  0  0  0  0  0  0
  149.4075  137.9421  180.3410 C   0  0  0  0  0  0  0  0  0  0  0  0
  150.8038  138.0755  180.7584 C   0  0  0  0  0  0  0  0  0  0  0  0
  151.1294  139.3067  181.3071 F   0  0  0  0  0  0  0  0  0  0  0  0
  151.7516  137.5977  179.9092 F   0  0  0  0  0  0  0  0  0  0  0  0
  150.9682  137.2297  181.9135 F   0  0  0  0  0  0  0  0  0  0  0  0
  151.2126  133.8337  187.6158 C   0  0  0  0  0  0  0  0  0  0  0  0
  152.5006  133.5009  187.9566 C   0  0  0  0  0  0  0  0  0  0  0  0
  152.7578  132.4357  188.8352 C   0  0  0  0  0  0  0  0  0  0  0  0
  151.7410  131.6928  189.3862 C   0  0  0  0  0  0  0  0  0  0  0  0
  150.4363  132.0175  189.0497 C   0  0  0  0  0  0  0  0  0  0  0  0
  150.2288  133.0562  188.1928 C   0  0  0  0  0  0  0  0  0  0  0  0
  151.7029  138.4079  185.9155 N   0  0  0  0  0  0  0  0  0  0  0  0
  151.1904  139.3148  186.1823 H   0  0  0  0  0  0  0  0  0  0  0  0
  155.5133  139.3126  184.3029 C   0  0  0  0  0  0  0  0  0  0  0  0
  154.9301  138.0908  184.1084 C   0  0  0  0  0  0  0  0  0  0  0  0
  153.6896  137.7822  184.6800 C   0  0  0  0  0  0  0  0  0  0  0  0
  153.0103  138.7029  185.4608 C   0  0  0  0  0  0  0  0  0  0  0  0
  153.6119  139.9218  185.6561 C   0  0  0  0  0  0  0  0  0  0  0  0
  154.8385  140.2213  185.0857 C   0  0  0  0  0  0  0  0  0  0  0  0
  157.8916  139.5854  184.4621 F   0  0  0  0  0  0  0  0  0  0  0  0
  156.8165  139.6572  183.6217 C   0  0  0  0  0  0  0  0  0  0  0  0
  156.6939  140.8530  182.9522 F   0  0  0  0  0  0  0  0  0  0  0  0
  157.0525  138.6875  182.6222 F   0  0  0  0  0  0  0  0  0  0  0  0
 36 37  1  0  0  0
 37 38  1  0  0  0
 37 39  1  0  0  0
 37 30  1  0  0  0
 30 31  2  0  0  0
 31 32  1  0  0  0
 32 33  2  0  0  0
 33 28  1  0  0  0
 28  1  1  0  0  0
  1  2  2  0  0  0
  2  3  1  0  0  0
  3  4  2  0  0  0
  4  5  1  0  0  0
  5  6  1  0  0  0
  6  7  1  0  0  0
  7  8  1  0  0  0
  8  9  1  0  0  0
  9 10  1  0  0  0
 10 11  1  0  0  0
  8 12  1  0  0  0
 12 13  2  0  0  0
 13 14  1  0  0  0
 14 15  2  0  0  0
 15 16  1  0  0  0
 16 17  2  0  0  0
 17 18  1  0  0  0
 18 19  1  0  0  0
 18 20  1  0  0  0
 18 21  1  0  0  0
  3 22  1  0  0  0
 22 23  2  0  0  0
 23 24  1  0  0  0
 24 25  2  0  0  0
 25 26  1  0  0  0
 26 27  2  0  0  0
 33 34  1  0  0  0
 34 35  2  0  0  0
 35 30  1  0  0  0
 11  1  1  0  0  0
 17 12  1  0  0  0
 27 22  1  0  0  0
 11  5  2  0  0  0
 28 29  1  0  0  0
M  END
> <minimizedAffinity>
-1.08295

> <CNNscore>
0.3806536198

> <CNNaffinity>
6.6979508400

> <CNN_VS>
2.5495991707

> <CNNaffinity_variance>
2.2398774624

$$$$
[H]c1nc(N2C([H])([H])C([H])([H])c3nc(-c4c([H])c([H])c([H])c([H])c4[H])nc(N([H])c4c([H])c([H])c(C(F)(F)F)c([H])c4[H])c3C([H])([H])C2([H])[H])c(C(F)(F)F)c([H])c1[H]


 39 43  0  0  0  0  0  0  0  0999 V2000
  155.2438  139.3061  184.1582 C   0  0  0  0  0  0  0  0  0  0  0  0
  156.4910  139.6355  183.7135 N   0  0  0  0  0  0  0  0  0  0  0  0
  157.4924  139.9794  184.5285 C   0  0  0  0  0  0  0  0  0  0  0  0
  157.2357  139.9834  185.8633 N   0  0  0  0  0  0  0  0  0  0  0  0
  156.0146  139.6701  186.3865 C   0  0  0  0  0  0  0  0  0  0  0  0
  156.0238  139.5930  187.8423 C   0  0  0  0  0  0  0  0  0  0  0  0
  154.7713  139.2408  188.5230 C   0  0  0  0  0  0  0  0  0  0  0  0
  153.8527  138.2646  188.0870 N   0  0  0  0  0  0  0  0  0  0  0  0
  153.2668  138.0292  186.7136 C   0  0  0  0  0  0  0  0  0  0  0  0
  153.5575  139.2159  185.9027 C   0  0  0  0  0  0  0  0  0  0  0  0
  155.0103  139.3398  185.5187 C   0  0  0  0  0  0  0  0  0  0  0  0
  153.2668  137.2670  188.9145 C   0  0  0  0  0  0  0  0  0  0  0  0
  151.8790  137.3240  188.9988 N   0  0  0  0  0  0  0  0  0  0  0  0
  151.1879  136.5056  189.8036 C   0  0  0  0  0  0  0  0  0  0  0  0
  151.8529  135.5718  190.5728 C   0  0  0  0  0  0  0  0  0  0  0  0
  153.2157  135.4996  190.4989 C   0  0  0  0  0  0  0  0  0  0  0  0
  153.9474  136.3643  189.6524 C   0  0  0  0  0  0  0  0  0  0  0  0
  155.4014  136.1981  189.6431 C   0  0  0  0  0  0  0  0  0  0  0  0
  156.0352  136.5761  190.8172 F   0  0  0  0  0  0  0  0  0  0  0  0
  156.0622  136.5948  188.5235 F   0  0  0  0  0  0  0  0  0  0  0  0
  155.6511  134.7789  189.6638 F   0  0  0  0  0  0  0  0  0  0  0  0
  158.7898  140.4710  184.0674 C   0  0  0  0  0  0  0  0  0  0  0  0
  159.9650  140.2459  184.7411 C   0  0  0  0  0  0  0  0  0  0  0  0
  161.1827  140.7388  184.2439 C   0  0  0  0  0  0  0  0  0  0  0  0
  161.2469  141.4563  183.0733 C   0  0  0  0  0  0  0  0  0  0  0  0
  160.0678  141.6916  182.3840 C   0  0  0  0  0  0  0  0  0  0  0  0
  158.9073  141.1984  182.9002 C   0  0  0  0  0  0  0  0  0  0  0  0
  154.2259  138.8204  183.3592 N   0  0  0  0  0  0  0  0  0  0  0  0
  154.1089  137.7603  183.2222 H   0  0  0  0  0  0  0  0  0  0  0  0
  151.2586  141.0163  181.2829 C   0  0  0  0  0  0  0  0  0  0  0  0
  150.9437  139.8923  181.9957 C   0  0  0  0  0  0  0  0  0  0  0  0
  151.9350  139.1458  182.6444 C   0  0  0  0  0  0  0  0  0  0  0  0
  153.2675  139.5200  182.5878 C   0  0  0  0  0  0  0  0  0  0  0  0
  153.5707  140.6446  181.8605 C   0  0  0  0  0  0  0  0  0  0  0  0
  152.5846  141.3798  181.2227 C   0  0  0  0  0  0  0  0  0  0  0  0
  148.9698  141.7358  181.2885 F   0  0  0  0  0  0  0  0  0  0  0  0
  150.1717  141.8515  180.6487 C   0  0  0  0  0  0  0  0  0  0  0  0
  150.1237  141.6094  179.2951 F   0  0  0  0  0  0  0  0  0  0  0  0
  150.5387  143.2095  180.7765 F   0  0  0  0  0  0  0  0  0  0  0  0
 36 37  1  0  0  0
 37 38  1  0  0  0
 37 39  1  0  0  0
 37 30  1  0  0  0
 30 31  2  0  0  0
 31 32  1  0  0  0
 32 33  2  0  0  0
 33 28  1  0  0  0
 28  1  1  0  0  0
  1  2  2  0  0  0
  2  3  1  0  0  0
  3  4  2  0  0  0
  4  5  1  0  0  0
  5  6  1  0  0  0
  6  7  1  0  0  0
  7  8  1  0  0  0
  8  9  1  0  0  0
  9 10  1  0  0  0
 10 11  1  0  0  0
  8 12  1  0  0  0
 12 13  2  0  0  0
 13 14  1  0  0  0
 14 15  2  0  0  0
 15 16  1  0  0  0
 16 17  2  0  0  0
 17 18  1  0  0  0
 18 19  1  0  0  0
 18 20  1  0  0  0
 18 21  1  0  0  0
  3 22  1  0  0  0
 22 23  2  0  0  0
 23 24  1  0  0  0
 24 25  2  0  0  0
 25 26  1  0  0  0
 26 27  2  0  0  0
 33 34  1  0  0  0
 34 35  2  0  0  0
 35 30  1  0  0  0
 11  1  1  0  0  0
 17 12  1  0  0  0
 27 22  1  0  0  0
 11  5  2  0  0  0
 28 29  1  0  0  0
M  END
> <minimizedAffinity>
9.54897

> <CNNscore>
0.3781144023

> <CNNaffinity>
6.8144507408

> <CNN_VS>
2.5766420364

> <CNNaffinity_variance>
2.0946011543

$$$$
[H]c1nc(N([H])c2c([H])c([H])c(C(F)(F)F)c([H])c2[H])c2nc(N([H])c3c(Cl)c([H])c([H])c([H])c3Cl)sc2n1


 31 34  0  0  0  0  0  0  0  0999 V2000
  154.2163  139.6734  183.2395 C   0  0  0  0  0  0  0  0  0  0  0  0
  153.4191  139.1597  184.1817 N   0  0  0  0  0  0  0  0  0  0  0  0
  153.8064  138.7153  185.3735 C   0  0  0  0  0  0  0  0  0  0  0  0
  155.1314  138.7915  185.6560 N   0  0  0  0  0  0  0  0  0  0  0  0
  156.0031  139.3052  184.7412 C   0  0  0  0  0  0  0  0  0  0  0  0
  157.6914  139.6131  184.6797 S   0  0  0  0  0  0  0  0  0  0  0  0
  157.7756  140.2922  183.1150 C   0  0  0  0  0  0  0  0  0  0  0  0
  156.5159  140.2449  182.7298 N   0  0  0  0  0  0  0  0  0  0  0  0
  155.5998  139.7610  183.5118 C   0  0  0  0  0  0  0  0  0  0  0  0
  153.7249  140.0889  181.9919 N   0  0  0  0  0  0  0  0  0  0  0  0
  154.2659  140.8474  181.4656 H   0  0  0  0  0  0  0  0  0  0  0  0
  150.2516  138.7708  179.9142 C   0  0  0  0  0  0  0  0  0  0  0  0
  150.6378  138.1693  181.0852 C   0  0  0  0  0  0  0  0  0  0  0  0
  151.7872  138.5887  181.7737 C   0  0  0  0  0  0  0  0  0  0  0  0
  152.5759  139.6120  181.3126 C   0  0  0  0  0  0  0  0  0  0  0  0
  152.1782  140.2185  180.1156 C   0  0  0  0  0  0  0  0  0  0  0  0
  151.0540  139.8119  179.4389 C   0  0  0  0  0  0  0  0  0  0  0  0
  149.0159  138.7607  177.8802 F   0  0  0  0  0  0  0  0  0  0  0  0
  149.0067  138.3892  179.1978 C   0  0  0  0  0  0  0  0  0  0  0  0
  148.8710  137.0127  179.2533 F   0  0  0  0  0  0  0  0  0  0  0  0
  147.9263  138.9633  179.8727 F   0  0  0  0  0  0  0  0  0  0  0  0
  158.9264  140.8088  182.4033 N   0  0  0  0  0  0  0  0  0  0  0  0
  159.6578  140.1921  182.0412 H   0  0  0  0  0  0  0  0  0  0  0  0
  159.0036  142.2144  182.2185 C   0  0  0  0  0  0  0  0  0  0  0  0
  158.5978  142.7373  180.9808 C   0  0  0  0  0  0  0  0  0  0  0  0
  158.0619  141.6587  179.6915 Cl  0  0  0  0  0  0  0  0  0  0  0  0
  158.6355  144.0957  180.8133 C   0  0  0  0  0  0  0  0  0  0  0  0
  159.0593  144.9435  181.8276 C   0  0  0  0  0  0  0  0  0  0  0  0
  159.4440  144.3806  183.0142 C   0  0  0  0  0  0  0  0  0  0  0  0
  159.4306  143.0152  183.2489 C   0  0  0  0  0  0  0  0  0  0  0  0
  159.9490  142.3743  184.8083 Cl  0  0  0  0  0  0  0  0  0  0  0  0
 18 19  1  0  0  0
 19 20  1  0  0  0
 19 21  1  0  0  0
 19 12  1  0  0  0
 12 13  2  0  0  0
 13 14  1  0  0  0
 14 15  2  0  0  0
 15 10  1  0  0  0
 10  1  1  0  0  0
  1  2  2  0  0  0
  2  3  1  0  0  0
  3  4  2  0  0  0
  4  5  1  0  0  0
  5  6  1  0  0  0
  6  7  1  0  0  0
  7 22  1  0  0  0
 22 24  1  0  0  0
 24 25  2  0  0  0
 25 26  1  0  0  0
 25 27  1  0  0  0
 27 28  2  0  0  0
 28 29  1  0  0  0
 29 30  2  0  0  0
 30 31  1  0  0  0
  7  8  2  0  0  0
  8  9  1  0  0  0
 15 16  1  0  0  0
 16 17  2  0  0  0
 17 12  1  0  0  0
  9  1  1  0  0  0
  9  5  2  0  0  0
 30 24  1  0  0  0
 10 11  1  0  0  0
 22 23  1  0  0  0
M  END
> <minimizedAffinity>
-9.18919

> <CNNscore>
0.5475219488

> <CNNaffinity>
6.9310073853

> <CNN_VS>
3.7948787212

> <CNNaffinity_variance>
0.1686715931

$$$$
[H]c1nc(N([H])c2c([H])c([H])c(C(F)(F)F)c([H])c2[H])c2nc(N([H])c3c(Cl)c([H])c([H])c([H])c3Cl)sc2n1


 31 34  0  0  0  0  0  0  0  0999 V2000
  154.3254  139.7461  183.2971 C   0  0  0  0  0  0  0  0  0  0  0  0
  153.5071  139.2061  184.2059 N   0  0  0  0  0  0  0  0  0  0  0  0
  153.8672  138.7280  185.3932 C   0  0  0  0  0  0  0  0  0  0  0  0
  155.1854  138.7960  185.7080 N   0  0  0  0  0  0  0  0  0  0  0  0
  156.0775  139.3351  184.8283 C   0  0  0  0  0  0  0  0  0  0  0  0
  157.7666  139.6444  184.8141 S   0  0  0  0  0  0  0  0  0  0  0  0
  157.8864  140.3674  183.2716 C   0  0  0  0  0  0  0  0  0  0  0  0
  156.6358  140.3313  182.8565 N   0  0  0  0  0  0  0  0  0  0  0  0
  155.7022  139.8256  183.6034 C   0  0  0  0  0  0  0  0  0  0  0  0
  153.8624  140.1967  182.0509 N   0  0  0  0  0  0  0  0  0  0  0  0
  154.4564  140.9134  181.5230 H   0  0  0  0  0  0  0  0  0  0  0  0
  150.3191  138.9127  180.0725 C   0  0  0  0  0  0  0  0  0  0  0  0
  151.1760  139.7987  179.4698 C   0  0  0  0  0  0  0  0  0  0  0  0
  152.3422  140.2371  180.1170 C   0  0  0  0  0  0  0  0  0  0  0  0
  152.6796  139.8058  181.3747 C   0  0  0  0  0  0  0  0  0  0  0  0
  151.7991  138.9052  181.9850 C   0  0  0  0  0  0  0  0  0  0  0  0
  150.6573  138.4729  181.3553 C   0  0  0  0  0  0  0  0  0  0  0  0
  149.0180  137.0198  179.4493 F   0  0  0  0  0  0  0  0  0  0  0  0
  149.1112  138.3842  179.3868 C   0  0  0  0  0  0  0  0  0  0  0  0
  147.9893  138.9179  179.9973 F   0  0  0  0  0  0  0  0  0  0  0  0
  149.1393  138.8243  178.0609 F   0  0  0  0  0  0  0  0  0  0  0  0
  159.0529  140.9037  182.6013 N   0  0  0  0  0  0  0  0  0  0  0  0
  159.8468  140.3119  182.3447 H   0  0  0  0  0  0  0  0  0  0  0  0
  159.0555  142.2921  182.3047 C   0  0  0  0  0  0  0  0  0  0  0  0
  159.4690  143.1780  183.3117 C   0  0  0  0  0  0  0  0  0  0  0  0
  159.9170  142.5676  184.9053 Cl  0  0  0  0  0  0  0  0  0  0  0  0
  159.5085  144.5143  183.0159 C   0  0  0  0  0  0  0  0  0  0  0  0
  159.1538  144.9940  181.7624 C   0  0  0  0  0  0  0  0  0  0  0  0
  158.7581  144.0865  180.8176 C   0  0  0  0  0  0  0  0  0  0  0  0
  158.6952  142.7224  181.0516 C   0  0  0  0  0  0  0  0  0  0  0  0
  158.1681  141.6233  179.7765 Cl  0  0  0  0  0  0  0  0  0  0  0  0
 18 19  1  0  0  0
 19 20  1  0  0  0
 19 21  1  0  0  0
 19 12  1  0  0  0
 12 13  2  0  0  0
 13 14  1  0  0  0
 14 15  2  0  0  0
 15 10  1  0  0  0
 10  1  1  0  0  0
  1  2  2  0  0  0
  2  3  1  0  0  0
  3  4  2  0  0  0
  4  5  1  0  0  0
  5  6  1  0  0  0
  6  7  1  0  0  0
  7 22  1  0  0  0
 22 24  1  0  0  0
 24 25  2  0  0  0
 25 26  1  0  0  0
 25 27  1  0  0  0
 27 28  2  0  0  0
 28 29  1  0  0  0
 29 30  2  0  0  0
 30 31  1  0  0  0
  7  8  2  0  0  0
  8  9  1  0  0  0
 15 16  1  0  0  0
 16 17  2  0  0  0
 17 12  1  0  0  0
  9  1  1  0  0  0
  9  5  2  0  0  0
 30 24  1  0  0  0
 10 11  1  0  0  0
 22 23  1  0  0  0
M  END
> <minimizedAffinity>
-9.18645

> <CNNscore>
0.5219773650

> <CNNaffinity>
6.9443483353

> <CNN_VS>
3.6247925758

> <CNNaffinity_variance>
0.1193384528

$$$$
[H]c1nc(N([H])c2c([H])c([H])c(C(F)(F)F)c([H])c2[H])c2nc(N([H])c3c(Cl)c([H])c([H])c([H])c3Cl)sc2n1


 31 34  0  0  0  0  0  0  0  0999 V2000
  154.0237  137.9280  184.4862 C   0  0  0  0  0  0  0  0  0  0  0  0
  152.9056  137.3267  184.0674 N   0  0  0  0  0  0  0  0  0  0  0  0
  152.0639  137.7962  183.1514 C   0  0  0  0  0  0  0  0  0  0  0  0
  152.3705  138.9943  182.5930 N   0  0  0  0  0  0  0  0  0  0  0  0
  153.4965  139.6640  182.9723 C   0  0  0  0  0  0  0  0  0  0  0  0
  154.2685  141.1333  182.5318 S   0  0  0  0  0  0  0  0  0  0  0  0
  155.6235  141.0364  183.5666 C   0  0  0  0  0  0  0  0  0  0  0  0
  155.4104  139.8933  184.1874 N   0  0  0  0  0  0  0  0  0  0  0  0
  154.3615  139.1771  183.9192 C   0  0  0  0  0  0  0  0  0  0  0  0
  154.8390  137.3739  185.4856 N   0  0  0  0  0  0  0  0  0  0  0  0
  155.5363  136.6136  185.2014 H   0  0  0  0  0  0  0  0  0  0  0  0
  154.9989  138.2836  189.6407 C   0  0  0  0  0  0  0  0  0  0  0  0
  153.8586  138.5200  188.9152 C   0  0  0  0  0  0  0  0  0  0  0  0
  153.7978  138.2336  187.5421 C   0  0  0  0  0  0  0  0  0  0  0  0
  154.8675  137.7085  186.8627 C   0  0  0  0  0  0  0  0  0  0  0  0
  156.0285  137.4734  187.6080 C   0  0  0  0  0  0  0  0  0  0  0  0
  156.0924  137.7513  188.9518 C   0  0  0  0  0  0  0  0  0  0  0  0
  154.9402  139.8398  191.4404 F   0  0  0  0  0  0  0  0  0  0  0  0
  155.0711  138.5186  191.1063 C   0  0  0  0  0  0  0  0  0  0  0  0
  154.0435  137.8195  191.7157 F   0  0  0  0  0  0  0  0  0  0  0  0
  156.2852  138.0032  191.5676 F   0  0  0  0  0  0  0  0  0  0  0  0
  156.7324  141.9571  183.7096 N   0  0  0  0  0  0  0  0  0  0  0  0
  156.9121  142.4525  184.5862 H   0  0  0  0  0  0  0  0  0  0  0  0
  157.5737  142.1469  182.5818 C   0  0  0  0  0  0  0  0  0  0  0  0
  157.3325  143.2609  181.7626 C   0  0  0  0  0  0  0  0  0  0  0  0
  155.9879  144.3484  182.1124 Cl  0  0  0  0  0  0  0  0  0  0  0  0
  158.1659  143.4671  180.6961 C   0  0  0  0  0  0  0  0  0  0  0  0
  159.2224  142.6098  180.4204 C   0  0  0  0  0  0  0  0  0  0  0  0
  159.4122  141.5391  181.2514 C   0  0  0  0  0  0  0  0  0  0  0  0
  158.6059  141.2728  182.3462 C   0  0  0  0  0  0  0  0  0  0  0  0
  158.9198  139.8654  183.3622 Cl  0  0  0  0  0  0  0  0  0  0  0  0
 18 19  1  0  0  0
 19 20  1  0  0  0
 19 21  1  0  0  0
 19 12  1  0  0  0
 12 13  2  0  0  0
 13 14  1  0  0  0
 14 15  2  0  0  0
 15 10  1  0  0  0
 10  1  1  0  0  0
  1  2  2  0  0  0
  2  3  1  0  0  0
  3  4  2  0  0  0
  4  5  1  0  0  0
  5  6  1  0  0  0
  6  7  1  0  0  0
  7 22  1  0  0  0
 22 24  1  0  0  0
 24 25  2  0  0  0
 25 26  1  0  0  0
 25 27  1  0  0  0
 27 28  2  0  0  0
 28 29  1  0  0  0
 29 30  2  0  0  0
 30 31  1  0  0  0
  7  8  2  0  0  0
  8  9  1  0  0  0
 15 16  1  0  0  0
 16 17  2  0  0  0
 17 12  1  0  0  0
  9  1  1  0  0  0
  9  5  2  0  0  0
 30 24  1  0  0  0
 10 11  1  0  0  0
 22 23  1  0  0  0
M  END
> <minimizedAffinity>
-9.52495

> <CNNscore>
0.5180256963

> <CNNaffinity>
6.7645235062

> <CNN_VS>
3.5041968822

> <CNNaffinity_variance>
0.1693412215

$$$$
[H]c1nc(N([H])c2c([H])c([H])c(C(F)(F)F)c([H])c2[H])c2nc(N([H])c3c(Cl)c([H])c([H])c([H])c3Cl)sc2n1


 31 34  0  0  0  0  0  0  0  0999 V2000
  154.0534  137.9791  184.4566 C   0  0  0  0  0  0  0  0  0  0  0  0
  152.9359  137.3955  184.0119 N   0  0  0  0  0  0  0  0  0  0  0  0
  152.1138  137.8864  183.0893 C   0  0  0  0  0  0  0  0  0  0  0  0
  152.4416  139.0887  182.5525 N   0  0  0  0  0  0  0  0  0  0  0  0
  153.5684  139.7411  182.9588 C   0  0  0  0  0  0  0  0  0  0  0  0
  154.3624  141.2081  182.5509 S   0  0  0  0  0  0  0  0  0  0  0  0
  155.6998  141.0827  183.6055 C   0  0  0  0  0  0  0  0  0  0  0  0
  155.4650  139.9335  184.2070 N   0  0  0  0  0  0  0  0  0  0  0  0
  154.4131  139.2322  183.9124 C   0  0  0  0  0  0  0  0  0  0  0  0
  154.8469  137.4028  185.4609 N   0  0  0  0  0  0  0  0  0  0  0  0
  155.5304  136.6290  185.1796 H   0  0  0  0  0  0  0  0  0  0  0  0
  154.9905  138.2919  189.6210 C   0  0  0  0  0  0  0  0  0  0  0  0
  153.8446  138.5070  188.8979 C   0  0  0  0  0  0  0  0  0  0  0  0
  153.7888  138.2271  187.5233 C   0  0  0  0  0  0  0  0  0  0  0  0
  154.8693  137.7300  186.8399 C   0  0  0  0  0  0  0  0  0  0  0  0
  156.0360  137.5167  187.5829 C   0  0  0  0  0  0  0  0  0  0  0  0
  156.0950  137.7883  188.9282 C   0  0  0  0  0  0  0  0  0  0  0  0
  154.9324  139.8404  191.4274 F   0  0  0  0  0  0  0  0  0  0  0  0
  155.0589  138.5202  191.0879 C   0  0  0  0  0  0  0  0  0  0  0  0
  154.0264  137.8226  191.6908 F   0  0  0  0  0  0  0  0  0  0  0  0
  156.2693  137.9976  191.5509 F   0  0  0  0  0  0  0  0  0  0  0  0
  156.8157  141.9895  183.7787 N   0  0  0  0  0  0  0  0  0  0  0  0
  157.0110  142.4387  184.6767 H   0  0  0  0  0  0  0  0  0  0  0  0
  157.6415  142.2327  182.6497 C   0  0  0  0  0  0  0  0  0  0  0  0
  158.6943  141.3383  182.4013 C   0  0  0  0  0  0  0  0  0  0  0  0
  158.9960  139.9913  183.5002 Cl  0  0  0  0  0  0  0  0  0  0  0  0
  159.4687  141.5491  181.2919 C   0  0  0  0  0  0  0  0  0  0  0  0
  159.2319  142.6104  180.4290 C   0  0  0  0  0  0  0  0  0  0  0  0
  158.1924  143.4520  180.7186 C   0  0  0  0  0  0  0  0  0  0  0  0
  157.3717  143.2959  181.8238 C   0  0  0  0  0  0  0  0  0  0  0  0
  156.0563  144.4321  182.1242 Cl  0  0  0  0  0  0  0  0  0  0  0  0
 18 19  1  0  0  0
 19 20  1  0  0  0
 19 21  1  0  0  0
 19 12  1  0  0  0
 12 13  2  0  0  0
 13 14  1  0  0  0
 14 15  2  0  0  0
 15 10  1  0  0  0
 10  1  1  0  0  0
  1  2  2  0  0  0
  2  3  1  0  0  0
  3  4  2  0  0  0
  4  5  1  0  0  0
  5  6  1  0  0  0
  6  7  1  0  0  0
  7 22  1  0  0  0
 22 24  1  0  0  0
 24 25  2  0  0  0
 25 26  1  0  0  0
 25 27  1  0  0  0
 27 28  2  0  0  0
 28 29  1  0  0  0
 29 30  2  0  0  0
 30 31  1  0  0  0
  7  8  2  0  0  0
  8  9  1  0  0  0
 15 16  1  0  0  0
 16 17  2  0  0  0
 17 12  1  0  0  0
  9  1  1  0  0  0
  9  5  2  0  0  0
 30 24  1  0  0  0
 10 11  1  0  0  0
 22 23  1  0  0  0
M  END
> <minimizedAffinity>
-9.51326

> <CNNscore>
0.5064812303

> <CNNaffinity>
6.7712354660

> <CNN_VS>
3.4295036793

> <CNNaffinity_variance>
0.1702929288

$$$$
[H]c1nc(N([H])c2c([H])c([H])c(C(F)(F)F)c([H])c2[H])c2nc(N([H])c3c(Cl)c([H])c([H])c([H])c3Cl)sc2n1


 31 34  0  0  0  0  0  0  0  0999 V2000
  154.6423  139.1825  184.3443 C   0  0  0  0  0  0  0  0  0  0  0  0
  155.4991  140.2022  184.4595 N   0  0  0  0  0  0  0  0  0  0  0  0
  155.5555  141.2670  183.6651 C   0  0  0  0  0  0  0  0  0  0  0  0
  154.6609  141.3205  182.6463 N   0  0  0  0  0  0  0  0  0  0  0  0
  153.7567  140.3148  182.4689 C   0  0  0  0  0  0  0  0  0  0  0  0
  152.4698  139.9872  181.3801 S   0  0  0  0  0  0  0  0  0  0  0  0
  151.9530  138.4945  182.0288 C   0  0  0  0  0  0  0  0  0  0  0  0
  152.7888  138.3312  183.0350 N   0  0  0  0  0  0  0  0  0  0  0  0
  153.7030  139.2169  183.2896 C   0  0  0  0  0  0  0  0  0  0  0  0
  154.6758  138.0787  185.2108 N   0  0  0  0  0  0  0  0  0  0  0  0
  154.5820  137.1017  184.7845 H   0  0  0  0  0  0  0  0  0  0  0  0
  155.0705  138.2042  189.4471 C   0  0  0  0  0  0  0  0  0  0  0  0
  156.1333  137.8508  188.6548 C   0  0  0  0  0  0  0  0  0  0  0  0
  156.0119  137.7959  187.2571 C   0  0  0  0  0  0  0  0  0  0  0  0
  154.8334  138.0894  186.6194 C   0  0  0  0  0  0  0  0  0  0  0  0
  153.7525  138.4454  187.4340 C   0  0  0  0  0  0  0  0  0  0  0  0
  153.8668  138.5012  188.8018 C   0  0  0  0  0  0  0  0  0  0  0  0
  156.4363  138.0149  191.3870 F   0  0  0  0  0  0  0  0  0  0  0  0
  155.1875  138.3309  190.9232 C   0  0  0  0  0  0  0  0  0  0  0  0
  154.9197  139.6425  191.2753 F   0  0  0  0  0  0  0  0  0  0  0  0
  154.2152  137.5138  191.5057 F   0  0  0  0  0  0  0  0  0  0  0  0
  150.8645  137.6398  181.6018 N   0  0  0  0  0  0  0  0  0  0  0  0
  151.0324  136.7232  181.1800 H   0  0  0  0  0  0  0  0  0  0  0  0
  149.5424  138.1198  181.7950 C   0  0  0  0  0  0  0  0  0  0  0  0
  148.8975  138.7250  180.7050 C   0  0  0  0  0  0  0  0  0  0  0  0
  149.7413  138.9197  179.1678 Cl  0  0  0  0  0  0  0  0  0  0  0  0
  147.6090  139.1546  180.8780 C   0  0  0  0  0  0  0  0  0  0  0  0
  146.9466  139.0028  182.0885 C   0  0  0  0  0  0  0  0  0  0  0  0
  147.6222  138.4061  183.1182 C   0  0  0  0  0  0  0  0  0  0  0  0
  148.9260  137.9500  183.0101 C   0  0  0  0  0  0  0  0  0  0  0  0
  149.7235  137.1966  184.3914 Cl  0  0  0  0  0  0  0  0  0  0  0  0
 18 19  1  0  0  0
 19 20  1  0  0  0
 19 21  1  0  0  0
 19 12  1  0  0  0
 12 13  2  0  0  0
 13 14  1  0  0  0
 14 15  2  0  0  0
 15 10  1  0  0  0
 10  1  1  0  0  0
  1  2  2  0  0  0
  2  3  1  0  0  0
  3  4  2  0  0  0
  4  5  1  0  0  0
  5  6  1  0  0  0
  6  7  1  0  0  0
  7 22  1  0  0  0
 22 24  1  0  0  0
 24 25  2  0  0  0
 25 26  1  0  0  0
 25 27  1  0  0  0
 27 28  2  0  0  0
 28 29  1  0  0  0
 29 30  2  0  0  0
 30 31  1  0  0  0
  7  8  2  0  0  0
  8  9  1  0  0  0
 15 16  1  0  0  0
 16 17  2  0  0  0
 17 12  1  0  0  0
  9  1  1  0  0  0
  9  5  2  0  0  0
 30 24  1  0  0  0
 10 11  1  0  0  0
 22 23  1  0  0  0
M  END
> <minimizedAffinity>
-8.38708

> <CNNscore>
0.4365520775

> <CNNaffinity>
6.1269168854

> <CNN_VS>
2.6747183800

> <CNNaffinity_variance>
0.1970963776

$$$$
[H]c1nc(N([H])c2c([H])c([H])c(C(F)(F)F)c([H])c2[H])c2nc(N([H])c3c(Cl)c([H])c([H])c([H])c3Cl)sc2n1


 31 34  0  0  0  0  0  0  0  0999 V2000
  153.3570  139.1394  183.1033 C   0  0  0  0  0  0  0  0  0  0  0  0
  152.8511  137.9629  183.4867 N   0  0  0  0  0  0  0  0  0  0  0  0
  153.3994  137.1266  184.3630 C   0  0  0  0  0  0  0  0  0  0  0  0
  154.5792  137.5045  184.9166 N   0  0  0  0  0  0  0  0  0  0  0  0
  155.1534  138.6928  184.5720 C   0  0  0  0  0  0  0  0  0  0  0  0
  156.5656  139.5599  185.0222 S   0  0  0  0  0  0  0  0  0  0  0  0
  156.3470  140.9411  184.0420 C   0  0  0  0  0  0  0  0  0  0  0  0
  155.2137  140.6630  183.4290 N   0  0  0  0  0  0  0  0  0  0  0  0
  154.5854  139.5521  183.6660 C   0  0  0  0  0  0  0  0  0  0  0  0
  152.7251  139.9460  182.1439 N   0  0  0  0  0  0  0  0  0  0  0  0
  153.0692  140.9526  182.0278 H   0  0  0  0  0  0  0  0  0  0  0  0
  149.5254  138.7639  179.5978 C   0  0  0  0  0  0  0  0  0  0  0  0
  150.5940  139.4659  179.1001 C   0  0  0  0  0  0  0  0  0  0  0  0
  151.6500  139.8700  179.9323 C   0  0  0  0  0  0  0  0  0  0  0  0
  151.6650  139.5864  181.2744 C   0  0  0  0  0  0  0  0  0  0  0  0
  150.5701  138.8734  181.7760 C   0  0  0  0  0  0  0  0  0  0  0  0
  149.5351  138.4753  180.9653 C   0  0  0  0  0  0  0  0  0  0  0  0
  148.2895  136.9082  178.7654 F   0  0  0  0  0  0  0  0  0  0  0  0
  148.4253  138.2700  178.7293 C   0  0  0  0  0  0  0  0  0  0  0  0
  147.2362  138.8301  179.1636 F   0  0  0  0  0  0  0  0  0  0  0  0
  148.6691  138.7149  177.4274 F   0  0  0  0  0  0  0  0  0  0  0  0
  157.1766  142.1230  183.9296 N   0  0  0  0  0  0  0  0  0  0  0  0
  157.2975  142.7730  184.7100 H   0  0  0  0  0  0  0  0  0  0  0  0
  157.8276  142.3488  182.6881 C   0  0  0  0  0  0  0  0  0  0  0  0
  157.2222  143.2316  181.7802 C   0  0  0  0  0  0  0  0  0  0  0  0
  155.6749  143.9851  182.1686 Cl  0  0  0  0  0  0  0  0  0  0  0  0
  157.8670  143.4802  180.5982 C   0  0  0  0  0  0  0  0  0  0  0  0
  159.0835  142.8852  180.2926 C   0  0  0  0  0  0  0  0  0  0  0  0
  159.6290  142.0326  181.2136 C   0  0  0  0  0  0  0  0  0  0  0  0
  159.0290  141.7376  182.4270 C   0  0  0  0  0  0  0  0  0  0  0  0
  159.8007  140.6217  183.5544 Cl  0  0  0  0  0  0  0  0  0  0  0  0
 18 19  1  0  0  0
 19 20  1  0  0  0
 19 21  1  0  0  0
 19 12  1  0  0  0
 12 13  2  0  0  0
 13 14  1  0  0  0
 14 15  2  0  0  0
 15 10  1  0  0  0
 10  1  1  0  0  0
  1  2  2  0  0  0
  2  3  1  0  0  0
  3  4  2  0  0  0
  4  5  1  0  0  0
  5  6  1  0  0  0
  6  7  1  0  0  0
  7 22  1  0  0  0
 22 24  1  0  0  0
 24 25  2  0  0  0
 25 26  1  0  0  0
 25 27  1  0  0  0
 27 28  2  0  0  0
 28 29  1  0  0  0
 29 30  2  0  0  0
 30 31  1  0  0  0
  7  8  2  0  0  0
  8  9  1  0  0  0
 15 16  1  0  0  0
 16 17  2  0  0  0
 17 12  1  0  0  0
  9  1  1  0  0  0
  9  5  2  0  0  0
 30 24  1  0  0  0
 10 11  1  0  0  0
 22 23  1  0  0  0
M  END
> <minimizedAffinity>
-8.78675

> <CNNscore>
0.4325091243

> <CNNaffinity>
6.6009330750

> <CNN_VS>
2.8549637794

> <CNNaffinity_variance>
0.1680494696

$$$$
[H]c1nc(N([H])c2c([H])c([H])c(C(F)(F)F)c([H])c2[H])c2nc(N([H])c3c(Cl)c([H])c([H])c([H])c3Cl)sc2n1


 31 34  0  0  0  0  0  0  0  0999 V2000
  154.8594  139.1732  184.4575 C   0  0  0  0  0  0  0  0  0  0  0  0
  155.7327  140.1804  184.5572 N   0  0  0  0  0  0  0  0  0  0  0  0
  155.8057  141.2324  183.7472 C   0  0  0  0  0  0  0  0  0  0  0  0
  154.9112  141.2855  182.7282 N   0  0  0  0  0  0  0  0  0  0  0  0
  153.9907  140.2921  182.5662 C   0  0  0  0  0  0  0  0  0  0  0  0
  152.6978  139.9695  181.4830 S   0  0  0  0  0  0  0  0  0  0  0  0
  152.1573  138.4950  182.1540 C   0  0  0  0  0  0  0  0  0  0  0  0
  152.9911  138.3330  183.1620 N   0  0  0  0  0  0  0  0  0  0  0  0
  153.9199  139.2074  183.4030 C   0  0  0  0  0  0  0  0  0  0  0  0
  154.8756  138.0818  185.3401 N   0  0  0  0  0  0  0  0  0  0  0  0
  154.8296  137.0973  184.9233 H   0  0  0  0  0  0  0  0  0  0  0  0
  155.0429  138.2713  189.5891 C   0  0  0  0  0  0  0  0  0  0  0  0
  156.1571  137.9448  188.8581 C   0  0  0  0  0  0  0  0  0  0  0  0
  156.1111  137.8692  187.4570 C   0  0  0  0  0  0  0  0  0  0  0  0
  154.9586  138.1147  186.7548 C   0  0  0  0  0  0  0  0  0  0  0  0
  153.8251  138.4434  187.5070 C   0  0  0  0  0  0  0  0  0  0  0  0
  153.8655  138.5193  188.8780 C   0  0  0  0  0  0  0  0  0  0  0  0
  154.9578  139.7210  191.4747 F   0  0  0  0  0  0  0  0  0  0  0  0
  155.0779  138.4195  191.0674 C   0  0  0  0  0  0  0  0  0  0  0  0
  154.0232  137.7034  191.6069 F   0  0  0  0  0  0  0  0  0  0  0  0
  156.2707  137.8578  191.5302 F   0  0  0  0  0  0  0  0  0  0  0  0
  151.0547  137.6520  181.7402 N   0  0  0  0  0  0  0  0  0  0  0  0
  151.2066  136.7193  181.3488 H   0  0  0  0  0  0  0  0  0  0  0  0
  149.7416  138.1671  181.9026 C   0  0  0  0  0  0  0  0  0  0  0  0
  149.1145  137.9866  183.1454 C   0  0  0  0  0  0  0  0  0  0  0  0
  149.9303  137.0989  184.4335 Cl  0  0  0  0  0  0  0  0  0  0  0  0
  147.8632  138.5154  183.3168 C   0  0  0  0  0  0  0  0  0  0  0  0
  147.2211  139.2119  182.3020 C   0  0  0  0  0  0  0  0  0  0  0  0
  147.8781  139.3584  181.1104 C   0  0  0  0  0  0  0  0  0  0  0  0
  149.1438  138.8481  180.8712 C   0  0  0  0  0  0  0  0  0  0  0  0
  149.9154  139.0792  179.3019 Cl  0  0  0  0  0  0  0  0  0  0  0  0
 18 19  1  0  0  0
 19 20  1  0  0  0
 19 21  1  0  0  0
 19 12  1  0  0  0
 12 13  2  0  0  0
 13 14  1  0  0  0
 14 15  2  0  0  0
 15 10  1  0  0  0
 10  1  1  0  0  0
  1  2  2  0  0  0
  2  3  1  0  0  0
  3  4  2  0  0  0
  4  5  1  0  0  0
  5  6  1  0  0  0
  6  7  1  0  0  0
  7 22  1  0  0  0
 22 24  1  0  0  0
 24 25  2  0  0  0
 25 26  1  0  0  0
 25 27  1  0  0  0
 27 28  2  0  0  0
 28 29  1  0  0  0
 29 30  2  0  0  0
 30 31  1  0  0  0
  7  8  2  0  0  0
  8  9  1  0  0  0
 15 16  1  0  0  0
 16 17  2  0  0  0
 17 12  1  0  0  0
  9  1  1  0  0  0
  9  5  2  0  0  0
 30 24  1  0  0  0
 10 11  1  0  0  0
 22 23  1  0  0  0
M  END
> <minimizedAffinity>
-8.46110

> <CNNscore>
0.4171513021

> <CNNaffinity>
6.1431365013

> <CNN_VS>
2.5626173019

> <CNNaffinity_variance>
0.1637205929

$$$$
[H]c1nc(N([H])c2c([H])c([H])c(C(F)(F)F)c([H])c2[H])c2nc(N([H])c3c(Cl)c([H])c([H])c([H])c3Cl)sc2n1


 31 34  0  0  0  0  0  0  0  0999 V2000
  153.1953  137.9389  184.9671 C   0  0  0  0  0  0  0  0  0  0  0  0
  152.2549  137.1951  184.3758 N   0  0  0  0  0  0  0  0  0  0  0  0
  151.8066  137.3481  183.1334 C   0  0  0  0  0  0  0  0  0  0  0  0
  152.3553  138.3507  182.4020 N   0  0  0  0  0  0  0  0  0  0  0  0
  153.3206  139.1491  182.9415 C   0  0  0  0  0  0  0  0  0  0  0  0
  154.2813  140.4655  182.3998 S   0  0  0  0  0  0  0  0  0  0  0  0
  155.1921  140.7256  183.8207 C   0  0  0  0  0  0  0  0  0  0  0  0
  154.7129  139.7974  184.6247 N   0  0  0  0  0  0  0  0  0  0  0  0
  153.7792  138.9893  184.2245 C   0  0  0  0  0  0  0  0  0  0  0  0
  153.5854  137.7275  186.2989 N   0  0  0  0  0  0  0  0  0  0  0  0
  153.0379  138.2298  187.0690 H   0  0  0  0  0  0  0  0  0  0  0  0
  156.8153  135.3413  187.7101 C   0  0  0  0  0  0  0  0  0  0  0  0
  155.8215  134.7908  186.9409 C   0  0  0  0  0  0  0  0  0  0  0  0
  154.7460  135.5657  186.4785 C   0  0  0  0  0  0  0  0  0  0  0  0
  154.6355  136.9012  186.7717 C   0  0  0  0  0  0  0  0  0  0  0  0
  155.6506  137.4553  187.5599 C   0  0  0  0  0  0  0  0  0  0  0  0
  156.7052  136.7011  188.0139 C   0  0  0  0  0  0  0  0  0  0  0  0
  159.1769  135.0492  187.6696 F   0  0  0  0  0  0  0  0  0  0  0  0
  157.9963  134.5599  188.1607 C   0  0  0  0  0  0  0  0  0  0  0  0
  158.0552  134.6082  189.5428 F   0  0  0  0  0  0  0  0  0  0  0  0
  157.8070  133.2298  187.7767 F   0  0  0  0  0  0  0  0  0  0  0  0
  156.2369  141.6967  184.0720 N   0  0  0  0  0  0  0  0  0  0  0  0
  156.2911  142.2146  184.9524 H   0  0  0  0  0  0  0  0  0  0  0  0
  157.1966  141.9041  183.0465 C   0  0  0  0  0  0  0  0  0  0  0  0
  158.2926  141.0293  182.9860 C   0  0  0  0  0  0  0  0  0  0  0  0
  158.4790  139.7517  184.1885 Cl  0  0  0  0  0  0  0  0  0  0  0  0
  159.1995  141.2039  181.9752 C   0  0  0  0  0  0  0  0  0  0  0  0
  159.0531  142.2107  181.0307 C   0  0  0  0  0  0  0  0  0  0  0  0
  157.9662  143.0355  181.1367 C   0  0  0  0  0  0  0  0  0  0  0  0
  157.0126  142.9138  182.1344 C   0  0  0  0  0  0  0  0  0  0  0  0
  155.6443  144.0250  182.1991 Cl  0  0  0  0  0  0  0  0  0  0  0  0
 18 19  1  0  0  0
 19 20  1  0  0  0
 19 21  1  0  0  0
 19 12  1  0  0  0
 12 13  2  0  0  0
 13 14  1  0  0  0
 14 15  2  0  0  0
 15 10  1  0  0  0
 10  1  1  0  0  0
  1  2  2  0  0  0
  2  3  1  0  0  0
  3  4  2  0  0  0
  4  5  1  0  0  0
  5  6  1  0  0  0
  6  7  1  0  0  0
  7 22  1  0  0  0
 22 24  1  0  0  0
 24 25  2  0  0  0
 25 26  1  0  0  0
 25 27  1  0  0  0
 27 28  2  0  0  0
 28 29  1  0  0  0
 29 30  2  0  0  0
 30 31  1  0  0  0
  7  8  2  0  0  0
  8  9  1  0  0  0
 15 16  1  0  0  0
 16 17  2  0  0  0
 17 12  1  0  0  0
  9  1  1  0  0  0
  9  5  2  0  0  0
 30 24  1  0  0  0
 10 11  1  0  0  0
 22 23  1  0  0  0
M  END
> <minimizedAffinity>
-7.01910

> <CNNscore>
0.4098812938

> <CNNaffinity>
6.5136933327

> <CNN_VS>
2.6698410511

> <CNNaffinity_variance>
0.0971125439

$$$$
[H]c1nc(N([H])c2c([H])c([H])c(C(F)(F)F)c([H])c2[H])c2nc(N([H])c3c(Cl)c([H])c([H])c([H])c3Cl)sc2n1


 31 34  0  0  0  0  0  0  0  0999 V2000
  153.2609  138.2191  184.9230 C   0  0  0  0  0  0  0  0  0  0  0  0
  152.2909  137.4930  184.3582 N   0  0  0  0  0  0  0  0  0  0  0  0
  151.8379  137.6290  183.1155 C   0  0  0  0  0  0  0  0  0  0  0  0
  152.4146  138.5929  182.3542 N   0  0  0  0  0  0  0  0  0  0  0  0
  153.4111  139.3714  182.8655 C   0  0  0  0  0  0  0  0  0  0  0  0
  154.4117  140.6394  182.2825 S   0  0  0  0  0  0  0  0  0  0  0  0
  155.3425  140.9048  183.6895 C   0  0  0  0  0  0  0  0  0  0  0  0
  154.8384  140.0148  184.5210 N   0  0  0  0  0  0  0  0  0  0  0  0
  153.8743  139.2292  184.1489 C   0  0  0  0  0  0  0  0  0  0  0  0
  153.6544  138.0290  186.2569 N   0  0  0  0  0  0  0  0  0  0  0  0
  153.1666  138.6087  187.0126 H   0  0  0  0  0  0  0  0  0  0  0  0
  156.6834  135.4325  187.7407 C   0  0  0  0  0  0  0  0  0  0  0  0
  155.7368  134.9733  186.8602 C   0  0  0  0  0  0  0  0  0  0  0  0
  154.7270  135.8179  186.3722 C   0  0  0  0  0  0  0  0  0  0  0  0
  154.6366  137.1336  186.7497 C   0  0  0  0  0  0  0  0  0  0  0  0
  155.6031  137.5942  187.6510 C   0  0  0  0  0  0  0  0  0  0  0  0
  156.5934  136.7717  188.1305 C   0  0  0  0  0  0  0  0  0  0  0  0
  158.0097  134.6914  189.5726 F   0  0  0  0  0  0  0  0  0  0  0  0
  157.7992  134.5784  188.2246 C   0  0  0  0  0  0  0  0  0  0  0  0
  157.4937  133.2568  187.9486 F   0  0  0  0  0  0  0  0  0  0  0  0
  158.9484  134.9211  187.5076 F   0  0  0  0  0  0  0  0  0  0  0  0
  156.4219  141.8456  183.9077 N   0  0  0  0  0  0  0  0  0  0  0  0
  156.5167  142.3634  184.7847 H   0  0  0  0  0  0  0  0  0  0  0  0
  157.3570  142.0230  182.8542 C   0  0  0  0  0  0  0  0  0  0  0  0
  157.1631  143.1029  181.9789 C   0  0  0  0  0  0  0  0  0  0  0  0
  155.7653  144.1627  182.1688 Cl  0  0  0  0  0  0  0  0  0  0  0  0
  158.0844  143.2984  180.9851 C   0  0  0  0  0  0  0  0  0  0  0  0
  159.1828  142.4629  180.8351 C   0  0  0  0  0  0  0  0  0  0  0  0
  159.3234  141.4251  181.7161 C   0  0  0  0  0  0  0  0  0  0  0  0
  158.4281  141.1712  182.7425 C   0  0  0  0  0  0  0  0  0  0  0  0
  158.6839  139.8065  183.8304 Cl  0  0  0  0  0  0  0  0  0  0  0  0
 18 19  1  0  0  0
 19 20  1  0  0  0
 19 21  1  0  0  0
 19 12  1  0  0  0
 12 13  2  0  0  0
 13 14  1  0  0  0
 14 15  2  0  0  0
 15 10  1  0  0  0
 10  1  1  0  0  0
  1  2  2  0  0  0
  2  3  1  0  0  0
  3  4  2  0  0  0
  4  5  1  0  0  0
  5  6  1  0  0  0
  6  7  1  0  0  0
  7 22  1  0  0  0
 22 24  1  0  0  0
 24 25  2  0  0  0
 25 26  1  0  0  0
 25 27  1  0  0  0
 27 28  2  0  0  0
 28 29  1  0  0  0
 29 30  2  0  0  0
 30 31  1  0  0  0
  7  8  2  0  0  0
  8  9  1  0  0  0
 15 16  1  0  0  0
 16 17  2  0  0  0
 17 12  1  0  0  0
  9  1  1  0  0  0
  9  5  2  0  0  0
 30 24  1  0  0  0
 10 11  1  0  0  0
 22 23  1  0  0  0
M  END
> <minimizedAffinity>
-7.10700

> <CNNscore>
0.3898374140

> <CNNaffinity>
6.5363264084

> <CNN_VS>
2.5481045246

> <CNNaffinity_variance>
0.1014674753

$$$$
[H]c1nc(-c2c([H])c([H])c(C(=O)N([H])c3c([H])c([H])c(C(C([H])([H])[H])(C([H])([H])[H])C([H])([H])[H])c([H])c3[H])c([H])c2[H])c(C(F)(F)F)c([H])c1[H]


 30 32  0  0  0  0  0  0  0  0999 V2000
  155.0385  140.5945  182.9876 C   0  0  0  0  0  0  0  0  0  0  0  0
  156.2825  140.0568  182.7234 C   0  0  0  0  0  0  0  0  0  0  0  0
  157.4702  140.6556  183.0732 C   0  0  0  0  0  0  0  0  0  0  0  0
  157.4152  141.8810  183.7344 C   0  0  0  0  0  0  0  0  0  0  0  0
  156.2049  142.4456  184.0148 C   0  0  0  0  0  0  0  0  0  0  0  0
  155.0103  141.8073  183.6434 C   0  0  0  0  0  0  0  0  0  0  0  0
  158.6532  142.4792  184.1820 C   0  0  0  0  0  0  0  0  0  0  0  0
  159.2777  141.9888  185.2972 N   0  0  0  0  0  0  0  0  0  0  0  0
  160.4556  142.4430  185.7426 C   0  0  0  0  0  0  0  0  0  0  0  0
  161.1155  143.4584  185.0787 C   0  0  0  0  0  0  0  0  0  0  0  0
  160.4968  143.9561  183.9592 C   0  0  0  0  0  0  0  0  0  0  0  0
  159.2623  143.4888  183.4797 C   0  0  0  0  0  0  0  0  0  0  0  0
  158.7733  144.1103  182.2462 C   0  0  0  0  0  0  0  0  0  0  0  0
  157.5102  144.5820  182.2276 F   0  0  0  0  0  0  0  0  0  0  0  0
  159.6229  145.1334  181.8830 F   0  0  0  0  0  0  0  0  0  0  0  0
  158.8717  143.1201  181.2344 F   0  0  0  0  0  0  0  0  0  0  0  0
  153.0953  140.3721  181.4507 N   0  0  0  0  0  0  0  0  0  0  0  0
  153.7903  139.9053  182.5888 C   0  0  0  0  0  0  0  0  0  0  0  0
  153.3892  138.9306  183.2731 O   0  0  0  0  0  0  0  0  0  0  0  0
  153.5037  141.2124  180.9241 H   0  0  0  0  0  0  0  0  0  0  0  0
  149.5362  138.7269  179.9677 C   0  0  0  0  0  0  0  0  0  0  0  0
  150.4227  139.3124  179.1026 C   0  0  0  0  0  0  0  0  0  0  0  0
  151.6126  139.8723  179.5933 C   0  0  0  0  0  0  0  0  0  0  0  0
  151.9161  139.8509  180.9202 C   0  0  0  0  0  0  0  0  0  0  0  0
  150.9999  139.2525  181.7750 C   0  0  0  0  0  0  0  0  0  0  0  0
  149.8271  138.6993  181.2961 C   0  0  0  0  0  0  0  0  0  0  0  0
  147.0399  138.7151  180.0940 C   0  0  0  0  0  0  0  0  0  0  0  0
  148.2729  138.1332  179.4821 C   0  0  0  0  0  0  0  0  0  0  0  0
  148.2801  138.3022  177.9588 C   0  0  0  0  0  0  0  0  0  0  0  0
  148.2486  136.6225  179.7091 C   0  0  0  0  0  0  0  0  0  0  0  0
 27 28  1  0  0  0
 28 29  1  0  0  0
 28 30  1  0  0  0
 28 21  1  0  0  0
 21 22  2  0  0  0
 22 23  1  0  0  0
 23 24  2  0  0  0
 24 17  1  0  0  0
 17 18  1  0  0  0
 18 19  2  0  0  0
 18  1  1  0  0  0
  1  2  2  0  0  0
  2  3  1  0  0  0
  3  4  2  0  0  0
  4  5  1  0  0  0
  5  6  2  0  0  0
  4  7  1  0  0  0
  7  8  2  0  0  0
  8  9  1  0  0  0
  9 10  2  0  0  0
 10 11  1  0  0  0
 11 12  2  0  0  0
 12 13  1  0  0  0
 13 14  1  0  0  0
 13 15  1  0  0  0
 13 16  1  0  0  0
 24 25  1  0  0  0
 25 26  2  0  0  0
 26 21  1  0  0  0
  6  1  1  0  0  0
 12  7  1  0  0  0
 17 20  1  0  0  0
M  END
> <minimizedAffinity>
-9.69935

> <CNNscore>
0.5048870444

> <CNNaffinity>
6.2103815079

> <CNN_VS>
3.1355412006

> <CNNaffinity_variance>
0.0536527820

$$$$
[H]c1nc(-c2c([H])c([H])c(C(=O)N([H])c3c([H])c([H])c(C(C([H])([H])[H])(C([H])([H])[H])C([H])([H])[H])c([H])c3[H])c([H])c2[H])c(C(F)(F)F)c([H])c1[H]


 30 32  0  0  0  0  0  0  0  0999 V2000
  151.3845  136.8439  183.7404 C   0  0  0  0  0  0  0  0  0  0  0  0
  151.7777  136.3015  182.5330 C   0  0  0  0  0  0  0  0  0  0  0  0
  151.0493  136.4007  181.3707 C   0  0  0  0  0  0  0  0  0  0  0  0
  149.8392  137.0904  181.4138 C   0  0  0  0  0  0  0  0  0  0  0  0
  149.4155  137.6420  182.5879 C   0  0  0  0  0  0  0  0  0  0  0  0
  150.1839  137.5222  183.7573 C   0  0  0  0  0  0  0  0  0  0  0  0
  149.1059  137.2742  180.1812 C   0  0  0  0  0  0  0  0  0  0  0  0
  148.0563  136.4457  179.8879 N   0  0  0  0  0  0  0  0  0  0  0  0
  147.2876  136.5858  178.8009 C   0  0  0  0  0  0  0  0  0  0  0  0
  147.5246  137.6027  177.8971 C   0  0  0  0  0  0  0  0  0  0  0  0
  148.5750  138.4385  178.1832 C   0  0  0  0  0  0  0  0  0  0  0  0
  149.3889  138.3044  179.3198 C   0  0  0  0  0  0  0  0  0  0  0  0
  150.4381  139.3140  179.4835 C   0  0  0  0  0  0  0  0  0  0  0  0
  151.6988  138.8920  179.7089 F   0  0  0  0  0  0  0  0  0  0  0  0
  150.4494  140.1430  178.3821 F   0  0  0  0  0  0  0  0  0  0  0  0
  150.0534  140.1132  180.5913 F   0  0  0  0  0  0  0  0  0  0  0  0
  151.9426  137.5616  186.0558 N   0  0  0  0  0  0  0  0  0  0  0  0
  152.2095  136.7077  184.9622 C   0  0  0  0  0  0  0  0  0  0  0  0
  153.1184  135.8403  184.9881 O   0  0  0  0  0  0  0  0  0  0  0  0
  151.1510  138.2775  185.9508 H   0  0  0  0  0  0  0  0  0  0  0  0
  153.8208  137.5404  189.8035 C   0  0  0  0  0  0  0  0  0  0  0  0
  154.1998  138.4610  188.8622 C   0  0  0  0  0  0  0  0  0  0  0  0
  153.5806  138.4686  187.6024 C   0  0  0  0  0  0  0  0  0  0  0  0
  152.6025  137.5771  187.2838 C   0  0  0  0  0  0  0  0  0  0  0  0
  152.2384  136.6544  188.2555 C   0  0  0  0  0  0  0  0  0  0  0  0
  152.8450  136.6436  189.4976 C   0  0  0  0  0  0  0  0  0  0  0  0
  155.2155  138.7410  191.4949 C   0  0  0  0  0  0  0  0  0  0  0  0
  154.4571  137.5040  191.1368 C   0  0  0  0  0  0  0  0  0  0  0  0
  153.3321  137.2227  192.1389 C   0  0  0  0  0  0  0  0  0  0  0  0
  155.4042  136.3120  191.2653 C   0  0  0  0  0  0  0  0  0  0  0  0
 27 28  1  0  0  0
 28 29  1  0  0  0
 28 30  1  0  0  0
 28 21  1  0  0  0
 21 22  2  0  0  0
 22 23  1  0  0  0
 23 24  2  0  0  0
 24 17  1  0  0  0
 17 18  1  0  0  0
 18 19  2  0  0  0
 18  1  1  0  0  0
  1  2  2  0  0  0
  2  3  1  0  0  0
  3  4  2  0  0  0
  4  5  1  0  0  0
  5  6  2  0  0  0
  4  7  1  0  0  0
  7  8  2  0  0  0
  8  9  1  0  0  0
  9 10  2  0  0  0
 10 11  1  0  0  0
 11 12  2  0  0  0
 12 13  1  0  0  0
 13 14  1  0  0  0
 13 15  1  0  0  0
 13 16  1  0  0  0
 24 25  1  0  0  0
 25 26  2  0  0  0
 26 21  1  0  0  0
  6  1  1  0  0  0
 12  7  1  0  0  0
 17 20  1  0  0  0
M  END
> <minimizedAffinity>
-7.36779

> <CNNscore>
0.4346810579

> <CNNaffinity>
5.3148007393

> <CNN_VS>
2.3102431297

> <CNNaffinity_variance>
0.0751495510

$$$$
[H]c1nc(-c2c([H])c([H])c(C(=O)N([H])c3c([H])c([H])c(C(C([H])([H])[H])(C([H])([H])[H])C([H])([H])[H])c([H])c3[H])c([H])c2[H])c(C(F)(F)F)c([H])c1[H]


 30 32  0  0  0  0  0  0  0  0999 V2000
  152.8767  136.7745  184.1843 C   0  0  0  0  0  0  0  0  0  0  0  0
  153.2348  136.5484  182.8701 C   0  0  0  0  0  0  0  0  0  0  0  0
  152.3854  136.7139  181.8012 C   0  0  0  0  0  0  0  0  0  0  0  0
  151.0826  137.1350  182.0600 C   0  0  0  0  0  0  0  0  0  0  0  0
  150.6895  137.3700  183.3455 C   0  0  0  0  0  0  0  0  0  0  0  0
  151.5824  137.1911  184.4146 C   0  0  0  0  0  0  0  0  0  0  0  0
  150.2061  137.3938  180.9395 C   0  0  0  0  0  0  0  0  0  0  0  0
  149.1952  136.5160  180.6537 N   0  0  0  0  0  0  0  0  0  0  0  0
  148.3029  136.7119  179.6752 C   0  0  0  0  0  0  0  0  0  0  0  0
  148.3624  137.8422  178.8839 C   0  0  0  0  0  0  0  0  0  0  0  0
  149.3727  138.7282  179.1634 C   0  0  0  0  0  0  0  0  0  0  0  0
  150.3147  138.5365  180.1871 C   0  0  0  0  0  0  0  0  0  0  0  0
  151.2975  139.6083  180.3673 C   0  0  0  0  0  0  0  0  0  0  0  0
  151.5902  139.9998  181.6240 F   0  0  0  0  0  0  0  0  0  0  0  0
  152.4732  139.2598  179.7373 F   0  0  0  0  0  0  0  0  0  0  0  0
  150.7856  140.7387  179.6788 F   0  0  0  0  0  0  0  0  0  0  0  0
  153.8150  135.3544  185.9983 N   0  0  0  0  0  0  0  0  0  0  0  0
  153.8334  136.5812  185.2977 C   0  0  0  0  0  0  0  0  0  0  0  0
  154.6284  137.5113  185.5840 O   0  0  0  0  0  0  0  0  0  0  0  0
  153.1024  134.6135  185.6926 H   0  0  0  0  0  0  0  0  0  0  0  0
  156.3542  134.1618  189.1134 C   0  0  0  0  0  0  0  0  0  0  0  0
  155.1660  134.7774  189.4074 C   0  0  0  0  0  0  0  0  0  0  0  0
  154.3146  135.1865  188.3690 C   0  0  0  0  0  0  0  0  0  0  0  0
  154.6385  134.9875  187.0618 C   0  0  0  0  0  0  0  0  0  0  0  0
  155.8487  134.3625  186.7919 C   0  0  0  0  0  0  0  0  0  0  0  0
  156.6900  133.9575  187.8113 C   0  0  0  0  0  0  0  0  0  0  0  0
  157.2228  134.5580  191.4234 C   0  0  0  0  0  0  0  0  0  0  0  0
  157.2738  133.7241  190.1843 C   0  0  0  0  0  0  0  0  0  0  0  0
  156.9241  132.2604  190.4749 C   0  0  0  0  0  0  0  0  0  0  0  0
  158.7199  133.6917  189.6924 C   0  0  0  0  0  0  0  0  0  0  0  0
 27 28  1  0  0  0
 28 29  1  0  0  0
 28 30  1  0  0  0
 28 21  1  0  0  0
 21 22  2  0  0  0
 22 23  1  0  0  0
 23 24  2  0  0  0
 24 17  1  0  0  0
 17 18  1  0  0  0
 18 19  2  0  0  0
 18  1  1  0  0  0
  1  2  2  0  0  0
  2  3  1  0  0  0
  3  4  2  0  0  0
  4  5  1  0  0  0
  5  6  2  0  0  0
  4  7  1  0  0  0
  7  8  2  0  0  0
  8  9  1  0  0  0
  9 10  2  0  0  0
 10 11  1  0  0  0
 11 12  2  0  0  0
 12 13  1  0  0  0
 13 14  1  0  0  0
 13 15  1  0  0  0
 13 16  1  0  0  0
 24 25  1  0  0  0
 25 26  2  0  0  0
 26 21  1  0  0  0
  6  1  1  0  0  0
 12  7  1  0  0  0
 17 20  1  0  0  0
M  END
> <minimizedAffinity>
-6.06897

> <CNNscore>
0.3854965270

> <CNNaffinity>
5.0817251205

> <CNN_VS>
1.9589873552

> <CNNaffinity_variance>
0.1001176834

$$$$
[H]c1nc(-c2c([H])c([H])c(C(=O)N([H])c3c([H])c([H])c(C(C([H])([H])[H])(C([H])([H])[H])C([H])([H])[H])c([H])c3[H])c([H])c2[H])c(C(F)(F)F)c([H])c1[H]


 30 32  0  0  0  0  0  0  0  0999 V2000
  152.3686  137.3325  181.8441 C   0  0  0  0  0  0  0  0  0  0  0  0
  152.5195  135.9692  181.6859 C   0  0  0  0  0  0  0  0  0  0  0  0
  151.4740  135.0950  181.5009 C   0  0  0  0  0  0  0  0  0  0  0  0
  150.1823  135.6169  181.4720 C   0  0  0  0  0  0  0  0  0  0  0  0
  149.9906  136.9594  181.6239 C   0  0  0  0  0  0  0  0  0  0  0  0
  151.0807  137.8248  181.8112 C   0  0  0  0  0  0  0  0  0  0  0  0
  149.0824  134.7204  181.1939 C   0  0  0  0  0  0  0  0  0  0  0  0
  148.1414  135.0714  180.2637 N   0  0  0  0  0  0  0  0  0  0  0  0
  147.1283  134.2744  179.9024 C   0  0  0  0  0  0  0  0  0  0  0  0
  146.9801  133.0235  180.4684 C   0  0  0  0  0  0  0  0  0  0  0  0
  147.9193  132.6628  181.4020 C   0  0  0  0  0  0  0  0  0  0  0  0
  148.9876  133.4878  181.7898 C   0  0  0  0  0  0  0  0  0  0  0  0
  149.9168  132.9201  182.7703 C   0  0  0  0  0  0  0  0  0  0  0  0
  150.9768  133.6630  183.1482 F   0  0  0  0  0  0  0  0  0  0  0  0
  149.2190  132.5544  183.9017 F   0  0  0  0  0  0  0  0  0  0  0  0
  150.4198  131.7233  182.1971 F   0  0  0  0  0  0  0  0  0  0  0  0
  153.9313  138.5373  183.3587 N   0  0  0  0  0  0  0  0  0  0  0  0
  153.5309  138.2285  182.0394 C   0  0  0  0  0  0  0  0  0  0  0  0
  154.1225  138.6852  181.0291 O   0  0  0  0  0  0  0  0  0  0  0  0
  153.3701  138.1085  184.1658 H   0  0  0  0  0  0  0  0  0  0  0  0
  157.1915  140.8753  184.5744 C   0  0  0  0  0  0  0  0  0  0  0  0
  156.0448  141.4870  184.1409 C   0  0  0  0  0  0  0  0  0  0  0  0
  154.9522  140.7102  183.7249 C   0  0  0  0  0  0  0  0  0  0  0  0
  154.9984  139.3498  183.7392 C   0  0  0  0  0  0  0  0  0  0  0  0
  156.1728  138.7555  184.1819 C   0  0  0  0  0  0  0  0  0  0  0  0
  157.2511  139.5166  184.5931 C   0  0  0  0  0  0  0  0  0  0  0  0
  159.1632  141.0305  186.1030 C   0  0  0  0  0  0  0  0  0  0  0  0
  158.3603  141.6657  185.0142 C   0  0  0  0  0  0  0  0  0  0  0  0
  159.2060  141.9107  183.7596 C   0  0  0  0  0  0  0  0  0  0  0  0
  157.9415  143.0582  185.4831 C   0  0  0  0  0  0  0  0  0  0  0  0
 27 28  1  0  0  0
 28 29  1  0  0  0
 28 30  1  0  0  0
 28 21  1  0  0  0
 21 22  2  0  0  0
 22 23  1  0  0  0
 23 24  2  0  0  0
 24 17  1  0  0  0
 17 18  1  0  0  0
 18 19  2  0  0  0
 18  1  1  0  0  0
  1  2  2  0  0  0
  2  3  1  0  0  0
  3  4  2  0  0  0
  4  5  1  0  0  0
  5  6  2  0  0  0
  4  7  1  0  0  0
  7  8  2  0  0  0
  8  9  1  0  0  0
  9 10  2  0  0  0
 10 11  1  0  0  0
 11 12  2  0  0  0
 12 13  1  0  0  0
 13 14  1  0  0  0
 13 15  1  0  0  0
 13 16  1  0  0  0
 24 25  1  0  0  0
 25 26  2  0  0  0
 26 21  1  0  0  0
  6  1  1  0  0  0
 12  7  1  0  0  0
 17 20  1  0  0  0
M  END
> <minimizedAffinity>
1.30819

> <CNNscore>
0.3785990477

> <CNNaffinity>
5.6209144592

> <CNN_VS>
2.1280729771

> <CNNaffinity_variance>
2.2760043144

$$$$
[H]c1nc(-c2c([H])c([H])c(C(=O)N([H])c3c([H])c([H])c(C(C([H])([H])[H])(C([H])([H])[H])C([H])([H])[H])c([H])c3[H])c([H])c2[H])c(C(F)(F)F)c([H])c1[H]


 30 32  0  0  0  0  0  0  0  0999 V2000
  155.1597  141.0296  182.6503 C   0  0  0  0  0  0  0  0  0  0  0  0
  156.4199  140.6108  182.2721 C   0  0  0  0  0  0  0  0  0  0  0  0
  157.5687  141.3359  182.4861 C   0  0  0  0  0  0  0  0  0  0  0  0
  157.4544  142.5698  183.1233 C   0  0  0  0  0  0  0  0  0  0  0  0
  156.2264  143.0193  183.5136 C   0  0  0  0  0  0  0  0  0  0  0  0
  155.0726  142.2536  183.2796 C   0  0  0  0  0  0  0  0  0  0  0  0
  158.6628  143.3024  183.4296 C   0  0  0  0  0  0  0  0  0  0  0  0
  158.9235  144.4797  182.7814 N   0  0  0  0  0  0  0  0  0  0  0  0
  159.9853  145.2497  183.0494 C   0  0  0  0  0  0  0  0  0  0  0  0
  160.8951  144.8813  184.0208 C   0  0  0  0  0  0  0  0  0  0  0  0
  160.6417  143.7023  184.6761 C   0  0  0  0  0  0  0  0  0  0  0  0
  159.5317  142.8852  184.4066 C   0  0  0  0  0  0  0  0  0  0  0  0
  159.4003  141.6833  185.2343 C   0  0  0  0  0  0  0  0  0  0  0  0
  158.1819  141.3772  185.7243 F   0  0  0  0  0  0  0  0  0  0  0  0
  159.8718  140.5934  184.5341 F   0  0  0  0  0  0  0  0  0  0  0  0
  160.2699  141.8641  186.3411 F   0  0  0  0  0  0  0  0  0  0  0  0
  153.1009  140.5723  181.3313 N   0  0  0  0  0  0  0  0  0  0  0  0
  153.9553  140.2070  182.3956 C   0  0  0  0  0  0  0  0  0  0  0  0
  153.7312  139.2136  183.1318 O   0  0  0  0  0  0  0  0  0  0  0  0
  153.3626  141.4368  180.7529 H   0  0  0  0  0  0  0  0  0  0  0  0
  149.5842  138.6957  180.0332 C   0  0  0  0  0  0  0  0  0  0  0  0
  149.9594  138.5948  181.3471 C   0  0  0  0  0  0  0  0  0  0  0  0
  151.1399  139.2141  181.7869 C   0  0  0  0  0  0  0  0  0  0  0  0
  151.9335  139.9207  180.9360 C   0  0  0  0  0  0  0  0  0  0  0  0
  151.5307  140.0062  179.6098 C   0  0  0  0  0  0  0  0  0  0  0  0
  150.3687  139.3984  179.1725 C   0  0  0  0  0  0  0  0  0  0  0  0
  148.1201  138.1974  178.0696 C   0  0  0  0  0  0  0  0  0  0  0  0
  148.3497  138.0510  179.5391 C   0  0  0  0  0  0  0  0  0  0  0  0
  148.4437  136.5777  179.9510 C   0  0  0  0  0  0  0  0  0  0  0  0
  147.1174  138.5842  180.2680 C   0  0  0  0  0  0  0  0  0  0  0  0
 27 28  1  0  0  0
 28 29  1  0  0  0
 28 30  1  0  0  0
 28 21  1  0  0  0
 21 22  2  0  0  0
 22 23  1  0  0  0
 23 24  2  0  0  0
 24 17  1  0  0  0
 17 18  1  0  0  0
 18 19  2  0  0  0
 18  1  1  0  0  0
  1  2  2  0  0  0
  2  3  1  0  0  0
  3  4  2  0  0  0
  4  5  1  0  0  0
  5  6  2  0  0  0
  4  7  1  0  0  0
  7  8  2  0  0  0
  8  9  1  0  0  0
  9 10  2  0  0  0
 10 11  1  0  0  0
 11 12  2  0  0  0
 12 13  1  0  0  0
 13 14  1  0  0  0
 13 15  1  0  0  0
 13 16  1  0  0  0
 24 25  1  0  0  0
 25 26  2  0  0  0
 26 21  1  0  0  0
  6  1  1  0  0  0
 12  7  1  0  0  0
 17 20  1  0  0  0
M  END
> <minimizedAffinity>
-9.51161

> <CNNscore>
0.3635825813

> <CNNaffinity>
6.0756993294

> <CNN_VS>
2.2090184689

> <CNNaffinity_variance>
0.1023633927

$$$$
[H]c1nc(-c2c([H])c([H])c(C(=O)N([H])c3c([H])c([H])c(C(C([H])([H])[H])(C([H])([H])[H])C([H])([H])[H])c([H])c3[H])c([H])c2[H])c(C(F)(F)F)c([H])c1[H]


 30 32  0  0  0  0  0  0  0  0999 V2000
  154.7747  137.9925  186.5776 C   0  0  0  0  0  0  0  0  0  0  0  0
  153.9530  138.5630  187.5294 C   0  0  0  0  0  0  0  0  0  0  0  0
  153.6068  137.9538  188.7128 C   0  0  0  0  0  0  0  0  0  0  0  0
  154.1158  136.6818  188.9671 C   0  0  0  0  0  0  0  0  0  0  0  0
  154.9323  136.0835  188.0519 C   0  0  0  0  0  0  0  0  0  0  0  0
  155.2662  136.7337  186.8526 C   0  0  0  0  0  0  0  0  0  0  0  0
  153.8281  136.0665  190.2436 C   0  0  0  0  0  0  0  0  0  0  0  0
  152.7124  135.2854  190.3825 N   0  0  0  0  0  0  0  0  0  0  0  0
  152.4064  134.6303  191.5092 C   0  0  0  0  0  0  0  0  0  0  0  0
  153.2260  134.7146  192.6175 C   0  0  0  0  0  0  0  0  0  0  0  0
  154.3472  135.4953  192.4873 C   0  0  0  0  0  0  0  0  0  0  0  0
  154.6814  136.1871  191.3116 C   0  0  0  0  0  0  0  0  0  0  0  0
  155.9389  136.9386  191.3418 C   0  0  0  0  0  0  0  0  0  0  0  0
  156.8242  136.7397  190.3443 F   0  0  0  0  0  0  0  0  0  0  0  0
  155.6628  138.2874  191.4131 F   0  0  0  0  0  0  0  0  0  0  0  0
  156.5832  136.5896  192.5571 F   0  0  0  0  0  0  0  0  0  0  0  0
  156.3429  139.3916  185.2469 N   0  0  0  0  0  0  0  0  0  0  0  0
  155.1160  138.6948  185.3197 C   0  0  0  0  0  0  0  0  0  0  0  0
  154.3063  138.6498  184.3598 O   0  0  0  0  0  0  0  0  0  0  0  0
  156.9757  139.3835  186.1128 H   0  0  0  0  0  0  0  0  0  0  0  0
  157.7164  141.6003  181.9594 C   0  0  0  0  0  0  0  0  0  0  0  0
  158.2285  140.3519  182.1970 C   0  0  0  0  0  0  0  0  0  0  0  0
  157.7789  139.6101  183.3006 C   0  0  0  0  0  0  0  0  0  0  0  0
  156.8374  140.1003  184.1529 C   0  0  0  0  0  0  0  0  0  0  0  0
  156.3361  141.3682  183.8896 C   0  0  0  0  0  0  0  0  0  0  0  0
  156.7755  142.1021  182.8037 C   0  0  0  0  0  0  0  0  0  0  0  0
  157.7459  141.8833  179.4761 C   0  0  0  0  0  0  0  0  0  0  0  0
  158.1731  142.4075  180.8088 C   0  0  0  0  0  0  0  0  0  0  0  0
  157.6501  143.8279  181.0498 C   0  0  0  0  0  0  0  0  0  0  0  0
  159.6946  142.5461  180.7995 C   0  0  0  0  0  0  0  0  0  0  0  0
 27 28  1  0  0  0
 28 29  1  0  0  0
 28 30  1  0  0  0
 28 21  1  0  0  0
 21 22  2  0  0  0
 22 23  1  0  0  0
 23 24  2  0  0  0
 24 17  1  0  0  0
 17 18  1  0  0  0
 18 19  2  0  0  0
 18  1  1  0  0  0
  1  2  2  0  0  0
  2  3  1  0  0  0
  3  4  2  0  0  0
  4  5  1  0  0  0
  5  6  2  0  0  0
  4  7  1  0  0  0
  7  8  2  0  0  0
  8  9  1  0  0  0
  9 10  2  0  0  0
 10 11  1  0  0  0
 11 12  2  0  0  0
 12 13  1  0  0  0
 13 14  1  0  0  0
 13 15  1  0  0  0
 13 16  1  0  0  0
 24 25  1  0  0  0
 25 26  2  0  0  0
 26 21  1  0  0  0
  6  1  1  0  0  0
 12  7  1  0  0  0
 17 20  1  0  0  0
M  END
> <minimizedAffinity>
-8.07780

> <CNNscore>
0.3424441814

> <CNNaffinity>
5.7291483879

> <CNN_VS>
1.9619135857

> <CNNaffinity_variance>
0.0812551603

$$$$
[H]c1nc(-c2c([H])c([H])c(C(=O)N([H])c3c([H])c([H])c(C(C([H])([H])[H])(C([H])([H])[H])C([H])([H])[H])c([H])c3[H])c([H])c2[H])c(C(F)(F)F)c([H])c1[H]


 30 32  0  0  0  0  0  0  0  0999 V2000
  154.5505  138.0131  186.3515 C   0  0  0  0  0  0  0  0  0  0  0  0
  153.3621  138.3493  186.9689 C   0  0  0  0  0  0  0  0  0  0  0  0
  152.9085  137.7723  188.1320 C   0  0  0  0  0  0  0  0  0  0  0  0
  153.6961  136.7869  188.7239 C   0  0  0  0  0  0  0  0  0  0  0  0
  154.8782  136.4264  188.1452 C   0  0  0  0  0  0  0  0  0  0  0  0
  155.3124  137.0358  186.9568 C   0  0  0  0  0  0  0  0  0  0  0  0
  153.2717  136.2332  189.9904 C   0  0  0  0  0  0  0  0  0  0  0  0
  152.5202  135.0892  190.0115 N   0  0  0  0  0  0  0  0  0  0  0  0
  152.1392  134.4776  191.1398 C   0  0  0  0  0  0  0  0  0  0  0  0
  152.4967  134.9877  192.3724 C   0  0  0  0  0  0  0  0  0  0  0  0
  153.2505  136.1346  192.3610 C   0  0  0  0  0  0  0  0  0  0  0  0
  153.6583  136.7861  191.1856 C   0  0  0  0  0  0  0  0  0  0  0  0
  154.4942  137.9760  191.3654 C   0  0  0  0  0  0  0  0  0  0  0  0
  154.6626  138.8015  190.3125 F   0  0  0  0  0  0  0  0  0  0  0  0
  154.0119  138.7166  192.4235 F   0  0  0  0  0  0  0  0  0  0  0  0
  155.7782  137.5076  191.7473 F   0  0  0  0  0  0  0  0  0  0  0  0
  156.1223  139.5141  185.1416 N   0  0  0  0  0  0  0  0  0  0  0  0
  154.9915  138.6682  185.0991 C   0  0  0  0  0  0  0  0  0  0  0  0
  154.3480  138.4525  184.0415 O   0  0  0  0  0  0  0  0  0  0  0  0
  156.6129  139.6476  186.0859 H   0  0  0  0  0  0  0  0  0  0  0  0
  157.7130  141.6791  181.9235 C   0  0  0  0  0  0  0  0  0  0  0  0
  158.1637  140.4095  182.1733 C   0  0  0  0  0  0  0  0  0  0  0  0
  157.6411  139.6819  183.2540 C   0  0  0  0  0  0  0  0  0  0  0  0
  156.6879  140.2067  184.0719 C   0  0  0  0  0  0  0  0  0  0  0  0
  156.2498  141.4954  183.7971 C   0  0  0  0  0  0  0  0  0  0  0  0
  156.7612  142.2154  182.7337 C   0  0  0  0  0  0  0  0  0  0  0  0
  157.8321  143.9076  180.7978 C   0  0  0  0  0  0  0  0  0  0  0  0
  158.2472  142.4719  180.7965 C   0  0  0  0  0  0  0  0  0  0  0  0
  159.7717  142.3258  180.8569 C   0  0  0  0  0  0  0  0  0  0  0  0
  157.8477  141.8629  179.4535 C   0  0  0  0  0  0  0  0  0  0  0  0
 27 28  1  0  0  0
 28 29  1  0  0  0
 28 30  1  0  0  0
 28 21  1  0  0  0
 21 22  2  0  0  0
 22 23  1  0  0  0
 23 24  2  0  0  0
 24 17  1  0  0  0
 17 18  1  0  0  0
 18 19  2  0  0  0
 18  1  1  0  0  0
  1  2  2  0  0  0
  2  3  1  0  0  0
  3  4  2  0  0  0
  4  5  1  0  0  0
  5  6  2  0  0  0
  4  7  1  0  0  0
  7  8  2  0  0  0
  8  9  1  0  0  0
  9 10  2  0  0  0
 10 11  1  0  0  0
 11 12  2  0  0  0
 12 13  1  0  0  0
 13 14  1  0  0  0
 13 15  1  0  0  0
 13 16  1  0  0  0
 24 25  1  0  0  0
 25 26  2  0  0  0
 26 21  1  0  0  0
  6  1  1  0  0  0
 12  7  1  0  0  0
 17 20  1  0  0  0
M  END
> <minimizedAffinity>
-7.75124

> <CNNscore>
0.3313016593

> <CNNaffinity>
5.6906461716

> <CNN_VS>
1.8853205442

> <CNNaffinity_variance>
0.1435591131

$$$$
[H]c1nc(-c2c([H])c([H])c(C(=O)N([H])c3c([H])c([H])c(C(C([H])([H])[H])(C([H])([H])[H])C([H])([H])[H])c([H])c3[H])c([H])c2[H])c(C(F)(F)F)c([H])c1[H]


 30 32  0  0  0  0  0  0  0  0999 V2000
  154.5560  136.7625  186.7338 C   0  0  0  0  0  0  0  0  0  0  0  0
  155.5930  137.3519  187.4294 C   0  0  0  0  0  0  0  0  0  0  0  0
  156.4002  136.6840  188.3204 C   0  0  0  0  0  0  0  0  0  0  0  0
  156.1562  135.3291  188.5356 C   0  0  0  0  0  0  0  0  0  0  0  0
  155.1409  134.7091  187.8670 C   0  0  0  0  0  0  0  0  0  0  0  0
  154.3350  135.4207  186.9635 C   0  0  0  0  0  0  0  0  0  0  0  0
  157.0500  134.5970  189.4051 C   0  0  0  0  0  0  0  0  0  0  0  0
  156.6882  134.3607  190.7041 N   0  0  0  0  0  0  0  0  0  0  0  0
  157.4273  133.6396  191.5560 C   0  0  0  0  0  0  0  0  0  0  0  0
  158.6256  133.0841  191.1527 C   0  0  0  0  0  0  0  0  0  0  0  0
  158.9964  133.3156  189.8517 C   0  0  0  0  0  0  0  0  0  0  0  0
  158.2309  134.0688  188.9467 C   0  0  0  0  0  0  0  0  0  0  0  0
  158.7636  134.1764  187.5860 C   0  0  0  0  0  0  0  0  0  0  0  0
  158.9734  135.4084  187.0794 F   0  0  0  0  0  0  0  0  0  0  0  0
  159.9421  133.4664  187.5000 F   0  0  0  0  0  0  0  0  0  0  0  0
  157.8310  133.5225  186.7395 F   0  0  0  0  0  0  0  0  0  0  0  0
  153.0719  136.8331  184.7389 N   0  0  0  0  0  0  0  0  0  0  0  0
  153.7182  137.5298  185.7844 C   0  0  0  0  0  0  0  0  0  0  0  0
  153.6091  138.7723  185.9374 O   0  0  0  0  0  0  0  0  0  0  0  0
  153.2200  135.7727  184.6769 H   0  0  0  0  0  0  0  0  0  0  0  0
  150.6722  138.5683  181.7717 C   0  0  0  0  0  0  0  0  0  0  0  0
  150.0988  137.7620  182.7196 C   0  0  0  0  0  0  0  0  0  0  0  0
  150.8976  137.1713  183.7112 C   0  0  0  0  0  0  0  0  0  0  0  0
  152.2422  137.3781  183.7599 C   0  0  0  0  0  0  0  0  0  0  0  0
  152.7977  138.1983  182.7869 C   0  0  0  0  0  0  0  0  0  0  0  0
  152.0148  138.7825  181.8087 C   0  0  0  0  0  0  0  0  0  0  0  0
  148.5487  139.7468  181.1804 C   0  0  0  0  0  0  0  0  0  0  0  0
  149.8586  139.2003  180.7122 C   0  0  0  0  0  0  0  0  0  0  0  0
  150.7373  140.2938  180.0948 C   0  0  0  0  0  0  0  0  0  0  0  0
  149.5850  138.2247  179.5688 C   0  0  0  0  0  0  0  0  0  0  0  0
 27 28  1  0  0  0
 28 29  1  0  0  0
 28 30  1  0  0  0
 28 21  1  0  0  0
 21 22  2  0  0  0
 22 23  1  0  0  0
 23 24  2  0  0  0
 24 17  1  0  0  0
 17 18  1  0  0  0
 18 19  2  0  0  0
 18  1  1  0  0  0
  1  2  2  0  0  0
  2  3  1  0  0  0
  3  4  2  0  0  0
  4  5  1  0  0  0
  5  6  2  0  0  0
  4  7  1  0  0  0
  7  8  2  0  0  0
  8  9  1  0  0  0
  9 10  2  0  0  0
 10 11  1  0  0  0
 11 12  2  0  0  0
 12 13  1  0  0  0
 13 14  1  0  0  0
 13 15  1  0  0  0
 13 16  1  0  0  0
 24 25  1  0  0  0
 25 26  2  0  0  0
 26 21  1  0  0  0
  6  1  1  0  0  0
 12  7  1  0  0  0
 17 20  1  0  0  0
M  END
> <minimizedAffinity>
-6.61578

> <CNNscore>
0.2756938934

> <CNNaffinity>
5.1369132996

> <CNN_VS>
1.4162156582

> <CNNaffinity_variance>
0.0886580944

$$$$
[H]c1nc(-c2c([H])c([H])c(C(=O)N([H])c3c([H])c([H])c(C(C([H])([H])[H])(C([H])([H])[H])C([H])([H])[H])c([H])c3[H])c([H])c2[H])c(C(F)(F)F)c([H])c1[H]


 30 32  0  0  0  0  0  0  0  0999 V2000
  155.2862  140.0949  183.8043 C   0  0  0  0  0  0  0  0  0  0  0  0
  155.6492  141.4064  183.5706 C   0  0  0  0  0  0  0  0  0  0  0  0
  156.8122  141.9774  184.0319 C   0  0  0  0  0  0  0  0  0  0  0  0
  157.6777  141.1840  184.7823 C   0  0  0  0  0  0  0  0  0  0  0  0
  157.3557  139.8821  185.0349 C   0  0  0  0  0  0  0  0  0  0  0  0
  156.1594  139.3299  184.5488 C   0  0  0  0  0  0  0  0  0  0  0  0
  158.9418  141.7475  185.2009 C   0  0  0  0  0  0  0  0  0  0  0  0
  159.1066  142.1512  186.4986 N   0  0  0  0  0  0  0  0  0  0  0  0
  160.2615  142.6246  186.9827 C   0  0  0  0  0  0  0  0  0  0  0  0
  161.3739  142.7319  186.1713 C   0  0  0  0  0  0  0  0  0  0  0  0
  161.2180  142.3292  184.8685 C   0  0  0  0  0  0  0  0  0  0  0  0
  160.0134  141.8296  184.3473 C   0  0  0  0  0  0  0  0  0  0  0  0
  160.0438  141.4093  182.9440 C   0  0  0  0  0  0  0  0  0  0  0  0
  159.4736  140.2313  182.6191 F   0  0  0  0  0  0  0  0  0  0  0  0
  159.4804  142.3938  182.1606 F   0  0  0  0  0  0  0  0  0  0  0  0
  161.4133  141.3327  182.5801 F   0  0  0  0  0  0  0  0  0  0  0  0
  153.5208  140.0180  182.0536 N   0  0  0  0  0  0  0  0  0  0  0  0
  154.0209  139.5309  183.2820 C   0  0  0  0  0  0  0  0  0  0  0  0
  153.4330  138.6402  183.9455 O   0  0  0  0  0  0  0  0  0  0  0  0
  154.0820  140.7819  181.5518 H   0  0  0  0  0  0  0  0  0  0  0  0
  150.0117  138.6811  180.1902 C   0  0  0  0  0  0  0  0  0  0  0  0
  150.8980  139.4547  179.4878 C   0  0  0  0  0  0  0  0  0  0  0  0
  152.0711  139.9124  180.1080 C   0  0  0  0  0  0  0  0  0  0  0  0
  152.3582  139.6069  181.4032 C   0  0  0  0  0  0  0  0  0  0  0  0
  151.4427  138.8226  182.0922 C   0  0  0  0  0  0  0  0  0  0  0  0
  150.2864  138.3692  181.4853 C   0  0  0  0  0  0  0  0  0  0  0  0
  148.6448  138.4848  178.1068 C   0  0  0  0  0  0  0  0  0  0  0  0
  148.7659  138.1882  179.5665 C   0  0  0  0  0  0  0  0  0  0  0  0
  148.7186  136.6811  179.8413 C   0  0  0  0  0  0  0  0  0  0  0  0
  147.5336  138.7541  180.2703 C   0  0  0  0  0  0  0  0  0  0  0  0
 27 28  1  0  0  0
 28 29  1  0  0  0
 28 30  1  0  0  0
 28 21  1  0  0  0
 21 22  2  0  0  0
 22 23  1  0  0  0
 23 24  2  0  0  0
 24 17  1  0  0  0
 17 18  1  0  0  0
 18 19  2  0  0  0
 18  1  1  0  0  0
  1  2  2  0  0  0
  2  3  1  0  0  0
  3  4  2  0  0  0
  4  5  1  0  0  0
  5  6  2  0  0  0
  4  7  1  0  0  0
  7  8  2  0  0  0
  8  9  1  0  0  0
  9 10  2  0  0  0
 10 11  1  0  0  0
 11 12  2  0  0  0
 12 13  1  0  0  0
 13 14  1  0  0  0
 13 15  1  0  0  0
 13 16  1  0  0  0
 24 25  1  0  0  0
 25 26  2  0  0  0
 26 21  1  0  0  0
  6  1  1  0  0  0
 12  7  1  0  0  0
 17 20  1  0  0  0
M  END
> <minimizedAffinity>
-10.52010

> <CNNscore>
0.2678041458

> <CNNaffinity>
5.9023165703

> <CNN_VS>
1.5806648731

> <CNNaffinity_variance>
0.0942691714

$$$$
[H]c1nc([H])c(-c2nc(N([H])c3c([H])c([H])c(C(F)(F)F)c([H])c3[H])c3c(n2)C([H])([H])C([H])([H])N(c2nc([H])c([H])c([H])c2C(F)(F)F)C([H])([H])C3([H])[H])c([H])c1[H]


 39 43  0  0  0  0  0  0  0  0999 V2000
  155.2771  139.1414  184.8526 C   0  0  0  0  0  0  0  0  0  0  0  0
  156.3864  139.8791  184.7472 N   0  0  0  0  0  0  0  0  0  0  0  0
  156.5427  140.9570  183.9878 C   0  0  0  0  0  0  0  0  0  0  0  0
  155.4793  141.3680  183.2352 N   0  0  0  0  0  0  0  0  0  0  0  0
  154.3268  140.6934  183.2767 C   0  0  0  0  0  0  0  0  0  0  0  0
  153.2722  141.3089  182.4448 C   0  0  0  0  0  0  0  0  0  0  0  0
  152.8111  140.3284  181.3969 C   0  0  0  0  0  0  0  0  0  0  0  0
  152.1861  139.1693  181.9417 N   0  0  0  0  0  0  0  0  0  0  0  0
  152.8367  138.1322  182.7600 C   0  0  0  0  0  0  0  0  0  0  0  0
  152.9865  138.7472  184.1519 C   0  0  0  0  0  0  0  0  0  0  0  0
  154.2092  139.5644  184.0890 C   0  0  0  0  0  0  0  0  0  0  0  0
  150.8149  138.8700  181.7746 C   0  0  0  0  0  0  0  0  0  0  0  0
  150.1128  138.3377  182.8397 N   0  0  0  0  0  0  0  0  0  0  0  0
  148.8279  138.0218  182.7818 C   0  0  0  0  0  0  0  0  0  0  0  0
  148.1160  138.2149  181.6278 C   0  0  0  0  0  0  0  0  0  0  0  0
  148.7463  138.7390  180.5345 C   0  0  0  0  0  0  0  0  0  0  0  0
  150.1126  139.0676  180.6214 C   0  0  0  0  0  0  0  0  0  0  0  0
  150.7415  139.6020  179.4080 C   0  0  0  0  0  0  0  0  0  0  0  0
  152.0227  139.2210  179.1640 F   0  0  0  0  0  0  0  0  0  0  0  0
  150.7747  141.0118  179.4607 F   0  0  0  0  0  0  0  0  0  0  0  0
  149.9200  139.3580  178.2839 F   0  0  0  0  0  0  0  0  0  0  0  0
  157.7825  141.7147  183.9290 C   0  0  0  0  0  0  0  0  0  0  0  0
  158.8187  141.5695  184.8184 C   0  0  0  0  0  0  0  0  0  0  0  0
  159.9849  142.3144  184.7318 C   0  0  0  0  0  0  0  0  0  0  0  0
  160.0829  143.2209  183.7104 C   0  0  0  0  0  0  0  0  0  0  0  0
  159.0979  143.3914  182.8231 N   0  0  0  0  0  0  0  0  0  0  0  0
  157.9548  142.6547  182.9184 C   0  0  0  0  0  0  0  0  0  0  0  0
  155.1968  138.0302  185.6786 N   0  0  0  0  0  0  0  0  0  0  0  0
  155.1008  137.0801  185.1718 H   0  0  0  0  0  0  0  0  0  0  0  0
  155.1706  137.8514  189.9154 C   0  0  0  0  0  0  0  0  0  0  0  0
  154.0773  138.3596  189.2174 C   0  0  0  0  0  0  0  0  0  0  0  0
  154.1437  138.3863  187.8539 C   0  0  0  0  0  0  0  0  0  0  0  0
  155.2281  137.9421  187.0969 C   0  0  0  0  0  0  0  0  0  0  0  0
  156.2762  137.4532  187.8222 C   0  0  0  0  0  0  0  0  0  0  0  0
  156.2659  137.4002  189.2264 C   0  0  0  0  0  0  0  0  0  0  0  0
  154.8567  139.1509  191.8101 F   0  0  0  0  0  0  0  0  0  0  0  0
  155.0615  137.8503  191.3790 C   0  0  0  0  0  0  0  0  0  0  0  0
  154.0394  137.0211  191.7701 F   0  0  0  0  0  0  0  0  0  0  0  0
  156.2808  137.4107  191.8855 F   0  0  0  0  0  0  0  0  0  0  0  0
 36 37  1  0  0  0
 37 38  1  0  0  0
 37 39  1  0  0  0
 37 30  1  0  0  0
 30 31  2  0  0  0
 31 32  1  0  0  0
 32 33  2  0  0  0
 33 28  1  0  0  0
 28  1  1  0  0  0
  1  2  2  0  0  0
  2  3  1  0  0  0
  3  4  2  0  0  0
  4  5  1  0  0  0
  5  6  1  0  0  0
  6  7  1  0  0  0
  7  8  1  0  0  0
  8  9  1  0  0  0
  9 10  1  0  0  0
 10 11  1  0  0  0
  8 12  1  0  0  0
 12 13  2  0  0  0
 13 14  1  0  0  0
 14 15  2  0  0  0
 15 16  1  0  0  0
 16 17  2  0  0  0
 17 18  1  0  0  0
 18 19  1  0  0  0
 18 20  1  0  0  0
 18 21  1  0  0  0
  3 22  1  0  0  0
 22 23  2  0  0  0
 23 24  1  0  0  0
 24 25  2  0  0  0
 25 26  1  0  0  0
 26 27  2  0  0  0
 33 34  1  0  0  0
 34 35  2  0  0  0
 35 30  1  0  0  0
 11  1  1  0  0  0
 17 12  1  0  0  0
 27 22  1  0  0  0
 11  5  2  0  0  0
 28 29  1  0  0  0
M  END
> <minimizedAffinity>
-10.72318

> <CNNscore>
0.4603064060

> <CNNaffinity>
7.0059151649

> <CNN_VS>
3.2248675823

> <CNNaffinity_variance>
0.1226771623

$$$$
[H]c1nc([H])c(-c2nc(N([H])c3c([H])c([H])c(C(F)(F)F)c([H])c3[H])c3c(n2)C([H])([H])C([H])([H])N(c2nc([H])c([H])c([H])c2C(F)(F)F)C([H])([H])C3([H])[H])c([H])c1[H]


 39 43  0  0  0  0  0  0  0  0999 V2000
  155.3353  138.9470  184.8078 C   0  0  0  0  0  0  0  0  0  0  0  0
  154.4362  138.9472  183.8192 N   0  0  0  0  0  0  0  0  0  0  0  0
  153.2321  138.3884  183.8534 C   0  0  0  0  0  0  0  0  0  0  0  0
  152.8575  137.7477  185.0002 N   0  0  0  0  0  0  0  0  0  0  0  0
  153.6905  137.6969  186.0436 C   0  0  0  0  0  0  0  0  0  0  0  0
  153.1015  137.0144  187.2143 C   0  0  0  0  0  0  0  0  0  0  0  0
  153.9431  135.8203  187.5860 C   0  0  0  0  0  0  0  0  0  0  0  0
  155.2577  136.1652  188.0147 N   0  0  0  0  0  0  0  0  0  0  0  0
  156.3140  136.7693  187.1853 C   0  0  0  0  0  0  0  0  0  0  0  0
  155.9334  138.2443  187.0532 C   0  0  0  0  0  0  0  0  0  0  0  0
  154.9476  138.2977  185.9613 C   0  0  0  0  0  0  0  0  0  0  0  0
  155.7211  135.9815  189.3373 C   0  0  0  0  0  0  0  0  0  0  0  0
  156.5962  134.9444  189.6005 N   0  0  0  0  0  0  0  0  0  0  0  0
  157.0837  134.6890  190.8051 C   0  0  0  0  0  0  0  0  0  0  0  0
  156.7311  135.4657  191.8767 C   0  0  0  0  0  0  0  0  0  0  0  0
  155.8699  136.5100  191.6895 C   0  0  0  0  0  0  0  0  0  0  0  0
  155.3661  136.7617  190.3991 C   0  0  0  0  0  0  0  0  0  0  0  0
  154.4253  137.8799  190.2643 C   0  0  0  0  0  0  0  0  0  0  0  0
  153.1548  137.5698  189.8958 F   0  0  0  0  0  0  0  0  0  0  0  0
  154.8874  138.7859  189.2860 F   0  0  0  0  0  0  0  0  0  0  0  0
  154.4320  138.6681  191.4376 F   0  0  0  0  0  0  0  0  0  0  0  0
  152.3025  138.4348  182.7361 C   0  0  0  0  0  0  0  0  0  0  0  0
  151.1139  137.7484  182.6921 C   0  0  0  0  0  0  0  0  0  0  0  0
  150.2551  137.8146  181.6056 C   0  0  0  0  0  0  0  0  0  0  0  0
  150.6286  138.6028  180.5502 C   0  0  0  0  0  0  0  0  0  0  0  0
  151.7763  139.2880  180.5544 N   0  0  0  0  0  0  0  0  0  0  0  0
  152.6142  139.2146  181.6273 C   0  0  0  0  0  0  0  0  0  0  0  0
  156.5721  139.5635  184.6905 N   0  0  0  0  0  0  0  0  0  0  0  0
  157.3011  139.2895  185.4402 H   0  0  0  0  0  0  0  0  0  0  0  0
  158.0533  142.2566  181.7688 C   0  0  0  0  0  0  0  0  0  0  0  0
  158.3569  140.8986  181.7044 C   0  0  0  0  0  0  0  0  0  0  0  0
  157.8462  140.0811  182.6714 C   0  0  0  0  0  0  0  0  0  0  0  0
  157.0381  140.5004  183.7286 C   0  0  0  0  0  0  0  0  0  0  0  0
  156.7672  141.8382  183.7521 C   0  0  0  0  0  0  0  0  0  0  0  0
  157.2640  142.7284  182.7849 C   0  0  0  0  0  0  0  0  0  0  0  0
  157.8312  143.0118  179.5876 F   0  0  0  0  0  0  0  0  0  0  0  0
  158.6304  143.1004  180.7158 C   0  0  0  0  0  0  0  0  0  0  0  0
  158.7356  144.3952  181.1605 F   0  0  0  0  0  0  0  0  0  0  0  0
  159.8820  142.5777  180.4047 F   0  0  0  0  0  0  0  0  0  0  0  0
 36 37  1  0  0  0
 37 38  1  0  0  0
 37 39  1  0  0  0
 37 30  1  0  0  0
 30 31  2  0  0  0
 31 32  1  0  0  0
 32 33  2  0  0  0
 33 28  1  0  0  0
 28  1  1  0  0  0
  1  2  2  0  0  0
  2  3  1  0  0  0
  3  4  2  0  0  0
  4  5  1  0  0  0
  5  6  1  0  0  0
  6  7  1  0  0  0
  7  8  1  0  0  0
  8  9  1  0  0  0
  9 10  1  0  0  0
 10 11  1  0  0  0
  8 12  1  0  0  0
 12 13  2  0  0  0
 13 14  1  0  0  0
 14 15  2  0  0  0
 15 16  1  0  0  0
 16 17  2  0  0  0
 17 18  1  0  0  0
 18 19  1  0  0  0
 18 20  1  0  0  0
 18 21  1  0  0  0
  3 22  1  0  0  0
 22 23  2  0  0  0
 23 24  1  0  0  0
 24 25  2  0  0  0
 25 26  1  0  0  0
 26 27  2  0  0  0
 33 34  1  0  0  0
 34 35  2  0  0  0
 35 30  1  0  0  0
 11  1  1  0  0  0
 17 12  1  0  0  0
 27 22  1  0  0  0
 11  5  2  0  0  0
 28 29  1  0  0  0
M  END
> <minimizedAffinity>
-9.51768

> <CNNscore>
0.4195422828

> <CNNaffinity>
7.0041580200

> <CNN_VS>
2.9385404587

> <CNNaffinity_variance>
0.0950967669

$$$$
[H]c1nc([H])c(-c2nc(N([H])c3c([H])c([H])c(C(F)(F)F)c([H])c3[H])c3c(n2)C([H])([H])C([H])([H])N(c2nc([H])c([H])c([H])c2C(F)(F)F)C([H])([H])C3([H])[H])c([H])c1[H]


 39 43  0  0  0  0  0  0  0  0999 V2000
  155.2876  138.8169  184.8384 C   0  0  0  0  0  0  0  0  0  0  0  0
  154.3565  138.8134  183.8799 N   0  0  0  0  0  0  0  0  0  0  0  0
  153.1368  138.2968  183.9725 C   0  0  0  0  0  0  0  0  0  0  0  0
  152.7800  137.7085  185.1527 N   0  0  0  0  0  0  0  0  0  0  0  0
  153.6453  137.6656  186.1699 C   0  0  0  0  0  0  0  0  0  0  0  0
  153.0739  137.0438  187.3823 C   0  0  0  0  0  0  0  0  0  0  0  0
  153.8883  135.8356  187.7686 C   0  0  0  0  0  0  0  0  0  0  0  0
  155.2269  136.1507  188.1424 N   0  0  0  0  0  0  0  0  0  0  0  0
  156.2739  136.6902  187.2587 C   0  0  0  0  0  0  0  0  0  0  0  0
  155.9371  138.1718  187.0868 C   0  0  0  0  0  0  0  0  0  0  0  0
  154.9177  138.2208  186.0260 C   0  0  0  0  0  0  0  0  0  0  0  0
  155.7278  135.9969  189.4551 C   0  0  0  0  0  0  0  0  0  0  0  0
  156.5920  134.9516  189.7221 N   0  0  0  0  0  0  0  0  0  0  0  0
  157.1121  134.7223  190.9183 C   0  0  0  0  0  0  0  0  0  0  0  0
  156.8071  135.5365  191.9766 C   0  0  0  0  0  0  0  0  0  0  0  0
  155.9594  136.5909  191.7848 C   0  0  0  0  0  0  0  0  0  0  0  0
  155.4202  136.8143  190.5035 C   0  0  0  0  0  0  0  0  0  0  0  0
  154.4959  137.9457  190.3644 C   0  0  0  0  0  0  0  0  0  0  0  0
  154.7389  138.8129  189.3471 F   0  0  0  0  0  0  0  0  0  0  0  0
  154.5121  138.7309  191.5367 F   0  0  0  0  0  0  0  0  0  0  0  0
  153.1606  137.4836  190.3251 F   0  0  0  0  0  0  0  0  0  0  0  0
  152.1725  138.3359  182.8847 C   0  0  0  0  0  0  0  0  0  0  0  0
  152.2253  139.2234  181.8381 C   0  0  0  0  0  0  0  0  0  0  0  0
  151.2834  139.2325  180.8206 C   0  0  0  0  0  0  0  0  0  0  0  0
  150.2736  138.3101  180.8843 C   0  0  0  0  0  0  0  0  0  0  0  0
  150.1873  137.4282  181.8850 N   0  0  0  0  0  0  0  0  0  0  0  0
  151.1180  137.4290  182.8811 C   0  0  0  0  0  0  0  0  0  0  0  0
  156.5391  139.3872  184.6597 N   0  0  0  0  0  0  0  0  0  0  0  0
  157.2226  139.2783  185.4902 H   0  0  0  0  0  0  0  0  0  0  0  0
  158.0148  141.5817  181.3447 C   0  0  0  0  0  0  0  0  0  0  0  0
  156.9890  142.0923  182.1369 C   0  0  0  0  0  0  0  0  0  0  0  0
  156.5603  141.3408  183.1931 C   0  0  0  0  0  0  0  0  0  0  0  0
  157.0713  140.0914  183.5457 C   0  0  0  0  0  0  0  0  0  0  0  0
  158.0739  139.6306  182.7418 C   0  0  0  0  0  0  0  0  0  0  0  0
  158.5569  140.3585  181.6411 C   0  0  0  0  0  0  0  0  0  0  0  0
  159.8124  142.5819  180.2744 F   0  0  0  0  0  0  0  0  0  0  0  0
  158.4381  142.4171  180.2147 C   0  0  0  0  0  0  0  0  0  0  0  0
  158.0494  141.8357  179.0332 F   0  0  0  0  0  0  0  0  0  0  0  0
  157.8429  143.6647  180.3752 F   0  0  0  0  0  0  0  0  0  0  0  0
 36 37  1  0  0  0
 37 38  1  0  0  0
 37 39  1  0  0  0
 37 30  1  0  0  0
 30 31  2  0  0  0
 31 32  1  0  0  0
 32 33  2  0  0  0
 33 28  1  0  0  0
 28  1  1  0  0  0
  1  2  2  0  0  0
  2  3  1  0  0  0
  3  4  2  0  0  0
  4  5  1  0  0  0
  5  6  1  0  0  0
  6  7  1  0  0  0
  7  8  1  0  0  0
  8  9  1  0  0  0
  9 10  1  0  0  0
 10 11  1  0  0  0
  8 12  1  0  0  0
 12 13  2  0  0  0
 13 14  1  0  0  0
 14 15  2  0  0  0
 15 16  1  0  0  0
 16 17  2  0  0  0
 17 18  1  0  0  0
 18 19  1  0  0  0
 18 20  1  0  0  0
 18 21  1  0  0  0
  3 22  1  0  0  0
 22 23  2  0  0  0
 23 24  1  0  0  0
 24 25  2  0  0  0
 25 26  1  0  0  0
 26 27  2  0  0  0
 33 34  1  0  0  0
 34 35  2  0  0  0
 35 30  1  0  0  0
 11  1  1  0  0  0
 17 12  1  0  0  0
 27 22  1  0  0  0
 11  5  2  0  0  0
 28 29  1  0  0  0
M  END
> <minimizedAffinity>
-9.90995

> <CNNscore>
0.4056447148

> <CNNaffinity>
6.8917455673

> <CNN_VS>
2.7956001759

> <CNNaffinity_variance>
0.1198149323

$$$$
[H]c1nc([H])c(-c2nc(N([H])c3c([H])c([H])c(C(F)(F)F)c([H])c3[H])c3c(n2)C([H])([H])C([H])([H])N(c2nc([H])c([H])c([H])c2C(F)(F)F)C([H])([H])C3([H])[H])c([H])c1[H]


 39 43  0  0  0  0  0  0  0  0999 V2000
  154.7447  138.8155  184.3907 C   0  0  0  0  0  0  0  0  0  0  0  0
  155.9447  139.3060  184.0663 N   0  0  0  0  0  0  0  0  0  0  0  0
  156.1949  140.2110  183.1274 C   0  0  0  0  0  0  0  0  0  0  0  0
  155.1378  140.7003  182.4138 N   0  0  0  0  0  0  0  0  0  0  0  0
  153.8989  140.2697  182.6687 C   0  0  0  0  0  0  0  0  0  0  0  0
  152.8764  140.9444  181.8425 C   0  0  0  0  0  0  0  0  0  0  0  0
  152.1330  139.9253  181.0173 C   0  0  0  0  0  0  0  0  0  0  0  0
  151.3853  138.9987  181.8004 N   0  0  0  0  0  0  0  0  0  0  0  0
  151.9382  137.9894  182.7191 C   0  0  0  0  0  0  0  0  0  0  0  0
  152.3543  138.7633  183.9705 C   0  0  0  0  0  0  0  0  0  0  0  0
  153.6840  139.3158  183.6647 C   0  0  0  0  0  0  0  0  0  0  0  0
  149.9729  138.9432  181.8073 C   0  0  0  0  0  0  0  0  0  0  0  0
  149.3066  139.0398  183.0146 N   0  0  0  0  0  0  0  0  0  0  0  0
  147.9876  138.9960  183.1255 C   0  0  0  0  0  0  0  0  0  0  0  0
  147.2011  138.8483  182.0139 C   0  0  0  0  0  0  0  0  0  0  0  0
  147.7928  138.7475  180.7863 C   0  0  0  0  0  0  0  0  0  0  0  0
  149.1968  138.7979  180.6944 C   0  0  0  0  0  0  0  0  0  0  0  0
  149.7761  138.6583  179.3533 C   0  0  0  0  0  0  0  0  0  0  0  0
  150.2631  139.7879  178.7764 F   0  0  0  0  0  0  0  0  0  0  0  0
  148.8041  138.1691  178.4549 F   0  0  0  0  0  0  0  0  0  0  0  0
  150.7452  137.6293  179.3445 F   0  0  0  0  0  0  0  0  0  0  0  0
  157.5315  140.7030  182.8339 C   0  0  0  0  0  0  0  0  0  0  0  0
  157.8576  141.4314  181.7164 C   0  0  0  0  0  0  0  0  0  0  0  0
  159.1461  141.8797  181.4690 C   0  0  0  0  0  0  0  0  0  0  0  0
  160.1112  141.5728  182.3904 C   0  0  0  0  0  0  0  0  0  0  0  0
  159.8347  140.8674  183.4917 N   0  0  0  0  0  0  0  0  0  0  0  0
  158.5645  140.4303  183.7243 C   0  0  0  0  0  0  0  0  0  0  0  0
  154.5709  137.8737  185.3938 N   0  0  0  0  0  0  0  0  0  0  0  0
  154.3280  136.8754  185.0574 H   0  0  0  0  0  0  0  0  0  0  0  0
  155.0008  138.2368  189.5969 C   0  0  0  0  0  0  0  0  0  0  0  0
  156.1030  137.9655  188.7893 C   0  0  0  0  0  0  0  0  0  0  0  0
  155.9014  137.8653  187.4426 C   0  0  0  0  0  0  0  0  0  0  0  0
  154.6695  138.0134  186.8048 C   0  0  0  0  0  0  0  0  0  0  0  0
  153.6183  138.2775  187.6349 C   0  0  0  0  0  0  0  0  0  0  0  0
  153.7638  138.3922  189.0279 C   0  0  0  0  0  0  0  0  0  0  0  0
  156.5657  137.9309  191.2805 F   0  0  0  0  0  0  0  0  0  0  0  0
  155.2602  138.3264  191.0387 C   0  0  0  0  0  0  0  0  0  0  0  0
  155.0309  139.6078  191.4753 F   0  0  0  0  0  0  0  0  0  0  0  0
  154.4084  137.4253  191.6703 F   0  0  0  0  0  0  0  0  0  0  0  0
 36 37  1  0  0  0
 37 38  1  0  0  0
 37 39  1  0  0  0
 37 30  1  0  0  0
 30 31  2  0  0  0
 31 32  1  0  0  0
 32 33  2  0  0  0
 33 28  1  0  0  0
 28  1  1  0  0  0
  1  2  2  0  0  0
  2  3  1  0  0  0
  3  4  2  0  0  0
  4  5  1  0  0  0
  5  6  1  0  0  0
  6  7  1  0  0  0
  7  8  1  0  0  0
  8  9  1  0  0  0
  9 10  1  0  0  0
 10 11  1  0  0  0
  8 12  1  0  0  0
 12 13  2  0  0  0
 13 14  1  0  0  0
 14 15  2  0  0  0
 15 16  1  0  0  0
 16 17  2  0  0  0
 17 18  1  0  0  0
 18 19  1  0  0  0
 18 20  1  0  0  0
 18 21  1  0  0  0
  3 22  1  0  0  0
 22 23  2  0  0  0
 23 24  1  0  0  0
 24 25  2  0  0  0
 25 26  1  0  0  0
 26 27  2  0  0  0
 33 34  1  0  0  0
 34 35  2  0  0  0
 35 30  1  0  0  0
 11  1  1  0  0  0
 17 12  1  0  0  0
 27 22  1  0  0  0
 11  5  2  0  0  0
 28 29  1  0  0  0
M  END
> <minimizedAffinity>
-10.02235

> <CNNscore>
0.3812220395

> <CNNaffinity>
6.9750146866

> <CNN_VS>
2.6590292454

> <CNNaffinity_variance>
0.0852486491

$$$$
[H]c1nc([H])c(-c2nc(N([H])c3c([H])c([H])c(C(F)(F)F)c([H])c3[H])c3c(n2)C([H])([H])C([H])([H])N(c2nc([H])c([H])c([H])c2C(F)(F)F)C([H])([H])C3([H])[H])c([H])c1[H]


 39 43  0  0  0  0  0  0  0  0999 V2000
  153.6713  137.4193  185.1501 C   0  0  0  0  0  0  0  0  0  0  0  0
  153.9782  136.6580  184.0956 N   0  0  0  0  0  0  0  0  0  0  0  0
  153.8435  135.3395  184.0138 C   0  0  0  0  0  0  0  0  0  0  0  0
  153.3446  134.6796  185.1009 N   0  0  0  0  0  0  0  0  0  0  0  0
  153.0079  135.3579  186.2017 C   0  0  0  0  0  0  0  0  0  0  0  0
  152.4363  134.4935  187.2549 C   0  0  0  0  0  0  0  0  0  0  0  0
  153.2788  134.5829  188.5017 C   0  0  0  0  0  0  0  0  0  0  0  0
  153.2854  135.8814  189.0890 N   0  0  0  0  0  0  0  0  0  0  0  0
  153.8621  137.1012  188.4991 C   0  0  0  0  0  0  0  0  0  0  0  0
  152.8606  137.5506  187.4346 C   0  0  0  0  0  0  0  0  0  0  0  0
  153.1684  136.7437  186.2425 C   0  0  0  0  0  0  0  0  0  0  0  0
  152.7041  136.1739  190.3437 C   0  0  0  0  0  0  0  0  0  0  0  0
  151.3302  136.2988  190.4305 N   0  0  0  0  0  0  0  0  0  0  0  0
  150.6924  136.5735  191.5582 C   0  0  0  0  0  0  0  0  0  0  0  0
  151.3879  136.7516  192.7245 C   0  0  0  0  0  0  0  0  0  0  0  0
  152.7498  136.6415  192.7129 C   0  0  0  0  0  0  0  0  0  0  0  0
  153.4048  136.3478  191.5016 C   0  0  0  0  0  0  0  0  0  0  0  0
  154.8694  136.2678  191.5456 C   0  0  0  0  0  0  0  0  0  0  0  0
  155.4497  135.2703  190.8286 F   0  0  0  0  0  0  0  0  0  0  0  0
  155.3039  136.0745  192.8742 F   0  0  0  0  0  0  0  0  0  0  0  0
  155.4371  137.5203  191.2182 F   0  0  0  0  0  0  0  0  0  0  0  0
  154.1945  134.5770  182.8264 C   0  0  0  0  0  0  0  0  0  0  0  0
  153.5766  134.7177  181.6081 C   0  0  0  0  0  0  0  0  0  0  0  0
  153.9372  133.9682  180.4988 C   0  0  0  0  0  0  0  0  0  0  0  0
  154.9520  133.0616  180.6496 C   0  0  0  0  0  0  0  0  0  0  0  0
  155.5800  132.8953  181.8179 N   0  0  0  0  0  0  0  0  0  0  0  0
  155.2165  133.6366  182.9027 C   0  0  0  0  0  0  0  0  0  0  0  0
  153.8372  138.7962  185.1487 N   0  0  0  0  0  0  0  0  0  0  0  0
  153.2103  139.3408  185.8409 H   0  0  0  0  0  0  0  0  0  0  0  0
  156.3447  141.2396  182.7560 C   0  0  0  0  0  0  0  0  0  0  0  0
  154.9816  141.1390  182.4867 C   0  0  0  0  0  0  0  0  0  0  0  0
  154.2258  140.3403  183.2959 C   0  0  0  0  0  0  0  0  0  0  0  0
  154.7132  139.6099  184.3801 C   0  0  0  0  0  0  0  0  0  0  0  0
  156.0534  139.7381  184.6061 C   0  0  0  0  0  0  0  0  0  0  0  0
  156.8821  140.5448  183.8079 C   0  0  0  0  0  0  0  0  0  0  0  0
  156.6330  143.3937  181.9475 F   0  0  0  0  0  0  0  0  0  0  0  0
  157.1213  142.1005  181.8561 C   0  0  0  0  0  0  0  0  0  0  0  0
  158.4530  142.0383  182.1848 F   0  0  0  0  0  0  0  0  0  0  0  0
  156.9069  141.6450  180.5587 F   0  0  0  0  0  0  0  0  0  0  0  0
 36 37  1  0  0  0
 37 38  1  0  0  0
 37 39  1  0  0  0
 37 30  1  0  0  0
 30 31  2  0  0  0
 31 32  1  0  0  0
 32 33  2  0  0  0
 33 28  1  0  0  0
 28  1  1  0  0  0
  1  2  2  0  0  0
  2  3  1  0  0  0
  3  4  2  0  0  0
  4  5  1  0  0  0
  5  6  1  0  0  0
  6  7  1  0  0  0
  7  8  1  0  0  0
  8  9  1  0  0  0
  9 10  1  0  0  0
 10 11  1  0  0  0
  8 12  1  0  0  0
 12 13  2  0  0  0
 13 14  1  0  0  0
 14 15  2  0  0  0
 15 16  1  0  0  0
 16 17  2  0  0  0
 17 18  1  0  0  0
 18 19  1  0  0  0
 18 20  1  0  0  0
 18 21  1  0  0  0
  3 22  1  0  0  0
 22 23  2  0  0  0
 23 24  1  0  0  0
 24 25  2  0  0  0
 25 26  1  0  0  0
 26 27  2  0  0  0
 33 34  1  0  0  0
 34 35  2  0  0  0
 35 30  1  0  0  0
 11  1  1  0  0  0
 17 12  1  0  0  0
 27 22  1  0  0  0
 11  5  2  0  0  0
 28 29  1  0  0  0
M  END
> <minimizedAffinity>
-7.64025

> <CNNscore>
0.3234245777

> <CNNaffinity>
6.5761795044

> <CNN_VS>
2.1268980503

> <CNNaffinity_variance>
0.1449233741

$$$$
[H]c1nc([H])c(-c2nc(N([H])c3c([H])c([H])c(C(F)(F)F)c([H])c3[H])c3c(n2)C([H])([H])C([H])([H])N(c2nc([H])c([H])c([H])c2C(F)(F)F)C([H])([H])C3([H])[H])c([H])c1[H]


 39 43  0  0  0  0  0  0  0  0999 V2000
  154.2409  138.7372  184.1560 C   0  0  0  0  0  0  0  0  0  0  0  0
  155.2044  139.6412  183.9557 N   0  0  0  0  0  0  0  0  0  0  0  0
  155.2220  140.5727  183.0095 C   0  0  0  0  0  0  0  0  0  0  0  0
  154.1628  140.6292  182.1487 N   0  0  0  0  0  0  0  0  0  0  0  0
  153.1505  139.7661  182.2725 C   0  0  0  0  0  0  0  0  0  0  0  0
  152.0691  140.0073  181.2949 C   0  0  0  0  0  0  0  0  0  0  0  0
  151.8730  138.7827  180.4380 C   0  0  0  0  0  0  0  0  0  0  0  0
  151.4267  137.6445  181.1702 N   0  0  0  0  0  0  0  0  0  0  0  0
  152.1885  136.9172  182.1993 C   0  0  0  0  0  0  0  0  0  0  0  0
  152.1187  137.7923  183.4512 C   0  0  0  0  0  0  0  0  0  0  0  0
  153.1759  138.8025  183.2819 C   0  0  0  0  0  0  0  0  0  0  0  0
  150.1483  137.0637  181.0080 C   0  0  0  0  0  0  0  0  0  0  0  0
  150.0576  135.7758  180.5144 N   0  0  0  0  0  0  0  0  0  0  0  0
  148.9078  135.1466  180.3243 C   0  0  0  0  0  0  0  0  0  0  0  0
  147.7208  135.7638  180.6177 C   0  0  0  0  0  0  0  0  0  0  0  0
  147.7353  137.0381  181.1107 C   0  0  0  0  0  0  0  0  0  0  0  0
  148.9704  137.6854  181.3049 C   0  0  0  0  0  0  0  0  0  0  0  0
  148.9220  139.0618  181.8118 C   0  0  0  0  0  0  0  0  0  0  0  0
  149.6749  139.3368  182.9088 F   0  0  0  0  0  0  0  0  0  0  0  0
  147.5999  139.3985  182.1721 F   0  0  0  0  0  0  0  0  0  0  0  0
  149.1965  139.9762  180.7695 F   0  0  0  0  0  0  0  0  0  0  0  0
  156.3065  141.5294  182.8564 C   0  0  0  0  0  0  0  0  0  0  0  0
  156.1863  142.7353  182.2105 C   0  0  0  0  0  0  0  0  0  0  0  0
  157.2460  143.6200  182.0809 C   0  0  0  0  0  0  0  0  0  0  0  0
  158.4466  143.2545  182.6282 C   0  0  0  0  0  0  0  0  0  0  0  0
  158.6047  142.0905  183.2662 N   0  0  0  0  0  0  0  0  0  0  0  0
  157.5564  141.2274  183.3865 C   0  0  0  0  0  0  0  0  0  0  0  0
  154.2987  137.8002  185.1769 N   0  0  0  0  0  0  0  0  0  0  0  0
  154.1721  136.7710  184.8712 H   0  0  0  0  0  0  0  0  0  0  0  0
  155.0463  138.2672  189.3249 C   0  0  0  0  0  0  0  0  0  0  0  0
  156.0504  137.8266  188.4656 C   0  0  0  0  0  0  0  0  0  0  0  0
  155.7497  137.7011  187.1397 C   0  0  0  0  0  0  0  0  0  0  0  0
  154.5066  137.9805  186.5714 C   0  0  0  0  0  0  0  0  0  0  0  0
  153.5536  138.4083  187.4503 C   0  0  0  0  0  0  0  0  0  0  0  0
  153.8037  138.5570  188.8250 C   0  0  0  0  0  0  0  0  0  0  0  0
  154.9140  139.5748  191.2353 F   0  0  0  0  0  0  0  0  0  0  0  0
  155.4093  138.3785  190.7426 C   0  0  0  0  0  0  0  0  0  0  0  0
  154.9145  137.3022  191.4369 F   0  0  0  0  0  0  0  0  0  0  0  0
  156.7984  138.4206  190.8132 F   0  0  0  0  0  0  0  0  0  0  0  0
 36 37  1  0  0  0
 37 38  1  0  0  0
 37 39  1  0  0  0
 37 30  1  0  0  0
 30 31  2  0  0  0
 31 32  1  0  0  0
 32 33  2  0  0  0
 33 28  1  0  0  0
 28  1  1  0  0  0
  1  2  2  0  0  0
  2  3  1  0  0  0
  3  4  2  0  0  0
  4  5  1  0  0  0
  5  6  1  0  0  0
  6  7  1  0  0  0
  7  8  1  0  0  0
  8  9  1  0  0  0
  9 10  1  0  0  0
 10 11  1  0  0  0
  8 12  1  0  0  0
 12 13  2  0  0  0
 13 14  1  0  0  0
 14 15  2  0  0  0
 15 16  1  0  0  0
 16 17  2  0  0  0
 17 18  1  0  0  0
 18 19  1  0  0  0
 18 20  1  0  0  0
 18 21  1  0  0  0
  3 22  1  0  0  0
 22 23  2  0  0  0
 23 24  1  0  0  0
 24 25  2  0  0  0
 25 26  1  0  0  0
 26 27  2  0  0  0
 33 34  1  0  0  0
 34 35  2  0  0  0
 35 30  1  0  0  0
 11  1  1  0  0  0
 17 12  1  0  0  0
 27 22  1  0  0  0
 11  5  2  0  0  0
 28 29  1  0  0  0
M  END
> <minimizedAffinity>
-9.90575

> <CNNscore>
0.3230842352

> <CNNaffinity>
6.7276701927

> <CNN_VS>
2.1736042500

> <CNNaffinity_variance>
0.1296736300

$$$$
[H]c1nc([H])c(-c2nc(N([H])c3c([H])c([H])c(C(F)(F)F)c([H])c3[H])c3c(n2)C([H])([H])C([H])([H])N(c2nc([H])c([H])c([H])c2C(F)(F)F)C([H])([H])C3([H])[H])c([H])c1[H]


 39 43  0  0  0  0  0  0  0  0999 V2000
  152.4555  135.6057  191.0993 C   0  0  0  0  0  0  0  0  0  0  0  0
  151.5059  134.8289  191.6290 N   0  0  0  0  0  0  0  0  0  0  0  0
  150.6250  134.0974  190.9567 C   0  0  0  0  0  0  0  0  0  0  0  0
  150.6782  134.1277  189.5920 N   0  0  0  0  0  0  0  0  0  0  0  0
  151.5960  134.8755  188.9725 C   0  0  0  0  0  0  0  0  0  0  0  0
  151.5431  134.7455  187.5016 C   0  0  0  0  0  0  0  0  0  0  0  0
  151.2780  136.0926  186.8793 C   0  0  0  0  0  0  0  0  0  0  0  0
  152.3226  137.0356  187.1035 N   0  0  0  0  0  0  0  0  0  0  0  0
  152.7149  137.6085  188.4021 C   0  0  0  0  0  0  0  0  0  0  0  0
  153.5097  136.5092  189.1079 C   0  0  0  0  0  0  0  0  0  0  0  0
  152.5012  135.6295  189.7209 C   0  0  0  0  0  0  0  0  0  0  0  0
  153.1517  137.5416  186.0766 C   0  0  0  0  0  0  0  0  0  0  0  0
  154.4020  138.0296  186.4072 N   0  0  0  0  0  0  0  0  0  0  0  0
  155.2496  138.5261  185.5189 C   0  0  0  0  0  0  0  0  0  0  0  0
  154.9140  138.5795  184.1921 C   0  0  0  0  0  0  0  0  0  0  0  0
  153.6931  138.1132  183.7932 C   0  0  0  0  0  0  0  0  0  0  0  0
  152.8099  137.5891  184.7564 C   0  0  0  0  0  0  0  0  0  0  0  0
  151.5036  137.1278  184.2726 C   0  0  0  0  0  0  0  0  0  0  0  0
  150.4180  137.4842  185.0077 F   0  0  0  0  0  0  0  0  0  0  0  0
  151.4757  135.7177  184.2245 F   0  0  0  0  0  0  0  0  0  0  0  0
  151.3322  137.4828  182.9151 F   0  0  0  0  0  0  0  0  0  0  0  0
  149.6206  133.2690  191.6046 C   0  0  0  0  0  0  0  0  0  0  0  0
  148.4122  132.9392  191.0419 C   0  0  0  0  0  0  0  0  0  0  0  0
  147.4775  132.1494  191.6937 C   0  0  0  0  0  0  0  0  0  0  0  0
  147.7966  131.6921  192.9441 C   0  0  0  0  0  0  0  0  0  0  0  0
  148.9627  131.9890  193.5264 N   0  0  0  0  0  0  0  0  0  0  0  0
  149.8740  132.7676  192.8770 C   0  0  0  0  0  0  0  0  0  0  0  0
  153.3428  136.3339  191.8777 N   0  0  0  0  0  0  0  0  0  0  0  0
  154.1343  135.7608  192.3401 H   0  0  0  0  0  0  0  0  0  0  0  0
  153.5844  140.4960  192.6531 C   0  0  0  0  0  0  0  0  0  0  0  0
  154.4773  139.8819  191.7778 C   0  0  0  0  0  0  0  0  0  0  0  0
  154.3454  138.5396  191.5652 C   0  0  0  0  0  0  0  0  0  0  0  0
  153.3802  137.7265  192.1598 C   0  0  0  0  0  0  0  0  0  0  0  0
  152.5278  138.3703  193.0099 C   0  0  0  0  0  0  0  0  0  0  0  0
  152.6141  139.7489  193.2682 C   0  0  0  0  0  0  0  0  0  0  0  0
  155.0518  142.2823  192.4707 F   0  0  0  0  0  0  0  0  0  0  0  0
  153.7678  141.9374  192.8603 C   0  0  0  0  0  0  0  0  0  0  0  0
  152.8202  142.6349  192.1527 F   0  0  0  0  0  0  0  0  0  0  0  0
  153.6475  142.1789  194.2255 F   0  0  0  0  0  0  0  0  0  0  0  0
 36 37  1  0  0  0
 37 38  1  0  0  0
 37 39  1  0  0  0
 37 30  1  0  0  0
 30 31  2  0  0  0
 31 32  1  0  0  0
 32 33  2  0  0  0
 33 28  1  0  0  0
 28  1  1  0  0  0
  1  2  2  0  0  0
  2  3  1  0  0  0
  3  4  2  0  0  0
  4  5  1  0  0  0
  5  6  1  0  0  0
  6  7  1  0  0  0
  7  8  1  0  0  0
  8  9  1  0  0  0
  9 10  1  0  0  0
 10 11  1  0  0  0
  8 12  1  0  0  0
 12 13  2  0  0  0
 13 14  1  0  0  0
 14 15  2  0  0  0
 15 16  1  0  0  0
 16 17  2  0  0  0
 17 18  1  0  0  0
 18 19  1  0  0  0
 18 20  1  0  0  0
 18 21  1  0  0  0
  3 22  1  0  0  0
 22 23  2  0  0  0
 23 24  1  0  0  0
 24 25  2  0  0  0
 25 26  1  0  0  0
 26 27  2  0  0  0
 33 34  1  0  0  0
 34 35  2  0  0  0
 35 30  1  0  0  0
 11  1  1  0  0  0
 17 12  1  0  0  0
 27 22  1  0  0  0
 11  5  2  0  0  0
 28 29  1  0  0  0
M  END
> <minimizedAffinity>
-1.27627

> <CNNscore>
0.3008668721

> <CNNaffinity>
6.6554918289

> <CNN_VS>
2.0024170876

> <CNNaffinity_variance>
1.1474643946

$$$$
[H]c1nc([H])c(-c2nc(N([H])c3c([H])c([H])c(C(F)(F)F)c([H])c3[H])c3c(n2)C([H])([H])C([H])([H])N(c2nc([H])c([H])c([H])c2C(F)(F)F)C([H])([H])C3([H])[H])c([H])c1[H]


 39 43  0  0  0  0  0  0  0  0999 V2000
  154.7005  138.4426  184.3926 C   0  0  0  0  0  0  0  0  0  0  0  0
  155.9180  138.9509  184.1806 N   0  0  0  0  0  0  0  0  0  0  0  0
  156.2135  139.9768  183.3911 C   0  0  0  0  0  0  0  0  0  0  0  0
  155.1886  140.5850  182.7233 N   0  0  0  0  0  0  0  0  0  0  0  0
  153.9355  140.1468  182.8741 C   0  0  0  0  0  0  0  0  0  0  0  0
  152.9519  140.9538  182.1229 C   0  0  0  0  0  0  0  0  0  0  0  0
  152.2215  140.0796  181.1358 C   0  0  0  0  0  0  0  0  0  0  0  0
  151.4338  139.0647  181.7525 N   0  0  0  0  0  0  0  0  0  0  0  0
  151.9400  137.9225  182.5320 C   0  0  0  0  0  0  0  0  0  0  0  0
  152.3252  138.4991  183.8948 C   0  0  0  0  0  0  0  0  0  0  0  0
  153.6726  139.0635  183.7141 C   0  0  0  0  0  0  0  0  0  0  0  0
  150.0214  139.0368  181.7071 C   0  0  0  0  0  0  0  0  0  0  0  0
  149.3139  139.0826  182.8937 N   0  0  0  0  0  0  0  0  0  0  0  0
  147.9912  139.0589  182.9559 C   0  0  0  0  0  0  0  0  0  0  0  0
  147.2427  138.9858  181.8113 C   0  0  0  0  0  0  0  0  0  0  0  0
  147.8762  138.9385  180.6015 C   0  0  0  0  0  0  0  0  0  0  0  0
  149.2833  138.9659  180.5616 C   0  0  0  0  0  0  0  0  0  0  0  0
  149.9078  138.8860  179.2359 C   0  0  0  0  0  0  0  0  0  0  0  0
  151.0310  138.1285  179.1332 F   0  0  0  0  0  0  0  0  0  0  0  0
  150.2847  140.1741  178.8001 F   0  0  0  0  0  0  0  0  0  0  0  0
  148.9514  138.5040  178.2677 F   0  0  0  0  0  0  0  0  0  0  0  0
  157.5665  140.4795  183.2140 C   0  0  0  0  0  0  0  0  0  0  0  0
  158.5612  140.3659  184.1540 C   0  0  0  0  0  0  0  0  0  0  0  0
  159.8395  140.8626  183.9498 C   0  0  0  0  0  0  0  0  0  0  0  0
  160.0945  141.4837  182.7566 C   0  0  0  0  0  0  0  0  0  0  0  0
  159.1545  141.6133  181.8151 N   0  0  0  0  0  0  0  0  0  0  0  0
  157.9004  141.1226  182.0268 C   0  0  0  0  0  0  0  0  0  0  0  0
  154.4786  137.3694  185.2427 N   0  0  0  0  0  0  0  0  0  0  0  0
  153.8972  136.5588  184.8262 H   0  0  0  0  0  0  0  0  0  0  0  0
  155.7033  136.6137  189.2317 C   0  0  0  0  0  0  0  0  0  0  0  0
  155.3433  135.5662  188.3868 C   0  0  0  0  0  0  0  0  0  0  0  0
  154.9627  135.8730  187.1120 C   0  0  0  0  0  0  0  0  0  0  0  0
  154.9044  137.1626  186.5829 C   0  0  0  0  0  0  0  0  0  0  0  0
  155.2650  138.1569  187.4460 C   0  0  0  0  0  0  0  0  0  0  0  0
  155.6655  137.9030  188.7688 C   0  0  0  0  0  0  0  0  0  0  0  0
  154.9919  135.7170  191.2483 F   0  0  0  0  0  0  0  0  0  0  0  0
  156.0961  136.2405  190.5957 C   0  0  0  0  0  0  0  0  0  0  0  0
  157.1321  135.3405  190.5532 F   0  0  0  0  0  0  0  0  0  0  0  0
  156.4767  137.4072  191.2517 F   0  0  0  0  0  0  0  0  0  0  0  0
 36 37  1  0  0  0
 37 38  1  0  0  0
 37 39  1  0  0  0
 37 30  1  0  0  0
 30 31  2  0  0  0
 31 32  1  0  0  0
 32 33  2  0  0  0
 33 28  1  0  0  0
 28  1  1  0  0  0
  1  2  2  0  0  0
  2  3  1  0  0  0
  3  4  2  0  0  0
  4  5  1  0  0  0
  5  6  1  0  0  0
  6  7  1  0  0  0
  7  8  1  0  0  0
  8  9  1  0  0  0
  9 10  1  0  0  0
 10 11  1  0  0  0
  8 12  1  0  0  0
 12 13  2  0  0  0
 13 14  1  0  0  0
 14 15  2  0  0  0
 15 16  1  0  0  0
 16 17  2  0  0  0
 17 18  1  0  0  0
 18 19  1  0  0  0
 18 20  1  0  0  0
 18 21  1  0  0  0
  3 22  1  0  0  0
 22 23  2  0  0  0
 23 24  1  0  0  0
 24 25  2  0  0  0
 25 26  1  0  0  0
 26 27  2  0  0  0
 33 34  1  0  0  0
 34 35  2  0  0  0
 35 30  1  0  0  0
 11  1  1  0  0  0
 17 12  1  0  0  0
 27 22  1  0  0  0
 11  5  2  0  0  0
 28 29  1  0  0  0
M  END
> <minimizedAffinity>
-8.69787

> <CNNscore>
0.2952095866

> <CNNaffinity>
6.6799688339

> <CNN_VS>
1.9719908237

> <CNNaffinity_variance>
0.1019233689

$$$$
[H]c1nc([H])c(-c2nc(N([H])c3c([H])c([H])c(C(F)(F)F)c([H])c3[H])c3c(n2)C([H])([H])C([H])([H])N(c2nc([H])c([H])c([H])c2C(F)(F)F)C([H])([H])C3([H])[H])c([H])c1[H]


 39 43  0  0  0  0  0  0  0  0999 V2000
  156.3429  139.8092  184.9840 C   0  0  0  0  0  0  0  0  0  0  0  0
  156.0188  140.8833  184.2580 N   0  0  0  0  0  0  0  0  0  0  0  0
  154.8088  141.1871  183.8032 C   0  0  0  0  0  0  0  0  0  0  0  0
  153.7835  140.3329  184.0951 N   0  0  0  0  0  0  0  0  0  0  0  0
  154.0116  139.2324  184.8176 C   0  0  0  0  0  0  0  0  0  0  0  0
  152.7827  138.4561  185.0828 C   0  0  0  0  0  0  0  0  0  0  0  0
  152.9234  137.0673  184.5140 C   0  0  0  0  0  0  0  0  0  0  0  0
  153.9534  136.3026  185.1345 N   0  0  0  0  0  0  0  0  0  0  0  0
  155.3991  136.5758  185.0720 C   0  0  0  0  0  0  0  0  0  0  0  0
  155.6350  137.7391  186.0360 C   0  0  0  0  0  0  0  0  0  0  0  0
  155.3009  138.9530  185.2734 C   0  0  0  0  0  0  0  0  0  0  0  0
  153.7069  135.1596  185.9287 C   0  0  0  0  0  0  0  0  0  0  0  0
  154.0611  133.9166  185.4385 N   0  0  0  0  0  0  0  0  0  0  0  0
  153.8690  132.7880  186.1044 C   0  0  0  0  0  0  0  0  0  0  0  0
  153.2930  132.8034  187.3469 C   0  0  0  0  0  0  0  0  0  0  0  0
  152.9186  133.9981  187.8942 C   0  0  0  0  0  0  0  0  0  0  0  0
  153.1342  135.1843  187.1670 C   0  0  0  0  0  0  0  0  0  0  0  0
  152.6879  136.4336  187.7944 C   0  0  0  0  0  0  0  0  0  0  0  0
  153.5919  137.4462  187.8527 F   0  0  0  0  0  0  0  0  0  0  0  0
  152.3078  136.1945  189.1321 F   0  0  0  0  0  0  0  0  0  0  0  0
  151.4786  136.8703  187.2070 F   0  0  0  0  0  0  0  0  0  0  0  0
  154.5304  142.3812  183.0215 C   0  0  0  0  0  0  0  0  0  0  0  0
  153.2716  142.8848  182.8034 C   0  0  0  0  0  0  0  0  0  0  0  0
  153.0458  144.0250  182.0475 C   0  0  0  0  0  0  0  0  0  0  0  0
  154.1364  144.6553  181.5109 C   0  0  0  0  0  0  0  0  0  0  0  0
  155.3781  144.1984  181.7009 N   0  0  0  0  0  0  0  0  0  0  0  0
  155.5887  143.0754  182.4447 C   0  0  0  0  0  0  0  0  0  0  0  0
  157.6357  139.5710  185.4261 N   0  0  0  0  0  0  0  0  0  0  0  0
  157.8520  138.5481  185.7011 H   0  0  0  0  0  0  0  0  0  0  0  0
  160.9748  142.1653  185.7470 C   0  0  0  0  0  0  0  0  0  0  0  0
  160.8616  141.2794  184.6779 C   0  0  0  0  0  0  0  0  0  0  0  0
  159.7608  140.4732  184.6275 C   0  0  0  0  0  0  0  0  0  0  0  0
  158.7314  140.4649  185.5691 C   0  0  0  0  0  0  0  0  0  0  0  0
  158.8846  141.3481  186.5988 C   0  0  0  0  0  0  0  0  0  0  0  0
  159.9950  142.2028  186.7044 C   0  0  0  0  0  0  0  0  0  0  0  0
  162.5321  143.3062  184.4623 F   0  0  0  0  0  0  0  0  0  0  0  0
  162.1777  143.0060  185.7675 C   0  0  0  0  0  0  0  0  0  0  0  0
  161.9406  144.1421  186.5011 F   0  0  0  0  0  0  0  0  0  0  0  0
  163.2010  142.2520  186.3340 F   0  0  0  0  0  0  0  0  0  0  0  0
 36 37  1  0  0  0
 37 38  1  0  0  0
 37 39  1  0  0  0
 37 30  1  0  0  0
 30 31  2  0  0  0
 31 32  1  0  0  0
 32 33  2  0  0  0
 33 28  1  0  0  0
 28  1  1  0  0  0
  1  2  2  0  0  0
  2  3  1  0  0  0
  3  4  2  0  0  0
  4  5  1  0  0  0
  5  6  1  0  0  0
  6  7  1  0  0  0
  7  8  1  0  0  0
  8  9  1  0  0  0
  9 10  1  0  0  0
 10 11  1  0  0  0
  8 12  1  0  0  0
 12 13  2  0  0  0
 13 14  1  0  0  0
 14 15  2  0  0  0
 15 16  1  0  0  0
 16 17  2  0  0  0
 17 18  1  0  0  0
 18 19  1  0  0  0
 18 20  1  0  0  0
 18 21  1  0  0  0
  3 22  1  0  0  0
 22 23  2  0  0  0
 23 24  1  0  0  0
 24 25  2  0  0  0
 25 26  1  0  0  0
 26 27  2  0  0  0
 33 34  1  0  0  0
 34 35  2  0  0  0
 35 30  1  0  0  0
 11  1  1  0  0  0
 17 12  1  0  0  0
 27 22  1  0  0  0
 11  5  2  0  0  0
 28 29  1  0  0  0
M  END
> <minimizedAffinity>
-1.95272

> <CNNscore>
0.2911459208

> <CNNaffinity>
6.8055205345

> <CNN_VS>
1.9813995361

> <CNNaffinity_variance>
0.7168992162

$$$$
[H]c1c([H])c([H])c(-c2nc3c([H])c([H])c([H])c([H])c3c(C(=O)N3C([H])([H])C([H])([H])N(C(=O)N([H])c4c([H])c([H])c(C(F)(F)F)c([H])c4[H])C([H])([H])C3([H])[H])c2[H])c([H])c1[H]


 38 42  0  0  0  0  0  0  0  0999 V2000
  153.8714  133.6107  181.9881 N   0  0  0  0  0  0  0  0  0  0  0  0
  153.9946  132.5302  182.8912 C   0  0  0  0  0  0  0  0  0  0  0  0
  153.5081  131.4052  182.4909 O   0  0  0  0  0  0  0  0  0  0  0  0
  154.5740  132.4970  184.1652 N   0  0  0  0  0  0  0  0  0  0  0  0
  154.6577  131.1697  184.8472 C   0  0  0  0  0  0  0  0  0  0  0  0
  153.8106  131.3004  186.0663 C   0  0  0  0  0  0  0  0  0  0  0  0
  154.3226  132.3872  186.9276 N   0  0  0  0  0  0  0  0  0  0  0  0
  154.6021  133.6640  186.3658 C   0  0  0  0  0  0  0  0  0  0  0  0
  155.0923  133.5961  184.9311 C   0  0  0  0  0  0  0  0  0  0  0  0
  154.5192  132.0549  188.2443 C   0  0  0  0  0  0  0  0  0  0  0  0
  154.2459  130.8269  188.5797 O   0  0  0  0  0  0  0  0  0  0  0  0
  154.1882  134.5699  182.1222 H   0  0  0  0  0  0  0  0  0  0  0  0
  154.9847  132.8310  189.3790 C   0  0  0  0  0  0  0  0  0  0  0  0
  154.1533  133.5412  190.2009 C   0  0  0  0  0  0  0  0  0  0  0  0
  154.6946  134.3832  191.1971 C   0  0  0  0  0  0  0  0  0  0  0  0
  156.0237  134.4293  191.2678 N   0  0  0  0  0  0  0  0  0  0  0  0
  156.8660  133.7518  190.4881 C   0  0  0  0  0  0  0  0  0  0  0  0
  158.2494  133.8421  190.6241 C   0  0  0  0  0  0  0  0  0  0  0  0
  159.0883  133.1140  189.7879 C   0  0  0  0  0  0  0  0  0  0  0  0
  158.5807  132.2867  188.8106 C   0  0  0  0  0  0  0  0  0  0  0  0
  157.2017  132.1957  188.6748 C   0  0  0  0  0  0  0  0  0  0  0  0
  156.3787  132.9172  189.5017 C   0  0  0  0  0  0  0  0  0  0  0  0
  153.8110  135.2021  192.0093 C   0  0  0  0  0  0  0  0  0  0  0  0
  153.0670  134.7245  193.0710 C   0  0  0  0  0  0  0  0  0  0  0  0
  152.1701  135.5211  193.7785 C   0  0  0  0  0  0  0  0  0  0  0  0
  152.0010  136.8497  193.4203 C   0  0  0  0  0  0  0  0  0  0  0  0
  152.7262  137.3425  192.3737 C   0  0  0  0  0  0  0  0  0  0  0  0
  153.6198  136.5251  191.6800 C   0  0  0  0  0  0  0  0  0  0  0  0
  151.7872  132.5115  178.4559 C   0  0  0  0  0  0  0  0  0  0  0  0
  153.1547  132.5191  178.4755 C   0  0  0  0  0  0  0  0  0  0  0  0
  153.8735  132.8946  179.6089 C   0  0  0  0  0  0  0  0  0  0  0  0
  153.2010  133.2684  180.7502 C   0  0  0  0  0  0  0  0  0  0  0  0
  151.8161  133.2613  180.7266 C   0  0  0  0  0  0  0  0  0  0  0  0
  151.1206  132.8910  179.6088 C   0  0  0  0  0  0  0  0  0  0  0  0
  149.6545  132.4496  177.3696 F   0  0  0  0  0  0  0  0  0  0  0  0
  150.9690  132.0873  177.2749 C   0  0  0  0  0  0  0  0  0  0  0  0
  151.0406  130.6781  177.2240 F   0  0  0  0  0  0  0  0  0  0  0  0
  151.5019  132.5183  176.0963 F   0  0  0  0  0  0  0  0  0  0  0  0
 35 36  1  0  0  0
 36 37  1  0  0  0
 36 38  1  0  0  0
 36 29  1  0  0  0
 29 30  2  0  0  0
 30 31  1  0  0  0
 31 32  2  0  0  0
 32  1  1  0  0  0
  1  2  1  0  0  0
  2  3  2  0  0  0
  2  4  1  0  0  0
  4  5  1  0  0  0
  5  6  1  0  0  0
  6  7  1  0  0  0
  7  8  1  0  0  0
  8  9  1  0  0  0
  7 10  1  0  0  0
 10 11  2  0  0  0
 10 13  1  0  0  0
 13 14  2  0  0  0
 14 15  1  0  0  0
 15 16  2  0  0  0
 16 17  1  0  0  0
 17 18  2  0  0  0
 18 19  1  0  0  0
 19 20  2  0  0  0
 20 21  1  0  0  0
 21 22  2  0  0  0
 15 23  1  0  0  0
 23 24  2  0  0  0
 24 25  1  0  0  0
 25 26  2  0  0  0
 26 27  1  0  0  0
 27 28  2  0  0  0
 32 33  1  0  0  0
 33 34  2  0  0  0
 34 29  1  0  0  0
  9  4  1  0  0  0
 22 13  1  0  0  0
 28 23  1  0  0  0
 22 17  1  0  0  0
  1 12  1  0  0  0
M  END
> <minimizedAffinity>
-5.39408

> <CNNscore>
0.4295723736

> <CNNaffinity>
5.4672417641

> <CNN_VS>
2.3485760689

> <CNNaffinity_variance>
0.6297782660

$$$$
[H]c1c([H])c([H])c(-c2nc3c([H])c([H])c([H])c([H])c3c(C(=O)N3C([H])([H])C([H])([H])N(C(=O)N([H])c4c([H])c([H])c(C(F)(F)F)c([H])c4[H])C([H])([H])C3([H])[H])c2[H])c([H])c1[H]


 38 42  0  0  0  0  0  0  0  0999 V2000
  151.3568  136.7968  183.3403 N   0  0  0  0  0  0  0  0  0  0  0  0
  151.1218  135.6180  184.0844 C   0  0  0  0  0  0  0  0  0  0  0  0
  150.0632  134.9543  183.7658 O   0  0  0  0  0  0  0  0  0  0  0  0
  151.8746  135.0561  185.1223 N   0  0  0  0  0  0  0  0  0  0  0  0
  151.4339  133.7288  185.6496 C   0  0  0  0  0  0  0  0  0  0  0  0
  151.0623  133.9748  187.0717 C   0  0  0  0  0  0  0  0  0  0  0  0
  152.2260  134.4973  187.8187 N   0  0  0  0  0  0  0  0  0  0  0  0
  152.9723  135.5889  187.2941 C   0  0  0  0  0  0  0  0  0  0  0  0
  153.0285  135.6062  185.7775 C   0  0  0  0  0  0  0  0  0  0  0  0
  152.5185  133.8439  188.9893 C   0  0  0  0  0  0  0  0  0  0  0  0
  151.7512  132.8390  189.3001 O   0  0  0  0  0  0  0  0  0  0  0  0
  152.1311  137.4511  183.4438 H   0  0  0  0  0  0  0  0  0  0  0  0
  153.5491  134.0620  189.9877 C   0  0  0  0  0  0  0  0  0  0  0  0
  154.7813  133.4696  189.9437 C   0  0  0  0  0  0  0  0  0  0  0  0
  155.6775  133.6215  191.0244 C   0  0  0  0  0  0  0  0  0  0  0  0
  155.2440  134.3559  192.0474 N   0  0  0  0  0  0  0  0  0  0  0  0
  154.0537  134.9502  192.1263 C   0  0  0  0  0  0  0  0  0  0  0  0
  153.6689  135.7127  193.2267 C   0  0  0  0  0  0  0  0  0  0  0  0
  152.4165  136.3155  193.2627 C   0  0  0  0  0  0  0  0  0  0  0  0
  151.5280  136.1803  192.2189 C   0  0  0  0  0  0  0  0  0  0  0  0
  151.9111  135.4208  191.1212 C   0  0  0  0  0  0  0  0  0  0  0  0
  153.1475  134.8272  191.0916 C   0  0  0  0  0  0  0  0  0  0  0  0
  156.9495  132.9194  191.0125 C   0  0  0  0  0  0  0  0  0  0  0  0
  157.3009  131.9333  191.9143 C   0  0  0  0  0  0  0  0  0  0  0  0
  158.5591  131.3362  191.9222 C   0  0  0  0  0  0  0  0  0  0  0  0
  159.5130  131.7319  190.9971 C   0  0  0  0  0  0  0  0  0  0  0  0
  159.1870  132.7052  190.0968 C   0  0  0  0  0  0  0  0  0  0  0  0
  157.9191  133.2885  190.1076 C   0  0  0  0  0  0  0  0  0  0  0  0
  148.5338  137.6247  180.2786 C   0  0  0  0  0  0  0  0  0  0  0  0
  148.3371  138.1017  181.5452 C   0  0  0  0  0  0  0  0  0  0  0  0
  149.2300  137.8329  182.5809 C   0  0  0  0  0  0  0  0  0  0  0  0
  150.3484  137.0688  182.3363 C   0  0  0  0  0  0  0  0  0  0  0  0
  150.5438  136.5856  181.0529 C   0  0  0  0  0  0  0  0  0  0  0  0
  149.6612  136.8555  180.0438 C   0  0  0  0  0  0  0  0  0  0  0  0
  146.8211  136.8532  178.7941 F   0  0  0  0  0  0  0  0  0  0  0  0
  147.6217  137.9104  179.1251 C   0  0  0  0  0  0  0  0  0  0  0  0
  148.4522  138.2035  178.0215 F   0  0  0  0  0  0  0  0  0  0  0  0
  146.8754  139.0341  179.3234 F   0  0  0  0  0  0  0  0  0  0  0  0
 35 36  1  0  0  0
 36 37  1  0  0  0
 36 38  1  0  0  0
 36 29  1  0  0  0
 29 30  2  0  0  0
 30 31  1  0  0  0
 31 32  2  0  0  0
 32  1  1  0  0  0
  1  2  1  0  0  0
  2  3  2  0  0  0
  2  4  1  0  0  0
  4  5  1  0  0  0
  5  6  1  0  0  0
  6  7  1  0  0  0
  7  8  1  0  0  0
  8  9  1  0  0  0
  7 10  1  0  0  0
 10 11  2  0  0  0
 10 13  1  0  0  0
 13 14  2  0  0  0
 14 15  1  0  0  0
 15 16  2  0  0  0
 16 17  1  0  0  0
 17 18  2  0  0  0
 18 19  1  0  0  0
 19 20  2  0  0  0
 20 21  1  0  0  0
 21 22  2  0  0  0
 15 23  1  0  0  0
 23 24  2  0  0  0
 24 25  1  0  0  0
 25 26  2  0  0  0
 26 27  1  0  0  0
 27 28  2  0  0  0
 32 33  1  0  0  0
 33 34  2  0  0  0
 34 29  1  0  0  0
  9  4  1  0  0  0
 22 13  1  0  0  0
 28 23  1  0  0  0
 22 17  1  0  0  0
  1 12  1  0  0  0
M  END
> <minimizedAffinity>
-4.88130

> <CNNscore>
0.3922028840

> <CNNaffinity>
5.6222972870

> <CNN_VS>
2.2050812244

> <CNNaffinity_variance>
1.0712904930

$$$$
[H]c1c([H])c([H])c(-c2nc3c([H])c([H])c([H])c([H])c3c(C(=O)N3C([H])([H])C([H])([H])N(C(=O)N([H])c4c([H])c([H])c(C(F)(F)F)c([H])c4[H])C([H])([H])C3([H])[H])c2[H])c([H])c1[H]


 38 42  0  0  0  0  0  0  0  0999 V2000
  153.4700  134.5209  182.8391 N   0  0  0  0  0  0  0  0  0  0  0  0
  154.3343  133.8748  183.7524 C   0  0  0  0  0  0  0  0  0  0  0  0
  154.8710  132.7780  183.3380 O   0  0  0  0  0  0  0  0  0  0  0  0
  154.7012  134.2523  185.0496 N   0  0  0  0  0  0  0  0  0  0  0  0
  155.7317  133.4198  185.7415 C   0  0  0  0  0  0  0  0  0  0  0  0
  155.0365  132.8364  186.9235 C   0  0  0  0  0  0  0  0  0  0  0  0
  154.5307  133.9143  187.7996 N   0  0  0  0  0  0  0  0  0  0  0  0
  153.7739  134.9827  187.2432 C   0  0  0  0  0  0  0  0  0  0  0  0
  154.1935  135.3458  185.8306 C   0  0  0  0  0  0  0  0  0  0  0  0
  154.8685  133.8058  189.1251 C   0  0  0  0  0  0  0  0  0  0  0  0
  155.5998  132.7805  189.4554 O   0  0  0  0  0  0  0  0  0  0  0  0
  152.9545  135.3883  182.9812 H   0  0  0  0  0  0  0  0  0  0  0  0
  154.5568  134.6361  190.2741 C   0  0  0  0  0  0  0  0  0  0  0  0
  153.5949  134.3222  191.1946 C   0  0  0  0  0  0  0  0  0  0  0  0
  153.2544  135.2483  192.2049 C   0  0  0  0  0  0  0  0  0  0  0  0
  153.9164  136.4039  192.1889 N   0  0  0  0  0  0  0  0  0  0  0  0
  154.8601  136.7452  191.3118 C   0  0  0  0  0  0  0  0  0  0  0  0
  155.5189  137.9716  191.3601 C   0  0  0  0  0  0  0  0  0  0  0  0
  156.4986  138.2822  190.4236 C   0  0  0  0  0  0  0  0  0  0  0  0
  156.8459  137.3928  189.4309 C   0  0  0  0  0  0  0  0  0  0  0  0
  156.1901  136.1697  189.3824 C   0  0  0  0  0  0  0  0  0  0  0  0
  155.2233  135.8690  190.3081 C   0  0  0  0  0  0  0  0  0  0  0  0
  152.1722  134.9471  193.1263 C   0  0  0  0  0  0  0  0  0  0  0  0
  152.2011  133.9191  194.0490 C   0  0  0  0  0  0  0  0  0  0  0  0
  151.1143  133.6094  194.8631 C   0  0  0  0  0  0  0  0  0  0  0  0
  149.9463  134.3493  194.7603 C   0  0  0  0  0  0  0  0  0  0  0  0
  149.8958  135.3697  193.8546 C   0  0  0  0  0  0  0  0  0  0  0  0
  150.9982  135.6619  193.0500 C   0  0  0  0  0  0  0  0  0  0  0  0
  153.1035  132.6329  179.0536 C   0  0  0  0  0  0  0  0  0  0  0  0
  152.1278  132.4769  179.9994 C   0  0  0  0  0  0  0  0  0  0  0  0
  152.2231  133.0630  181.2602 C   0  0  0  0  0  0  0  0  0  0  0  0
  153.3240  133.8262  181.5762 C   0  0  0  0  0  0  0  0  0  0  0  0
  154.3112  133.9808  180.6169 C   0  0  0  0  0  0  0  0  0  0  0  0
  154.2076  133.4012  179.3826 C   0  0  0  0  0  0  0  0  0  0  0  0
  152.9074  132.9943  176.6951 F   0  0  0  0  0  0  0  0  0  0  0  0
  153.0345  132.0503  177.6753 C   0  0  0  0  0  0  0  0  0  0  0  0
  151.8911  131.2222  177.6478 F   0  0  0  0  0  0  0  0  0  0  0  0
  154.0855  131.2228  177.4116 F   0  0  0  0  0  0  0  0  0  0  0  0
 35 36  1  0  0  0
 36 37  1  0  0  0
 36 38  1  0  0  0
 36 29  1  0  0  0
 29 30  2  0  0  0
 30 31  1  0  0  0
 31 32  2  0  0  0
 32  1  1  0  0  0
  1  2  1  0  0  0
  2  3  2  0  0  0
  2  4  1  0  0  0
  4  5  1  0  0  0
  5  6  1  0  0  0
  6  7  1  0  0  0
  7  8  1  0  0  0
  8  9  1  0  0  0
  7 10  1  0  0  0
 10 11  2  0  0  0
 10 13  1  0  0  0
 13 14  2  0  0  0
 14 15  1  0  0  0
 15 16  2  0  0  0
 16 17  1  0  0  0
 17 18  2  0  0  0
 18 19  1  0  0  0
 19 20  2  0  0  0
 20 21  1  0  0  0
 21 22  2  0  0  0
 15 23  1  0  0  0
 23 24  2  0  0  0
 24 25  1  0  0  0
 25 26  2  0  0  0
 26 27  1  0  0  0
 27 28  2  0  0  0
 32 33  1  0  0  0
 33 34  2  0  0  0
 34 29  1  0  0  0
  9  4  1  0  0  0
 22 13  1  0  0  0
 28 23  1  0  0  0
 22 17  1  0  0  0
  1 12  1  0  0  0
M  END
> <minimizedAffinity>
-6.47987

> <CNNscore>
0.3917563856

> <CNNaffinity>
5.2799882889

> <CNN_VS>
2.0684690475

> <CNNaffinity_variance>
0.0345990472

$$$$
[H]c1c([H])c([H])c(-c2nc3c([H])c([H])c([H])c([H])c3c(C(=O)N3C([H])([H])C([H])([H])N(C(=O)N([H])c4c([H])c([H])c(C(F)(F)F)c([H])c4[H])C([H])([H])C3([H])[H])c2[H])c([H])c1[H]


 38 42  0  0  0  0  0  0  0  0999 V2000
  155.1451  135.0558  186.0759 N   0  0  0  0  0  0  0  0  0  0  0  0
  153.8111  135.3874  186.4060 C   0  0  0  0  0  0  0  0  0  0  0  0
  153.4796  135.2190  187.6407 O   0  0  0  0  0  0  0  0  0  0  0  0
  152.7876  135.8789  185.5870 N   0  0  0  0  0  0  0  0  0  0  0  0
  151.4975  136.2465  186.2461 C   0  0  0  0  0  0  0  0  0  0  0  0
  150.4829  135.3214  185.6670 C   0  0  0  0  0  0  0  0  0  0  0  0
  150.4133  135.4959  184.2007 N   0  0  0  0  0  0  0  0  0  0  0  0
  151.6081  135.4847  183.4287 C   0  0  0  0  0  0  0  0  0  0  0  0
  152.8044  136.0623  184.1625 C   0  0  0  0  0  0  0  0  0  0  0  0
  149.1553  135.6886  183.6876 C   0  0  0  0  0  0  0  0  0  0  0  0
  148.1757  135.7074  184.5450 O   0  0  0  0  0  0  0  0  0  0  0  0
  155.5909  135.1172  185.1616 H   0  0  0  0  0  0  0  0  0  0  0  0
  148.6835  135.8784  182.3282 C   0  0  0  0  0  0  0  0  0  0  0  0
  148.6591  134.8825  181.3908 C   0  0  0  0  0  0  0  0  0  0  0  0
  148.3188  135.1796  180.0528 C   0  0  0  0  0  0  0  0  0  0  0  0
  148.0369  136.4540  179.7881 N   0  0  0  0  0  0  0  0  0  0  0  0
  148.0474  137.4507  180.6729 C   0  0  0  0  0  0  0  0  0  0  0  0
  147.7328  138.7628  180.3264 C   0  0  0  0  0  0  0  0  0  0  0  0
  147.7555  139.7692  181.2855 C   0  0  0  0  0  0  0  0  0  0  0  0
  148.0840  139.5005  182.5959 C   0  0  0  0  0  0  0  0  0  0  0  0
  148.3972  138.1926  182.9421 C   0  0  0  0  0  0  0  0  0  0  0  0
  148.3745  137.2038  181.9916 C   0  0  0  0  0  0  0  0  0  0  0  0
  148.3792  134.1365  179.0432 C   0  0  0  0  0  0  0  0  0  0  0  0
  149.3995  133.2101  178.9436 C   0  0  0  0  0  0  0  0  0  0  0  0
  149.4657  132.2731  177.9154 C   0  0  0  0  0  0  0  0  0  0  0  0
  148.4789  132.2508  176.9418 C   0  0  0  0  0  0  0  0  0  0  0  0
  147.4613  133.1576  177.0208 C   0  0  0  0  0  0  0  0  0  0  0  0
  147.4157  134.0869  178.0612 C   0  0  0  0  0  0  0  0  0  0  0  0
  157.5667  133.7203  189.2978 C   0  0  0  0  0  0  0  0  0  0  0  0
  156.7371  132.8466  188.6504 C   0  0  0  0  0  0  0  0  0  0  0  0
  155.9119  133.2524  187.6032 C   0  0  0  0  0  0  0  0  0  0  0  0
  155.9235  134.5670  187.1956 C   0  0  0  0  0  0  0  0  0  0  0  0
  156.7634  135.4497  187.8545 C   0  0  0  0  0  0  0  0  0  0  0  0
  157.5692  135.0409  188.8810 C   0  0  0  0  0  0  0  0  0  0  0  0
  159.8146  133.4219  190.0659 F   0  0  0  0  0  0  0  0  0  0  0  0
  158.4943  133.3286  190.4069 C   0  0  0  0  0  0  0  0  0  0  0  0
  158.2067  131.9802  190.7115 F   0  0  0  0  0  0  0  0  0  0  0  0
  158.2453  134.0190  191.5559 F   0  0  0  0  0  0  0  0  0  0  0  0
 35 36  1  0  0  0
 36 37  1  0  0  0
 36 38  1  0  0  0
 36 29  1  0  0  0
 29 30  2  0  0  0
 30 31  1  0  0  0
 31 32  2  0  0  0
 32  1  1  0  0  0
  1  2  1  0  0  0
  2  3  2  0  0  0
  2  4  1  0  0  0
  4  5  1  0  0  0
  5  6  1  0  0  0
  6  7  1  0  0  0
  7  8  1  0  0  0
  8  9  1  0  0  0
  7 10  1  0  0  0
 10 11  2  0  0  0
 10 13  1  0  0  0
 13 14  2  0  0  0
 14 15  1  0  0  0
 15 16  2  0  0  0
 16 17  1  0  0  0
 17 18  2  0  0  0
 18 19  1  0  0  0
 19 20  2  0  0  0
 20 21  1  0  0  0
 21 22  2  0  0  0
 15 23  1  0  0  0
 23 24  2  0  0  0
 24 25  1  0  0  0
 25 26  2  0  0  0
 26 27  1  0  0  0
 27 28  2  0  0  0
 32 33  1  0  0  0
 33 34  2  0  0  0
 34 29  1  0  0  0
  9  4  1  0  0  0
 22 13  1  0  0  0
 28 23  1  0  0  0
 22 17  1  0  0  0
  1 12  1  0  0  0
M  END
> <minimizedAffinity>
-5.37379

> <CNNscore>
0.3720472753

> <CNNaffinity>
5.5355100632

> <CNN_VS>
2.0594713688

> <CNNaffinity_variance>
0.4039312303

$$$$
[H]c1c([H])c([H])c(-c2nc3c([H])c([H])c([H])c([H])c3c(C(=O)N3C([H])([H])C([H])([H])N(C(=O)N([H])c4c([H])c([H])c(C(F)(F)F)c([H])c4[H])C([H])([H])C3([H])[H])c2[H])c([H])c1[H]


 38 42  0  0  0  0  0  0  0  0999 V2000
  153.0537  137.7578  184.1427 N   0  0  0  0  0  0  0  0  0  0  0  0
  153.5200  136.4276  184.0348 C   0  0  0  0  0  0  0  0  0  0  0  0
  153.2116  135.8109  182.9451 O   0  0  0  0  0  0  0  0  0  0  0  0
  154.2763  135.6736  184.9400 N   0  0  0  0  0  0  0  0  0  0  0  0
  154.7203  134.3160  184.5003 C   0  0  0  0  0  0  0  0  0  0  0  0
  154.0537  133.3635  185.4326 C   0  0  0  0  0  0  0  0  0  0  0  0
  154.4624  133.6445  186.8252 N   0  0  0  0  0  0  0  0  0  0  0  0
  154.3980  134.9738  187.3276 C   0  0  0  0  0  0  0  0  0  0  0  0
  154.6746  136.0299  186.2733 C   0  0  0  0  0  0  0  0  0  0  0  0
  154.9131  132.5624  187.5385 C   0  0  0  0  0  0  0  0  0  0  0  0
  154.9404  131.4231  186.9089 O   0  0  0  0  0  0  0  0  0  0  0  0
  153.1911  138.4016  184.9205 H   0  0  0  0  0  0  0  0  0  0  0  0
  155.3785  132.4315  188.9070 C   0  0  0  0  0  0  0  0  0  0  0  0
  154.5579  132.1278  189.9585 C   0  0  0  0  0  0  0  0  0  0  0  0
  155.0600  132.1566  191.2780 C   0  0  0  0  0  0  0  0  0  0  0  0
  156.3424  132.4907  191.4108 N   0  0  0  0  0  0  0  0  0  0  0  0
  157.1732  132.7904  190.4127 C   0  0  0  0  0  0  0  0  0  0  0  0
  158.5090  133.1239  190.6249 C   0  0  0  0  0  0  0  0  0  0  0  0
  159.3384  133.4273  189.5510 C   0  0  0  0  0  0  0  0  0  0  0  0
  158.8686  133.4043  188.2564 C   0  0  0  0  0  0  0  0  0  0  0  0
  157.5372  133.0714  188.0440 C   0  0  0  0  0  0  0  0  0  0  0  0
  156.7231  132.7742  189.1073 C   0  0  0  0  0  0  0  0  0  0  0  0
  154.1644  131.9194  192.3972 C   0  0  0  0  0  0  0  0  0  0  0  0
  154.1781  130.7771  193.1745 C   0  0  0  0  0  0  0  0  0  0  0  0
  153.2532  130.5485  194.1903 C   0  0  0  0  0  0  0  0  0  0  0  0
  152.2703  131.4914  194.4493 C   0  0  0  0  0  0  0  0  0  0  0  0
  152.2381  132.6276  193.6930 C   0  0  0  0  0  0  0  0  0  0  0  0
  153.1764  132.8351  192.6807 C   0  0  0  0  0  0  0  0  0  0  0  0
  150.7363  138.9107  180.7768 C   0  0  0  0  0  0  0  0  0  0  0  0
  152.0466  139.2904  180.8746 C   0  0  0  0  0  0  0  0  0  0  0  0
  152.8326  138.9496  181.9738 C   0  0  0  0  0  0  0  0  0  0  0  0
  152.2889  138.2071  182.9973 C   0  0  0  0  0  0  0  0  0  0  0  0
  150.9611  137.8256  182.8961 C   0  0  0  0  0  0  0  0  0  0  0  0
  150.1987  138.1655  181.8128 C   0  0  0  0  0  0  0  0  0  0  0  0
  149.6546  138.1536  178.7796 F   0  0  0  0  0  0  0  0  0  0  0  0
  149.8588  139.2245  179.6040 C   0  0  0  0  0  0  0  0  0  0  0  0
  150.5189  140.2334  178.8691 F   0  0  0  0  0  0  0  0  0  0  0  0
  148.6692  139.7732  179.9817 F   0  0  0  0  0  0  0  0  0  0  0  0
 35 36  1  0  0  0
 36 37  1  0  0  0
 36 38  1  0  0  0
 36 29  1  0  0  0
 29 30  2  0  0  0
 30 31  1  0  0  0
 31 32  2  0  0  0
 32  1  1  0  0  0
  1  2  1  0  0  0
  2  3  2  0  0  0
  2  4  1  0  0  0
  4  5  1  0  0  0
  5  6  1  0  0  0
  6  7  1  0  0  0
  7  8  1  0  0  0
  8  9  1  0  0  0
  7 10  1  0  0  0
 10 11  2  0  0  0
 10 13  1  0  0  0
 13 14  2  0  0  0
 14 15  1  0  0  0
 15 16  2  0  0  0
 16 17  1  0  0  0
 17 18  2  0  0  0
 18 19  1  0  0  0
 19 20  2  0  0  0
 20 21  1  0  0  0
 21 22  2  0  0  0
 15 23  1  0  0  0
 23 24  2  0  0  0
 24 25  1  0  0  0
 25 26  2  0  0  0
 26 27  1  0  0  0
 27 28  2  0  0  0
 32 33  1  0  0  0
 33 34  2  0  0  0
 34 29  1  0  0  0
  9  4  1  0  0  0
 22 13  1  0  0  0
 28 23  1  0  0  0
 22 17  1  0  0  0
  1 12  1  0  0  0
M  END
> <minimizedAffinity>
-6.12272

> <CNNscore>
0.3294817209

> <CNNaffinity>
5.4058899879

> <CNN_VS>
1.7811418772

> <CNNaffinity_variance>
0.2515109181

$$$$
[H]c1c([H])c([H])c(-c2nc3c([H])c([H])c([H])c([H])c3c(C(=O)N3C([H])([H])C([H])([H])N(C(=O)N([H])c4c([H])c([H])c(C(F)(F)F)c([H])c4[H])C([H])([H])C3([H])[H])c2[H])c([H])c1[H]


 38 42  0  0  0  0  0  0  0  0999 V2000
  152.9689  136.8481  183.0876 N   0  0  0  0  0  0  0  0  0  0  0  0
  152.6154  135.8063  183.9754 C   0  0  0  0  0  0  0  0  0  0  0  0
  151.3978  135.3896  183.8961 O   0  0  0  0  0  0  0  0  0  0  0  0
  153.3971  135.1506  184.9340 N   0  0  0  0  0  0  0  0  0  0  0  0
  152.7754  133.9992  185.6562 C   0  0  0  0  0  0  0  0  0  0  0  0
  152.7233  134.4145  187.0864 C   0  0  0  0  0  0  0  0  0  0  0  0
  154.0863  134.6965  187.5844 N   0  0  0  0  0  0  0  0  0  0  0  0
  154.9499  135.5480  186.8409 C   0  0  0  0  0  0  0  0  0  0  0  0
  154.7406  135.4559  185.3405 C   0  0  0  0  0  0  0  0  0  0  0  0
  154.4295  134.0680  188.7549 C   0  0  0  0  0  0  0  0  0  0  0  0
  153.5272  133.2921  189.2830 O   0  0  0  0  0  0  0  0  0  0  0  0
  153.8739  137.3084  183.0011 H   0  0  0  0  0  0  0  0  0  0  0  0
  155.6422  134.1018  189.5517 C   0  0  0  0  0  0  0  0  0  0  0  0
  156.6684  133.2094  189.4042 C   0  0  0  0  0  0  0  0  0  0  0  0
  157.7514  133.2217  190.3103 C   0  0  0  0  0  0  0  0  0  0  0  0
  157.6948  134.1328  191.2801 N   0  0  0  0  0  0  0  0  0  0  0  0
  156.7152  135.0192  191.4554 C   0  0  0  0  0  0  0  0  0  0  0  0
  156.7255  135.9518  192.4902 C   0  0  0  0  0  0  0  0  0  0  0  0
  155.6811  136.8587  192.6314 C   0  0  0  0  0  0  0  0  0  0  0  0
  154.6160  136.8638  191.7581 C   0  0  0  0  0  0  0  0  0  0  0  0
  154.6052  135.9349  190.7259 C   0  0  0  0  0  0  0  0  0  0  0  0
  155.6377  135.0416  190.5920 C   0  0  0  0  0  0  0  0  0  0  0  0
  158.7950  132.2164  190.2028 C   0  0  0  0  0  0  0  0  0  0  0  0
  159.4578  131.6663  191.2831 C   0  0  0  0  0  0  0  0  0  0  0  0
  160.5076  130.7624  191.1395 C   0  0  0  0  0  0  0  0  0  0  0  0
  160.9208  130.3855  189.8709 C   0  0  0  0  0  0  0  0  0  0  0  0
  160.2797  130.9172  188.7891 C   0  0  0  0  0  0  0  0  0  0  0  0
  159.2295  131.8208  188.9579 C   0  0  0  0  0  0  0  0  0  0  0  0
  149.8515  138.0151  180.4516 C   0  0  0  0  0  0  0  0  0  0  0  0
  150.4972  138.9502  181.2127 C   0  0  0  0  0  0  0  0  0  0  0  0
  151.5101  138.6027  182.1046 C   0  0  0  0  0  0  0  0  0  0  0  0
  151.8843  137.2843  182.2320 C   0  0  0  0  0  0  0  0  0  0  0  0
  151.2272  136.3395  181.4611 C   0  0  0  0  0  0  0  0  0  0  0  0
  150.2345  136.6914  180.5888 C   0  0  0  0  0  0  0  0  0  0  0  0
  147.6933  138.9549  180.0146 F   0  0  0  0  0  0  0  0  0  0  0  0
  148.7793  138.3400  179.4572 C   0  0  0  0  0  0  0  0  0  0  0  0
  148.3604  137.1101  178.9044 F   0  0  0  0  0  0  0  0  0  0  0  0
  149.2541  139.0653  178.4049 F   0  0  0  0  0  0  0  0  0  0  0  0
 35 36  1  0  0  0
 36 37  1  0  0  0
 36 38  1  0  0  0
 36 29  1  0  0  0
 29 30  2  0  0  0
 30 31  1  0  0  0
 31 32  2  0  0  0
 32  1  1  0  0  0
  1  2  1  0  0  0
  2  3  2  0  0  0
  2  4  1  0  0  0
  4  5  1  0  0  0
  5  6  1  0  0  0
  6  7  1  0  0  0
  7  8  1  0  0  0
  8  9  1  0  0  0
  7 10  1  0  0  0
 10 11  2  0  0  0
 10 13  1  0  0  0
 13 14  2  0  0  0
 14 15  1  0  0  0
 15 16  2  0  0  0
 16 17  1  0  0  0
 17 18  2  0  0  0
 18 19  1  0  0  0
 19 20  2  0  0  0
 20 21  1  0  0  0
 21 22  2  0  0  0
 15 23  1  0  0  0
 23 24  2  0  0  0
 24 25  1  0  0  0
 25 26  2  0  0  0
 26 27  1  0  0  0
 27 28  2  0  0  0
 32 33  1  0  0  0
 33 34  2  0  0  0
 34 29  1  0  0  0
  9  4  1  0  0  0
 22 13  1  0  0  0
 28 23  1  0  0  0
 22 17  1  0  0  0
  1 12  1  0  0  0
M  END
> <minimizedAffinity>
-5.74932

> <CNNscore>
0.2829179168

> <CNNaffinity>
5.4447231293

> <CNN_VS>
1.5404096842

> <CNNaffinity_variance>
0.7546315789

$$$$
[H]c1c([H])c([H])c(-c2nc3c([H])c([H])c([H])c([H])c3c(C(=O)N3C([H])([H])C([H])([H])N(C(=O)N([H])c4c([H])c([H])c(C(F)(F)F)c([H])c4[H])C([H])([H])C3([H])[H])c2[H])c([H])c1[H]


 38 42  0  0  0  0  0  0  0  0999 V2000
  155.7121  138.9841  184.5738 N   0  0  0  0  0  0  0  0  0  0  0  0
  154.4741  138.4451  184.1552 C   0  0  0  0  0  0  0  0  0  0  0  0
  153.8745  139.0838  183.2091 O   0  0  0  0  0  0  0  0  0  0  0  0
  153.7970  137.3094  184.6152 N   0  0  0  0  0  0  0  0  0  0  0  0
  152.5454  136.9185  183.8979 C   0  0  0  0  0  0  0  0  0  0  0  0
  151.4575  137.0450  184.9084 C   0  0  0  0  0  0  0  0  0  0  0  0
  151.7253  136.1555  186.0583 N   0  0  0  0  0  0  0  0  0  0  0  0
  153.0026  136.1724  186.6844 C   0  0  0  0  0  0  0  0  0  0  0  0
  154.1405  136.4617  185.7227 C   0  0  0  0  0  0  0  0  0  0  0  0
  150.6881  135.3354  186.4251 C   0  0  0  0  0  0  0  0  0  0  0  0
  149.5993  135.4250  185.7168 O   0  0  0  0  0  0  0  0  0  0  0  0
  156.3288  138.6274  185.3025 H   0  0  0  0  0  0  0  0  0  0  0  0
  150.5589  134.3552  187.4876 C   0  0  0  0  0  0  0  0  0  0  0  0
  150.2443  134.6777  188.7792 C   0  0  0  0  0  0  0  0  0  0  0  0
  150.2753  133.6851  189.7832 C   0  0  0  0  0  0  0  0  0  0  0  0
  150.6224  132.4615  189.3880 N   0  0  0  0  0  0  0  0  0  0  0  0
  150.9330  132.1080  188.1411 C   0  0  0  0  0  0  0  0  0  0  0  0
  151.2798  130.8034  187.7971 C   0  0  0  0  0  0  0  0  0  0  0  0
  151.5943  130.4819  186.4814 C   0  0  0  0  0  0  0  0  0  0  0  0
  151.5694  131.4349  185.4873 C   0  0  0  0  0  0  0  0  0  0  0  0
  151.2231  132.7355  185.8293 C   0  0  0  0  0  0  0  0  0  0  0  0
  150.9150  133.0474  187.1292 C   0  0  0  0  0  0  0  0  0  0  0  0
  150.0262  134.0494  191.1674 C   0  0  0  0  0  0  0  0  0  0  0  0
  149.0693  133.4546  191.9671 C   0  0  0  0  0  0  0  0  0  0  0  0
  148.8039  133.8823  193.2657 C   0  0  0  0  0  0  0  0  0  0  0  0
  149.5165  134.9460  193.7977 C   0  0  0  0  0  0  0  0  0  0  0  0
  150.4668  135.5487  193.0246 C   0  0  0  0  0  0  0  0  0  0  0  0
  150.7158  135.1019  191.7260 C   0  0  0  0  0  0  0  0  0  0  0  0
  157.0204  142.4596  182.5151 C   0  0  0  0  0  0  0  0  0  0  0  0
  155.9998  142.5386  183.4222 C   0  0  0  0  0  0  0  0  0  0  0  0
  155.5287  141.4164  184.1012 C   0  0  0  0  0  0  0  0  0  0  0  0
  156.0994  140.1865  183.8646 C   0  0  0  0  0  0  0  0  0  0  0  0
  157.1316  140.1095  182.9441 C   0  0  0  0  0  0  0  0  0  0  0  0
  157.5862  141.2171  182.2833 C   0  0  0  0  0  0  0  0  0  0  0  0
  157.6746  143.4441  180.4331 F   0  0  0  0  0  0  0  0  0  0  0  0
  157.5830  143.6390  181.7828 C   0  0  0  0  0  0  0  0  0  0  0  0
  158.8836  143.8434  182.2930 F   0  0  0  0  0  0  0  0  0  0  0  0
  156.9034  144.7888  182.0567 F   0  0  0  0  0  0  0  0  0  0  0  0
 35 36  1  0  0  0
 36 37  1  0  0  0
 36 38  1  0  0  0
 36 29  1  0  0  0
 29 30  2  0  0  0
 30 31  1  0  0  0
 31 32  2  0  0  0
 32  1  1  0  0  0
  1  2  1  0  0  0
  2  3  2  0  0  0
  2  4  1  0  0  0
  4  5  1  0  0  0
  5  6  1  0  0  0
  6  7  1  0  0  0
  7  8  1  0  0  0
  8  9  1  0  0  0
  7 10  1  0  0  0
 10 11  2  0  0  0
 10 13  1  0  0  0
 13 14  2  0  0  0
 14 15  1  0  0  0
 15 16  2  0  0  0
 16 17  1  0  0  0
 17 18  2  0  0  0
 18 19  1  0  0  0
 19 20  2  0  0  0
 20 21  1  0  0  0
 21 22  2  0  0  0
 15 23  1  0  0  0
 23 24  2  0  0  0
 24 25  1  0  0  0
 25 26  2  0  0  0
 26 27  1  0  0  0
 27 28  2  0  0  0
 32 33  1  0  0  0
 33 34  2  0  0  0
 34 29  1  0  0  0
  9  4  1  0  0  0
 22 13  1  0  0  0
 28 23  1  0  0  0
 22 17  1  0  0  0
  1 12  1  0  0  0
M  END
> <minimizedAffinity>
-6.39039

> <CNNscore>
0.2672176957

> <CNNaffinity>
5.8224744797

> <CNN_VS>
1.5558682680

> <CNNaffinity_variance>
0.4508988857

$$$$
[H]c1c([H])c([H])c(-c2nc3c([H])c([H])c([H])c([H])c3c(C(=O)N3C([H])([H])C([H])([H])N(C(=O)N([H])c4c([H])c([H])c(C(F)(F)F)c([H])c4[H])C([H])([H])C3([H])[H])c2[H])c([H])c1[H]


 38 42  0  0  0  0  0  0  0  0999 V2000
  154.2247  139.9998  183.9456 N   0  0  0  0  0  0  0  0  0  0  0  0
  154.6846  139.1828  185.0037 C   0  0  0  0  0  0  0  0  0  0  0  0
  155.9235  139.3302  185.3295 O   0  0  0  0  0  0  0  0  0  0  0  0
  153.9897  138.2316  185.7601 N   0  0  0  0  0  0  0  0  0  0  0  0
  154.7175  137.5959  186.9002 C   0  0  0  0  0  0  0  0  0  0  0  0
  154.8006  136.1485  186.5552 C   0  0  0  0  0  0  0  0  0  0  0  0
  153.4434  135.5850  186.3948 N   0  0  0  0  0  0  0  0  0  0  0  0
  152.4939  136.2488  185.5693 C   0  0  0  0  0  0  0  0  0  0  0  0
  152.6466  137.7588  185.5705 C   0  0  0  0  0  0  0  0  0  0  0  0
  153.1925  134.4375  187.1042 C   0  0  0  0  0  0  0  0  0  0  0  0
  154.1665  133.9861  187.8408 O   0  0  0  0  0  0  0  0  0  0  0  0
  153.2878  140.0272  183.5459 H   0  0  0  0  0  0  0  0  0  0  0  0
  152.0144  133.5947  187.1957 C   0  0  0  0  0  0  0  0  0  0  0  0
  151.0545  133.7397  188.1595 C   0  0  0  0  0  0  0  0  0  0  0  0
  150.0117  132.7936  188.2664 C   0  0  0  0  0  0  0  0  0  0  0  0
  150.0378  131.7901  187.3911 N   0  0  0  0  0  0  0  0  0  0  0  0
  150.9529  131.6158  186.4379 C   0  0  0  0  0  0  0  0  0  0  0  0
  150.9134  130.5440  185.5490 C   0  0  0  0  0  0  0  0  0  0  0  0
  151.8900  130.4053  184.5691 C   0  0  0  0  0  0  0  0  0  0  0  0
  152.9150  131.3174  184.4475 C   0  0  0  0  0  0  0  0  0  0  0  0
  152.9548  132.3864  185.3329 C   0  0  0  0  0  0  0  0  0  0  0  0
  151.9893  132.5177  186.2985 C   0  0  0  0  0  0  0  0  0  0  0  0
  149.0449  132.9026  189.3455 C   0  0  0  0  0  0  0  0  0  0  0  0
  149.3198  133.4547  190.5818 C   0  0  0  0  0  0  0  0  0  0  0  0
  148.3918  133.4718  191.6201 C   0  0  0  0  0  0  0  0  0  0  0  0
  147.1354  132.9181  191.4276 C   0  0  0  0  0  0  0  0  0  0  0  0
  146.8425  132.3667  190.2134 C   0  0  0  0  0  0  0  0  0  0  0  0
  147.7887  132.3620  189.1874 C   0  0  0  0  0  0  0  0  0  0  0  0
  157.0713  142.6634  182.2632 C   0  0  0  0  0  0  0  0  0  0  0  0
  157.2375  141.3111  182.1437 C   0  0  0  0  0  0  0  0  0  0  0  0
  156.3364  140.4057  182.7009 C   0  0  0  0  0  0  0  0  0  0  0  0
  155.2408  140.8713  183.3918 C   0  0  0  0  0  0  0  0  0  0  0  0
  155.0762  142.2414  183.5125 C   0  0  0  0  0  0  0  0  0  0  0  0
  155.9667  143.1211  182.9618 C   0  0  0  0  0  0  0  0  0  0  0  0
  158.0423  143.6160  180.2930 F   0  0  0  0  0  0  0  0  0  0  0  0
  157.9930  143.6772  181.6575 C   0  0  0  0  0  0  0  0  0  0  0  0
  159.2815  143.3989  182.1632 F   0  0  0  0  0  0  0  0  0  0  0  0
  157.7092  144.9449  182.0713 F   0  0  0  0  0  0  0  0  0  0  0  0
 35 36  1  0  0  0
 36 37  1  0  0  0
 36 38  1  0  0  0
 36 29  1  0  0  0
 29 30  2  0  0  0
 30 31  1  0  0  0
 31 32  2  0  0  0
 32  1  1  0  0  0
  1  2  1  0  0  0
  2  3  2  0  0  0
  2  4  1  0  0  0
  4  5  1  0  0  0
  5  6  1  0  0  0
  6  7  1  0  0  0
  7  8  1  0  0  0
  8  9  1  0  0  0
  7 10  1  0  0  0
 10 11  2  0  0  0
 10 13  1  0  0  0
 13 14  2  0  0  0
 14 15  1  0  0  0
 15 16  2  0  0  0
 16 17  1  0  0  0
 17 18  2  0  0  0
 18 19  1  0  0  0
 19 20  2  0  0  0
 20 21  1  0  0  0
 21 22  2  0  0  0
 15 23  1  0  0  0
 23 24  2  0  0  0
 24 25  1  0  0  0
 25 26  2  0  0  0
 26 27  1  0  0  0
 27 28  2  0  0  0
 32 33  1  0  0  0
 33 34  2  0  0  0
 34 29  1  0  0  0
  9  4  1  0  0  0
 22 13  1  0  0  0
 28 23  1  0  0  0
 22 17  1  0  0  0
  1 12  1  0  0  0
M  END
> <minimizedAffinity>
-5.73613

> <CNNscore>
0.2299482673

> <CNNaffinity>
5.8692107201

> <CNN_VS>
1.3496148586

> <CNNaffinity_variance>
0.6578343511

$$$$
[H]c1c([H])c([H])c(-c2nc3c([H])c([H])c([H])c([H])c3c(C(=O)N3C([H])([H])C([H])([H])N(C(=O)N([H])c4c([H])c([H])c(C(F)(F)F)c([H])c4[H])C([H])([H])C3([H])[H])c2[H])c([H])c1[H]


 38 42  0  0  0  0  0  0  0  0999 V2000
  155.1292  139.7648  183.0938 N   0  0  0  0  0  0  0  0  0  0  0  0
  154.0064  139.7158  182.2364 C   0  0  0  0  0  0  0  0  0  0  0  0
  153.8904  140.6956  181.4062 O   0  0  0  0  0  0  0  0  0  0  0  0
  152.9942  138.7524  182.1499 N   0  0  0  0  0  0  0  0  0  0  0  0
  151.9858  138.9120  181.0584 C   0  0  0  0  0  0  0  0  0  0  0  0
  150.6840  139.1192  181.7535 C   0  0  0  0  0  0  0  0  0  0  0  0
  150.3754  137.9567  182.6129 N   0  0  0  0  0  0  0  0  0  0  0  0
  151.3581  137.4621  183.5148 C   0  0  0  0  0  0  0  0  0  0  0  0
  152.7781  137.6163  183.0018 C   0  0  0  0  0  0  0  0  0  0  0  0
  149.1271  137.4123  182.4446 C   0  0  0  0  0  0  0  0  0  0  0  0
  148.3674  137.9697  181.5462 O   0  0  0  0  0  0  0  0  0  0  0  0
  155.3901  139.0911  183.8125 H   0  0  0  0  0  0  0  0  0  0  0  0
  148.4608  136.3000  183.0968 C   0  0  0  0  0  0  0  0  0  0  0  0
  148.1758  136.2688  184.4343 C   0  0  0  0  0  0  0  0  0  0  0  0
  147.6534  135.0941  185.0185 C   0  0  0  0  0  0  0  0  0  0  0  0
  147.4698  134.0619  184.1971 N   0  0  0  0  0  0  0  0  0  0  0  0
  147.7326  134.0541  182.8905 C   0  0  0  0  0  0  0  0  0  0  0  0
  147.5074  132.9378  182.0882 C   0  0  0  0  0  0  0  0  0  0  0  0
  147.7954  132.9780  180.7285 C   0  0  0  0  0  0  0  0  0  0  0  0
  148.3048  134.1140  180.1392 C   0  0  0  0  0  0  0  0  0  0  0  0
  148.5289  135.2274  180.9382 C   0  0  0  0  0  0  0  0  0  0  0  0
  148.2442  135.1818  182.2793 C   0  0  0  0  0  0  0  0  0  0  0  0
  147.4347  135.0364  186.4537 C   0  0  0  0  0  0  0  0  0  0  0  0
  147.4491  133.8708  187.1954 C   0  0  0  0  0  0  0  0  0  0  0  0
  147.1575  133.8431  188.5570 C   0  0  0  0  0  0  0  0  0  0  0  0
  146.8372  135.0206  189.2149 C   0  0  0  0  0  0  0  0  0  0  0  0
  146.8168  136.1843  188.5010 C   0  0  0  0  0  0  0  0  0  0  0  0
  147.1134  136.1874  187.1372 C   0  0  0  0  0  0  0  0  0  0  0  0
  157.4377  143.2758  182.4836 C   0  0  0  0  0  0  0  0  0  0  0  0
  157.8720  142.0723  182.0003 C   0  0  0  0  0  0  0  0  0  0  0  0
  157.1528  140.8953  182.1993 C   0  0  0  0  0  0  0  0  0  0  0  0
  155.9676  140.9299  182.8982 C   0  0  0  0  0  0  0  0  0  0  0  0
  155.5313  142.1500  183.3879 C   0  0  0  0  0  0  0  0  0  0  0  0
  156.2449  143.2992  183.1868 C   0  0  0  0  0  0  0  0  0  0  0  0
  157.3485  145.6669  182.4014 F   0  0  0  0  0  0  0  0  0  0  0  0
  158.1568  144.5725  182.2708 C   0  0  0  0  0  0  0  0  0  0  0  0
  158.6552  144.5414  180.9501 F   0  0  0  0  0  0  0  0  0  0  0  0
  159.2563  144.6899  183.0685 F   0  0  0  0  0  0  0  0  0  0  0  0
 35 36  1  0  0  0
 36 37  1  0  0  0
 36 38  1  0  0  0
 36 29  1  0  0  0
 29 30  2  0  0  0
 30 31  1  0  0  0
 31 32  2  0  0  0
 32  1  1  0  0  0
  1  2  1  0  0  0
  2  3  2  0  0  0
  2  4  1  0  0  0
  4  5  1  0  0  0
  5  6  1  0  0  0
  6  7  1  0  0  0
  7  8  1  0  0  0
  8  9  1  0  0  0
  7 10  1  0  0  0
 10 11  2  0  0  0
 10 13  1  0  0  0
 13 14  2  0  0  0
 14 15  1  0  0  0
 15 16  2  0  0  0
 16 17  1  0  0  0
 17 18  2  0  0  0
 18 19  1  0  0  0
 19 20  2  0  0  0
 20 21  1  0  0  0
 21 22  2  0  0  0
 15 23  1  0  0  0
 23 24  2  0  0  0
 24 25  1  0  0  0
 25 26  2  0  0  0
 26 27  1  0  0  0
 27 28  2  0  0  0
 32 33  1  0  0  0
 33 34  2  0  0  0
 34 29  1  0  0  0
  9  4  1  0  0  0
 22 13  1  0  0  0
 28 23  1  0  0  0
 22 17  1  0  0  0
  1 12  1  0  0  0
M  END
> <minimizedAffinity>
-6.53737

> <CNNscore>
0.2279683501

> <CNNaffinity>
6.1210222244

> <CNN_VS>
1.3953993320

> <CNNaffinity_variance>
0.6076653600

$$$$
[H]C1=C(C(=O)N([H])c2c([H])c([H])c(C(C([H])([H])[H])(C([H])([H])[H])C([H])([H])[H])c([H])c2[H])C([H])([H])C([H])([H])N(c2nc([H])c([H])c([H])c2C(F)(F)F)C1([H])[H]


 30 32  0  0  0  0  0  0  0  0999 V2000
  154.2948  138.1767  185.9536 C   0  0  0  0  0  0  0  0  0  0  0  0
  153.2563  138.4852  186.6669 C   0  0  0  0  0  0  0  0  0  0  0  0
  152.6777  137.4363  187.6195 C   0  0  0  0  0  0  0  0  0  0  0  0
  153.7387  136.8562  188.3613 N   0  0  0  0  0  0  0  0  0  0  0  0
  155.0280  136.6669  187.6402 C   0  0  0  0  0  0  0  0  0  0  0  0
  154.7755  136.7452  186.1714 C   0  0  0  0  0  0  0  0  0  0  0  0
  153.7602  136.4466  189.6840 C   0  0  0  0  0  0  0  0  0  0  0  0
  153.1983  135.2229  190.0052 N   0  0  0  0  0  0  0  0  0  0  0  0
  153.1154  134.7633  191.2563 C   0  0  0  0  0  0  0  0  0  0  0  0
  153.5978  135.5098  192.3033 C   0  0  0  0  0  0  0  0  0  0  0  0
  154.1689  136.7309  192.0435 C   0  0  0  0  0  0  0  0  0  0  0  0
  154.2423  137.1868  190.7134 C   0  0  0  0  0  0  0  0  0  0  0  0
  154.8956  138.4837  190.5033 C   0  0  0  0  0  0  0  0  0  0  0  0
  154.2682  139.2914  189.5711 F   0  0  0  0  0  0  0  0  0  0  0  0
  154.9058  139.1914  191.7329 F   0  0  0  0  0  0  0  0  0  0  0  0
  156.2030  138.3026  190.1505 F   0  0  0  0  0  0  0  0  0  0  0  0
  156.3467  139.4439  185.1009 N   0  0  0  0  0  0  0  0  0  0  0  0
  154.9975  138.9713  185.0134 C   0  0  0  0  0  0  0  0  0  0  0  0
  154.3849  139.3368  183.9218 O   0  0  0  0  0  0  0  0  0  0  0  0
  156.9418  139.2605  185.9245 H   0  0  0  0  0  0  0  0  0  0  0  0
  157.7583  141.7548  181.9217 C   0  0  0  0  0  0  0  0  0  0  0  0
  158.1056  140.4050  181.9797 C   0  0  0  0  0  0  0  0  0  0  0  0
  157.6290  139.6330  183.0468 C   0  0  0  0  0  0  0  0  0  0  0  0
  156.8475  140.1933  183.9986 C   0  0  0  0  0  0  0  0  0  0  0  0
  156.5140  141.5383  183.9204 C   0  0  0  0  0  0  0  0  0  0  0  0
  156.9692  142.3321  182.8750 C   0  0  0  0  0  0  0  0  0  0  0  0
  159.8210  142.5992  180.9139 C   0  0  0  0  0  0  0  0  0  0  0  0
  158.2960  142.5612  180.8003 C   0  0  0  0  0  0  0  0  0  0  0  0
  157.7849  143.9845  180.9623 C   0  0  0  0  0  0  0  0  0  0  0  0
  157.8949  141.9375  179.4873 C   0  0  0  0  0  0  0  0  0  0  0  0
 27 28  1  0  0  0
 28 29  1  0  0  0
 28 30  1  0  0  0
 28 21  1  0  0  0
 21 22  2  0  0  0
 22 23  1  0  0  0
 23 24  2  0  0  0
 24 17  1  0  0  0
 17 18  1  0  0  0
 18 19  2  0  0  0
 18  1  1  0  0  0
  1  2  2  0  0  0
  2  3  1  0  0  0
  3  4  1  0  0  0
  4  5  1  0  0  0
  5  6  1  0  0  0
  4  7  1  0  0  0
  7  8  2  0  0  0
  8  9  1  0  0  0
  9 10  2  0  0  0
 10 11  1  0  0  0
 11 12  2  0  0  0
 12 13  1  0  0  0
 13 14  1  0  0  0
 13 15  1  0  0  0
 13 16  1  0  0  0
 24 25  1  0  0  0
 25 26  2  0  0  0
 26 21  1  0  0  0
  6  1  1  0  0  0
 12  7  1  0  0  0
 17 20  1  0  0  0
M  END
> <minimizedAffinity>
-8.11105

> <CNNscore>
0.3333199620

> <CNNaffinity>
5.8814430237

> <CNN_VS>
1.9604023695

> <CNNaffinity_variance>
0.1122406274

$$$$
[H]C1=C(C(=O)N([H])c2c([H])c([H])c(C(C([H])([H])[H])(C([H])([H])[H])C([H])([H])[H])c([H])c2[H])C([H])([H])C([H])([H])N(c2nc([H])c([H])c([H])c2C(F)(F)F)C1([H])[H]


 30 32  0  0  0  0  0  0  0  0999 V2000
  154.0571  141.2004  182.6603 C   0  0  0  0  0  0  0  0  0  0  0  0
  154.6338  142.3514  182.5025 C   0  0  0  0  0  0  0  0  0  0  0  0
  155.7758  142.7397  183.4445 C   0  0  0  0  0  0  0  0  0  0  0  0
  156.6772  141.6489  183.5457 N   0  0  0  0  0  0  0  0  0  0  0  0
  156.0765  140.2863  183.5251 C   0  0  0  0  0  0  0  0  0  0  0  0
  154.6195  140.3964  183.8286 C   0  0  0  0  0  0  0  0  0  0  0  0
  158.0582  141.6613  183.6467 C   0  0  0  0  0  0  0  0  0  0  0  0
  158.6291  141.5559  184.9034 N   0  0  0  0  0  0  0  0  0  0  0  0
  159.9464  141.6165  185.1145 C   0  0  0  0  0  0  0  0  0  0  0  0
  160.8105  141.7920  184.0618 C   0  0  0  0  0  0  0  0  0  0  0  0
  160.3005  141.8996  182.7918 C   0  0  0  0  0  0  0  0  0  0  0  0
  158.9070  141.8306  182.6022 C   0  0  0  0  0  0  0  0  0  0  0  0
  158.4318  141.9180  181.2167 C   0  0  0  0  0  0  0  0  0  0  0  0
  157.5589  142.9654  180.9805 F   0  0  0  0  0  0  0  0  0  0  0  0
  159.5505  142.1032  180.3640 F   0  0  0  0  0  0  0  0  0  0  0  0
  157.8504  140.7400  180.8414 F   0  0  0  0  0  0  0  0  0  0  0  0
  152.9367  139.3278  181.3255 N   0  0  0  0  0  0  0  0  0  0  0  0
  152.9911  140.6294  181.9208 C   0  0  0  0  0  0  0  0  0  0  0  0
  151.9091  141.3340  181.7378 O   0  0  0  0  0  0  0  0  0  0  0  0
  153.7341  138.6728  181.3606 H   0  0  0  0  0  0  0  0  0  0  0  0
  149.3667  138.1671  179.4959 C   0  0  0  0  0  0  0  0  0  0  0  0
  150.1189  139.1896  178.9173 C   0  0  0  0  0  0  0  0  0  0  0  0
  151.3164  139.5750  179.5331 C   0  0  0  0  0  0  0  0  0  0  0  0
  151.7283  138.9624  180.6670 C   0  0  0  0  0  0  0  0  0  0  0  0
  150.9641  137.9470  181.2249 C   0  0  0  0  0  0  0  0  0  0  0  0
  149.7719  137.5399  180.6391 C   0  0  0  0  0  0  0  0  0  0  0  0
  146.9394  138.4446  179.6164 C   0  0  0  0  0  0  0  0  0  0  0  0
  148.0885  137.7935  178.8449 C   0  0  0  0  0  0  0  0  0  0  0  0
  147.9286  136.2856  178.9627 C   0  0  0  0  0  0  0  0  0  0  0  0
  148.0854  138.2760  177.4162 C   0  0  0  0  0  0  0  0  0  0  0  0
 27 28  1  0  0  0
 28 29  1  0  0  0
 28 30  1  0  0  0
 28 21  1  0  0  0
 21 22  2  0  0  0
 22 23  1  0  0  0
 23 24  2  0  0  0
 24 17  1  0  0  0
 17 18  1  0  0  0
 18 19  2  0  0  0
 18  1  1  0  0  0
  1  2  2  0  0  0
  2  3  1  0  0  0
  3  4  1  0  0  0
  4  5  1  0  0  0
  5  6  1  0  0  0
  4  7  1  0  0  0
  7  8  2  0  0  0
  8  9  1  0  0  0
  9 10  2  0  0  0
 10 11  1  0  0  0
 11 12  2  0  0  0
 12 13  1  0  0  0
 13 14  1  0  0  0
 13 15  1  0  0  0
 13 16  1  0  0  0
 24 25  1  0  0  0
 25 26  2  0  0  0
 26 21  1  0  0  0
  6  1  1  0  0  0
 12  7  1  0  0  0
 17 20  1  0  0  0
M  END
> <minimizedAffinity>
-8.82845

> <CNNscore>
0.3110832572

> <CNNaffinity>
6.0048885345

> <CNN_VS>
1.8680202961

> <CNNaffinity_variance>
0.0765117258

$$$$
[H]C1=C(C(=O)N([H])c2c([H])c([H])c(C(C([H])([H])[H])(C([H])([H])[H])C([H])([H])[H])c([H])c2[H])C([H])([H])C([H])([H])N(c2nc([H])c([H])c([H])c2C(F)(F)F)C1([H])[H]


 30 32  0  0  0  0  0  0  0  0999 V2000
  155.2064  141.7186  181.8282 C   0  0  0  0  0  0  0  0  0  0  0  0
  156.3147  141.1997  181.3979 C   0  0  0  0  0  0  0  0  0  0  0  0
  157.6109  141.9992  181.5490 C   0  0  0  0  0  0  0  0  0  0  0  0
  157.6842  142.5078  182.8713 N   0  0  0  0  0  0  0  0  0  0  0  0
  156.3986  142.9309  183.4927 C   0  0  0  0  0  0  0  0  0  0  0  0
  155.3803  143.1151  182.4174 C   0  0  0  0  0  0  0  0  0  0  0  0
  158.7899  142.6577  183.6913 C   0  0  0  0  0  0  0  0  0  0  0  0
  159.0499  141.6782  184.6344 N   0  0  0  0  0  0  0  0  0  0  0  0
  160.0546  141.7565  185.5107 C   0  0  0  0  0  0  0  0  0  0  0  0
  160.8923  142.8447  185.5106 C   0  0  0  0  0  0  0  0  0  0  0  0
  160.6839  143.8459  184.5948 C   0  0  0  0  0  0  0  0  0  0  0  0
  159.6166  143.7331  183.6834 C   0  0  0  0  0  0  0  0  0  0  0  0
  159.4718  144.8215  182.7101 C   0  0  0  0  0  0  0  0  0  0  0  0
  159.6000  144.4245  181.3907 F   0  0  0  0  0  0  0  0  0  0  0  0
  158.1800  145.3903  182.8539 F   0  0  0  0  0  0  0  0  0  0  0  0
  160.3657  145.8189  182.9801 F   0  0  0  0  0  0  0  0  0  0  0  0
  153.4093  140.1139  180.9686 N   0  0  0  0  0  0  0  0  0  0  0  0
  153.8977  141.1752  181.7973 C   0  0  0  0  0  0  0  0  0  0  0  0
  152.9980  141.6652  182.6042 O   0  0  0  0  0  0  0  0  0  0  0  0
  154.0006  139.6540  180.2580 H   0  0  0  0  0  0  0  0  0  0  0  0
  149.4805  138.8621  181.6295 C   0  0  0  0  0  0  0  0  0  0  0  0
  149.7408  139.7347  180.5727 C   0  0  0  0  0  0  0  0  0  0  0  0
  151.0600  140.1511  180.3534 C   0  0  0  0  0  0  0  0  0  0  0  0
  152.0566  139.7108  181.1557 C   0  0  0  0  0  0  0  0  0  0  0  0
  151.7746  138.8424  182.2010 C   0  0  0  0  0  0  0  0  0  0  0  0
  150.4773  138.4093  182.4455 C   0  0  0  0  0  0  0  0  0  0  0  0
  147.1844  139.1719  180.8451 C   0  0  0  0  0  0  0  0  0  0  0  0
  148.0742  138.4558  181.8625 C   0  0  0  0  0  0  0  0  0  0  0  0
  147.6729  138.9381  183.2479 C   0  0  0  0  0  0  0  0  0  0  0  0
  147.9424  136.9626  181.6978 C   0  0  0  0  0  0  0  0  0  0  0  0
 27 28  1  0  0  0
 28 29  1  0  0  0
 28 30  1  0  0  0
 28 21  1  0  0  0
 21 22  2  0  0  0
 22 23  1  0  0  0
 23 24  2  0  0  0
 24 17  1  0  0  0
 17 18  1  0  0  0
 18 19  2  0  0  0
 18  1  1  0  0  0
  1  2  2  0  0  0
  2  3  1  0  0  0
  3  4  1  0  0  0
  4  5  1  0  0  0
  5  6  1  0  0  0
  4  7  1  0  0  0
  7  8  2  0  0  0
  8  9  1  0  0  0
  9 10  2  0  0  0
 10 11  1  0  0  0
 11 12  2  0  0  0
 12 13  1  0  0  0
 13 14  1  0  0  0
 13 15  1  0  0  0
 13 16  1  0  0  0
 24 25  1  0  0  0
 25 26  2  0  0  0
 26 21  1  0  0  0
  6  1  1  0  0  0
 12  7  1  0  0  0
 17 20  1  0  0  0
M  END
> <minimizedAffinity>
-8.19164

> <CNNscore>
0.2975714803

> <CNNaffinity>
6.3600807190

> <CNN_VS>
1.8925786018

> <CNNaffinity_variance>
0.0444494858

$$$$
[H]C1=C(C(=O)N([H])c2c([H])c([H])c(C(C([H])([H])[H])(C([H])([H])[H])C([H])([H])[H])c([H])c2[H])C([H])([H])C([H])([H])N(c2nc([H])c([H])c([H])c2C(F)(F)F)C1([H])[H]


 30 32  0  0  0  0  0  0  0  0999 V2000
  153.3555  137.6003  183.7932 C   0  0  0  0  0  0  0  0  0  0  0  0
  153.0939  138.7462  183.2446 C   0  0  0  0  0  0  0  0  0  0  0  0
  152.6647  138.7801  181.7759 C   0  0  0  0  0  0  0  0  0  0  0  0
  151.6639  137.7963  181.5683 N   0  0  0  0  0  0  0  0  0  0  0  0
  151.8079  136.5291  182.3374 C   0  0  0  0  0  0  0  0  0  0  0  0
  153.2112  136.4227  182.8339 C   0  0  0  0  0  0  0  0  0  0  0  0
  150.5444  137.8448  180.7546 C   0  0  0  0  0  0  0  0  0  0  0  0
  149.5941  136.8459  180.8792 N   0  0  0  0  0  0  0  0  0  0  0  0
  148.5099  136.7686  180.1033 C   0  0  0  0  0  0  0  0  0  0  0  0
  148.2903  137.7043  179.1224 C   0  0  0  0  0  0  0  0  0  0  0  0
  149.1984  138.7202  178.9553 C   0  0  0  0  0  0  0  0  0  0  0  0
  150.3309  138.7745  179.7902 C   0  0  0  0  0  0  0  0  0  0  0  0
  151.2425  139.9051  179.5806 C   0  0  0  0  0  0  0  0  0  0  0  0
  152.5621  139.5409  179.3785 F   0  0  0  0  0  0  0  0  0  0  0  0
  150.8227  140.6192  178.4287 F   0  0  0  0  0  0  0  0  0  0  0  0
  151.1607  140.7784  180.6281 F   0  0  0  0  0  0  0  0  0  0  0  0
  154.4212  136.1434  185.6057 N   0  0  0  0  0  0  0  0  0  0  0  0
  153.7666  137.3215  185.1207 C   0  0  0  0  0  0  0  0  0  0  0  0
  153.5472  138.2158  186.0441 O   0  0  0  0  0  0  0  0  0  0  0  0
  154.6280  135.3375  184.9942 H   0  0  0  0  0  0  0  0  0  0  0  0
  155.3571  135.9886  189.6726 C   0  0  0  0  0  0  0  0  0  0  0  0
  156.2366  136.6337  188.8029 C   0  0  0  0  0  0  0  0  0  0  0  0
  155.9185  136.6847  187.4399 C   0  0  0  0  0  0  0  0  0  0  0  0
  154.7782  136.1169  186.9837 C   0  0  0  0  0  0  0  0  0  0  0  0
  153.9174  135.4807  187.8672 C   0  0  0  0  0  0  0  0  0  0  0  0
  154.2025  135.4128  189.2254 C   0  0  0  0  0  0  0  0  0  0  0  0
  156.4002  137.2357  191.5001 C   0  0  0  0  0  0  0  0  0  0  0  0
  155.7257  135.9204  191.1067 C   0  0  0  0  0  0  0  0  0  0  0  0
  156.7496  134.8081  191.2727 C   0  0  0  0  0  0  0  0  0  0  0  0
  154.4870  135.7098  191.9405 C   0  0  0  0  0  0  0  0  0  0  0  0
 27 28  1  0  0  0
 28 29  1  0  0  0
 28 30  1  0  0  0
 28 21  1  0  0  0
 21 22  2  0  0  0
 22 23  1  0  0  0
 23 24  2  0  0  0
 24 17  1  0  0  0
 17 18  1  0  0  0
 18 19  2  0  0  0
 18  1  1  0  0  0
  1  2  2  0  0  0
  2  3  1  0  0  0
  3  4  1  0  0  0
  4  5  1  0  0  0
  5  6  1  0  0  0
  4  7  1  0  0  0
  7  8  2  0  0  0
  8  9  1  0  0  0
  9 10  2  0  0  0
 10 11  1  0  0  0
 11 12  2  0  0  0
 12 13  1  0  0  0
 13 14  1  0  0  0
 13 15  1  0  0  0
 13 16  1  0  0  0
 24 25  1  0  0  0
 25 26  2  0  0  0
 26 21  1  0  0  0
  6  1  1  0  0  0
 12  7  1  0  0  0
 17 20  1  0  0  0
M  END
> <minimizedAffinity>
-7.10138

> <CNNscore>
0.2905097306

> <CNNaffinity>
5.1653294563

> <CNN_VS>
1.5005785227

> <CNNaffinity_variance>
0.1275697798

$$$$
[H]C1=C(C(=O)N([H])c2c([H])c([H])c(C(C([H])([H])[H])(C([H])([H])[H])C([H])([H])[H])c([H])c2[H])C([H])([H])C([H])([H])N(c2nc([H])c([H])c([H])c2C(F)(F)F)C1([H])[H]


 30 32  0  0  0  0  0  0  0  0999 V2000
  152.7968  136.7471  185.2360 C   0  0  0  0  0  0  0  0  0  0  0  0
  152.9941  135.6649  185.9233 C   0  0  0  0  0  0  0  0  0  0  0  0
  154.0329  135.6837  187.0470 C   0  0  0  0  0  0  0  0  0  0  0  0
  153.8309  136.8438  187.8382 N   0  0  0  0  0  0  0  0  0  0  0  0
  153.4008  138.0736  187.1168 C   0  0  0  0  0  0  0  0  0  0  0  0
  153.6918  137.9068  185.6626 C   0  0  0  0  0  0  0  0  0  0  0  0
  153.9609  137.0027  189.2077 C   0  0  0  0  0  0  0  0  0  0  0  0
  152.8601  136.7519  190.0087 N   0  0  0  0  0  0  0  0  0  0  0  0
  152.8638  136.9315  191.3321 C   0  0  0  0  0  0  0  0  0  0  0  0
  153.9931  137.3864  191.9675 C   0  0  0  0  0  0  0  0  0  0  0  0
  155.1164  137.6487  191.2233 C   0  0  0  0  0  0  0  0  0  0  0  0
  155.0807  137.4482  189.8301 C   0  0  0  0  0  0  0  0  0  0  0  0
  156.3256  137.7148  189.1004 C   0  0  0  0  0  0  0  0  0  0  0  0
  156.1830  138.5820  188.0316 F   0  0  0  0  0  0  0  0  0  0  0  0
  157.2593  138.2998  189.9942 F   0  0  0  0  0  0  0  0  0  0  0  0
  156.8823  136.5430  188.6720 F   0  0  0  0  0  0  0  0  0  0  0  0
  151.9710  137.9875  183.1569 N   0  0  0  0  0  0  0  0  0  0  0  0
  151.9001  136.9684  184.1608 C   0  0  0  0  0  0  0  0  0  0  0  0
  150.8758  136.1725  184.0269 O   0  0  0  0  0  0  0  0  0  0  0  0
  152.7092  138.7094  183.1567 H   0  0  0  0  0  0  0  0  0  0  0  0
  149.0528  137.8193  180.1744 C   0  0  0  0  0  0  0  0  0  0  0  0
  149.2828  139.0320  180.8242 C   0  0  0  0  0  0  0  0  0  0  0  0
  150.2634  139.0847  181.8230 C   0  0  0  0  0  0  0  0  0  0  0  0
  150.9693  137.9763  182.1451 C   0  0  0  0  0  0  0  0  0  0  0  0
  150.7240  136.7803  181.4849 C   0  0  0  0  0  0  0  0  0  0  0  0
  149.7592  136.6938  180.4890 C   0  0  0  0  0  0  0  0  0  0  0  0
  148.5205  138.4459  177.8706 C   0  0  0  0  0  0  0  0  0  0  0  0
  147.9914  137.7773  179.1406 C   0  0  0  0  0  0  0  0  0  0  0  0
  146.8177  138.6035  179.6434 C   0  0  0  0  0  0  0  0  0  0  0  0
  147.6212  136.3446  178.8499 C   0  0  0  0  0  0  0  0  0  0  0  0
 27 28  1  0  0  0
 28 29  1  0  0  0
 28 30  1  0  0  0
 28 21  1  0  0  0
 21 22  2  0  0  0
 22 23  1  0  0  0
 23 24  2  0  0  0
 24 17  1  0  0  0
 17 18  1  0  0  0
 18 19  2  0  0  0
 18  1  1  0  0  0
  1  2  2  0  0  0
  2  3  1  0  0  0
  3  4  1  0  0  0
  4  5  1  0  0  0
  5  6  1  0  0  0
  4  7  1  0  0  0
  7  8  2  0  0  0
  8  9  1  0  0  0
  9 10  2  0  0  0
 10 11  1  0  0  0
 11 12  2  0  0  0
 12 13  1  0  0  0
 13 14  1  0  0  0
 13 15  1  0  0  0
 13 16  1  0  0  0
 24 25  1  0  0  0
 25 26  2  0  0  0
 26 21  1  0  0  0
  6  1  1  0  0  0
 12  7  1  0  0  0
 17 20  1  0  0  0
M  END
> <minimizedAffinity>
-6.26834

> <CNNscore>
0.2860719264

> <CNNaffinity>
5.3876280785

> <CNN_VS>
1.5412491560

> <CNNaffinity_variance>
0.0646651387

$$$$
[H]C1=C(C(=O)N([H])c2c([H])c([H])c(C(C([H])([H])[H])(C([H])([H])[H])C([H])([H])[H])c([H])c2[H])C([H])([H])C([H])([H])N(c2nc([H])c([H])c([H])c2C(F)(F)F)C1([H])[H]


 30 32  0  0  0  0  0  0  0  0999 V2000
  153.8764  137.2756  184.5264 C   0  0  0  0  0  0  0  0  0  0  0  0
  153.6956  138.5417  184.3099 C   0  0  0  0  0  0  0  0  0  0  0  0
  153.0716  138.9815  182.9834 C   0  0  0  0  0  0  0  0  0  0  0  0
  151.9290  138.1809  182.7269 N   0  0  0  0  0  0  0  0  0  0  0  0
  152.0093  136.7542  183.1465 C   0  0  0  0  0  0  0  0  0  0  0  0
  153.4417  136.3938  183.3597 C   0  0  0  0  0  0  0  0  0  0  0  0
  150.7224  138.5375  182.1484 C   0  0  0  0  0  0  0  0  0  0  0  0
  149.5517  138.2280  182.8193 N   0  0  0  0  0  0  0  0  0  0  0  0
  148.3374  138.4753  182.3215 C   0  0  0  0  0  0  0  0  0  0  0  0
  148.1996  139.0625  181.0877 C   0  0  0  0  0  0  0  0  0  0  0  0
  149.3270  139.3943  180.3781 C   0  0  0  0  0  0  0  0  0  0  0  0
  150.5928  139.1215  180.9310 C   0  0  0  0  0  0  0  0  0  0  0  0
  151.7549  139.5331  180.1352 C   0  0  0  0  0  0  0  0  0  0  0  0
  152.6507  138.5128  179.8682 F   0  0  0  0  0  0  0  0  0  0  0  0
  151.2978  140.0281  178.8866 F   0  0  0  0  0  0  0  0  0  0  0  0
  152.4041  140.5678  180.7471 F   0  0  0  0  0  0  0  0  0  0  0  0
  154.4425  135.2359  185.9624 N   0  0  0  0  0  0  0  0  0  0  0  0
  154.4299  136.6367  185.6641 C   0  0  0  0  0  0  0  0  0  0  0  0
  155.0105  137.3703  186.5726 O   0  0  0  0  0  0  0  0  0  0  0  0
  153.9899  134.5386  185.3498 H   0  0  0  0  0  0  0  0  0  0  0  0
  156.5054  134.0388  189.3904 C   0  0  0  0  0  0  0  0  0  0  0  0
  155.1478  134.3429  189.4928 C   0  0  0  0  0  0  0  0  0  0  0  0
  154.4591  134.7426  188.3405 C   0  0  0  0  0  0  0  0  0  0  0  0
  155.1055  134.8295  187.1551 C   0  0  0  0  0  0  0  0  0  0  0  0
  156.4565  134.5215  187.0764 C   0  0  0  0  0  0  0  0  0  0  0  0
  157.1691  134.1211  188.1998 C   0  0  0  0  0  0  0  0  0  0  0  0
  158.6829  133.3581  190.2726 C   0  0  0  0  0  0  0  0  0  0  0  0
  157.2228  133.6454  190.6264 C   0  0  0  0  0  0  0  0  0  0  0  0
  156.6059  132.3503  191.1314 C   0  0  0  0  0  0  0  0  0  0  0  0
  157.1500  134.7646  191.6345 C   0  0  0  0  0  0  0  0  0  0  0  0
 27 28  1  0  0  0
 28 29  1  0  0  0
 28 30  1  0  0  0
 28 21  1  0  0  0
 21 22  2  0  0  0
 22 23  1  0  0  0
 23 24  2  0  0  0
 24 17  1  0  0  0
 17 18  1  0  0  0
 18 19  2  0  0  0
 18  1  1  0  0  0
  1  2  2  0  0  0
  2  3  1  0  0  0
  3  4  1  0  0  0
  4  5  1  0  0  0
  5  6  1  0  0  0
  4  7  1  0  0  0
  7  8  2  0  0  0
  8  9  1  0  0  0
  9 10  2  0  0  0
 10 11  1  0  0  0
 11 12  2  0  0  0
 12 13  1  0  0  0
 13 14  1  0  0  0
 13 15  1  0  0  0
 13 16  1  0  0  0
 24 25  1  0  0  0
 25 26  2  0  0  0
 26 21  1  0  0  0
  6  1  1  0  0  0
 12  7  1  0  0  0
 17 20  1  0  0  0
M  END
> <minimizedAffinity>
-6.30666

> <CNNscore>
0.2725763321

> <CNNaffinity>
5.1547956467

> <CNN_VS>
1.4050753117

> <CNNaffinity_variance>
0.0765533894

$$$$
[H]C1=C(C(=O)N([H])c2c([H])c([H])c(C(C([H])([H])[H])(C([H])([H])[H])C([H])([H])[H])c([H])c2[H])C([H])([H])C([H])([H])N(c2nc([H])c([H])c([H])c2C(F)(F)F)C1([H])[H]


 30 32  0  0  0  0  0  0  0  0999 V2000
  155.3363  142.0631  182.0360 C   0  0  0  0  0  0  0  0  0  0  0  0
  156.3898  141.9071  181.2956 C   0  0  0  0  0  0  0  0  0  0  0  0
  157.6557  142.6960  181.6382 C   0  0  0  0  0  0  0  0  0  0  0  0
  157.9038  142.5822  183.0303 N   0  0  0  0  0  0  0  0  0  0  0  0
  156.7085  142.5502  183.9180 C   0  0  0  0  0  0  0  0  0  0  0  0
  155.5323  143.0731  183.1626 C   0  0  0  0  0  0  0  0  0  0  0  0
  159.1124  142.4786  183.6983 C   0  0  0  0  0  0  0  0  0  0  0  0
  159.7882  143.6420  184.0243 N   0  0  0  0  0  0  0  0  0  0  0  0
  160.9860  143.6497  184.6147 C   0  0  0  0  0  0  0  0  0  0  0  0
  161.6123  142.4687  184.9293 C   0  0  0  0  0  0  0  0  0  0  0  0
  160.9872  141.2832  184.6319 C   0  0  0  0  0  0  0  0  0  0  0  0
  159.7241  141.3088  184.0103 C   0  0  0  0  0  0  0  0  0  0  0  0
  159.0974  140.0074  183.7521 C   0  0  0  0  0  0  0  0  0  0  0  0
  158.9078  139.7243  182.4109 F   0  0  0  0  0  0  0  0  0  0  0  0
  159.9308  138.9890  184.2825 F   0  0  0  0  0  0  0  0  0  0  0  0
  157.9063  139.9166  184.4151 F   0  0  0  0  0  0  0  0  0  0  0  0
  153.7455  140.2160  181.2609 N   0  0  0  0  0  0  0  0  0  0  0  0
  154.0644  141.4492  181.9159 C   0  0  0  0  0  0  0  0  0  0  0  0
  153.0324  142.0385  182.4529 O   0  0  0  0  0  0  0  0  0  0  0  0
  154.4568  139.6575  180.7626 H   0  0  0  0  0  0  0  0  0  0  0  0
  149.8023  138.8684  181.5340 C   0  0  0  0  0  0  0  0  0  0  0  0
  150.1390  139.7654  180.5201 C   0  0  0  0  0  0  0  0  0  0  0  0
  151.4629  140.2139  180.4310 C   0  0  0  0  0  0  0  0  0  0  0  0
  152.3910  139.7807  181.3151 C   0  0  0  0  0  0  0  0  0  0  0  0
  152.0336  138.8876  182.3156 C   0  0  0  0  0  0  0  0  0  0  0  0
  150.7296  138.4223  182.4317 C   0  0  0  0  0  0  0  0  0  0  0  0
  147.7313  139.1514  182.8045 C   0  0  0  0  0  0  0  0  0  0  0  0
  148.3902  138.4279  181.6289 C   0  0  0  0  0  0  0  0  0  0  0  0
  148.3860  136.9394  181.9413 C   0  0  0  0  0  0  0  0  0  0  0  0
  147.6659  138.7630  180.3494 C   0  0  0  0  0  0  0  0  0  0  0  0
 27 28  1  0  0  0
 28 29  1  0  0  0
 28 30  1  0  0  0
 28 21  1  0  0  0
 21 22  2  0  0  0
 22 23  1  0  0  0
 23 24  2  0  0  0
 24 17  1  0  0  0
 17 18  1  0  0  0
 18 19  2  0  0  0
 18  1  1  0  0  0
  1  2  2  0  0  0
  2  3  1  0  0  0
  3  4  1  0  0  0
  4  5  1  0  0  0
  5  6  1  0  0  0
  4  7  1  0  0  0
  7  8  2  0  0  0
  8  9  1  0  0  0
  9 10  2  0  0  0
 10 11  1  0  0  0
 11 12  2  0  0  0
 12 13  1  0  0  0
 13 14  1  0  0  0
 13 15  1  0  0  0
 13 16  1  0  0  0
 24 25  1  0  0  0
 25 26  2  0  0  0
 26 21  1  0  0  0
  6  1  1  0  0  0
 12  7  1  0  0  0
 17 20  1  0  0  0
M  END
> <minimizedAffinity>
-8.39806

> <CNNscore>
0.2643775046

> <CNNaffinity>
6.3052368164

> <CNN_VS>
1.6669627428

> <CNNaffinity_variance>
0.0296241753

$$$$
[H]C1=C(C(=O)N([H])c2c([H])c([H])c(C(C([H])([H])[H])(C([H])([H])[H])C([H])([H])[H])c([H])c2[H])C([H])([H])C([H])([H])N(c2nc([H])c([H])c([H])c2C(F)(F)F)C1([H])[H]


 30 32  0  0  0  0  0  0  0  0999 V2000
  153.5581  137.5268  186.1452 C   0  0  0  0  0  0  0  0  0  0  0  0
  152.3164  137.6420  186.5021 C   0  0  0  0  0  0  0  0  0  0  0  0
  151.6728  136.5117  187.3086 C   0  0  0  0  0  0  0  0  0  0  0  0
  152.5476  136.1461  188.3639 N   0  0  0  0  0  0  0  0  0  0  0  0
  154.0058  136.1948  188.0654 C   0  0  0  0  0  0  0  0  0  0  0  0
  154.1951  136.2121  186.5851 C   0  0  0  0  0  0  0  0  0  0  0  0
  152.2436  135.7590  189.6583 C   0  0  0  0  0  0  0  0  0  0  0  0
  152.3249  136.7045  190.6663 N   0  0  0  0  0  0  0  0  0  0  0  0
  152.1098  136.4201  191.9533 C   0  0  0  0  0  0  0  0  0  0  0  0
  151.7916  135.1406  192.3375 C   0  0  0  0  0  0  0  0  0  0  0  0
  151.6940  134.1621  191.3796 C   0  0  0  0  0  0  0  0  0  0  0  0
  151.9255  134.4942  190.0311 C   0  0  0  0  0  0  0  0  0  0  0  0
  151.7709  133.4088  189.0559 C   0  0  0  0  0  0  0  0  0  0  0  0
  151.5202  132.1701  189.6196 F   0  0  0  0  0  0  0  0  0  0  0  0
  150.6754  133.7135  188.2074 F   0  0  0  0  0  0  0  0  0  0  0  0
  152.8734  133.3348  188.2524 F   0  0  0  0  0  0  0  0  0  0  0  0
  154.0959  138.9689  184.1020 N   0  0  0  0  0  0  0  0  0  0  0  0
  154.3590  138.4306  185.4030 C   0  0  0  0  0  0  0  0  0  0  0  0
  155.4756  138.8528  185.9279 O   0  0  0  0  0  0  0  0  0  0  0  0
  153.2656  138.6972  183.5516 H   0  0  0  0  0  0  0  0  0  0  0  0
  156.7552  141.8030  182.5737 C   0  0  0  0  0  0  0  0  0  0  0  0
  157.2310  140.5271  182.8766 C   0  0  0  0  0  0  0  0  0  0  0  0
  156.3357  139.5790  183.3877 C   0  0  0  0  0  0  0  0  0  0  0  0
  155.0361  139.9024  183.5807 C   0  0  0  0  0  0  0  0  0  0  0  0
  154.5845  141.1778  183.2717 C   0  0  0  0  0  0  0  0  0  0  0  0
  155.4459  142.1417  182.7625 C   0  0  0  0  0  0  0  0  0  0  0  0
  158.0455  142.4643  180.6037 C   0  0  0  0  0  0  0  0  0  0  0  0
  157.7242  142.8005  182.0609 C   0  0  0  0  0  0  0  0  0  0  0  0
  159.0088  142.6575  182.8624 C   0  0  0  0  0  0  0  0  0  0  0  0
  157.1262  144.1821  182.1486 C   0  0  0  0  0  0  0  0  0  0  0  0
 27 28  1  0  0  0
 28 29  1  0  0  0
 28 30  1  0  0  0
 28 21  1  0  0  0
 21 22  2  0  0  0
 22 23  1  0  0  0
 23 24  2  0  0  0
 24 17  1  0  0  0
 17 18  1  0  0  0
 18 19  2  0  0  0
 18  1  1  0  0  0
  1  2  2  0  0  0
  2  3  1  0  0  0
  3  4  1  0  0  0
  4  5  1  0  0  0
  5  6  1  0  0  0
  4  7  1  0  0  0
  7  8  2  0  0  0
  8  9  1  0  0  0
  9 10  2  0  0  0
 10 11  1  0  0  0
 11 12  2  0  0  0
 12 13  1  0  0  0
 13 14  1  0  0  0
 13 15  1  0  0  0
 13 16  1  0  0  0
 24 25  1  0  0  0
 25 26  2  0  0  0
 26 21  1  0  0  0
  6  1  1  0  0  0
 12  7  1  0  0  0
 17 20  1  0  0  0
M  END
> <minimizedAffinity>
-5.79842

> <CNNscore>
0.2561043799

> <CNNaffinity>
5.6134290695

> <CNN_VS>
1.4376237392

> <CNNaffinity_variance>
0.1974295676

$$$$
[H]C1=C(C(=O)N([H])c2c([H])c([H])c(C(C([H])([H])[H])(C([H])([H])[H])C([H])([H])[H])c([H])c2[H])C([H])([H])C([H])([H])N(c2nc([H])c([H])c([H])c2C(F)(F)F)C1([H])[H]


 30 32  0  0  0  0  0  0  0  0999 V2000
  155.4417  137.8196  186.7802 C   0  0  0  0  0  0  0  0  0  0  0  0
  155.0627  136.5807  186.7161 C   0  0  0  0  0  0  0  0  0  0  0  0
  154.6117  135.8800  187.9998 C   0  0  0  0  0  0  0  0  0  0  0  0
  153.7081  136.7274  188.6912 N   0  0  0  0  0  0  0  0  0  0  0  0
  153.9849  138.1892  188.6249 C   0  0  0  0  0  0  0  0  0  0  0  0
  155.3988  138.3936  188.1931 C   0  0  0  0  0  0  0  0  0  0  0  0
  152.5779  136.3939  189.4185 C   0  0  0  0  0  0  0  0  0  0  0  0
  151.4239  136.0620  188.7297 N   0  0  0  0  0  0  0  0  0  0  0  0
  150.2667  135.7829  189.3352 C   0  0  0  0  0  0  0  0  0  0  0  0
  150.1745  135.8166  190.7050 C   0  0  0  0  0  0  0  0  0  0  0  0
  151.2888  136.1366  191.4402 C   0  0  0  0  0  0  0  0  0  0  0  0
  152.4942  136.4248  190.7720 C   0  0  0  0  0  0  0  0  0  0  0  0
  153.6541  136.7251  191.6190 C   0  0  0  0  0  0  0  0  0  0  0  0
  153.9779  138.0689  191.6833 F   0  0  0  0  0  0  0  0  0  0  0  0
  153.3730  136.2970  192.9422 F   0  0  0  0  0  0  0  0  0  0  0  0
  154.7407  136.0086  191.2036 F   0  0  0  0  0  0  0  0  0  0  0  0
  157.1837  139.2814  185.6089 N   0  0  0  0  0  0  0  0  0  0  0  0
  155.8965  138.6668  185.7388 C   0  0  0  0  0  0  0  0  0  0  0  0
  155.0825  138.9453  184.7588 O   0  0  0  0  0  0  0  0  0  0  0  0
  157.9183  139.1772  186.3270 H   0  0  0  0  0  0  0  0  0  0  0  0
  157.8156  141.6703  182.2424 C   0  0  0  0  0  0  0  0  0  0  0  0
  158.3091  140.3655  182.2449 C   0  0  0  0  0  0  0  0  0  0  0  0
  158.0938  139.5670  183.3753 C   0  0  0  0  0  0  0  0  0  0  0  0
  157.4194  140.0593  184.4399 C   0  0  0  0  0  0  0  0  0  0  0  0
  156.9368  141.3604  184.4153 C   0  0  0  0  0  0  0  0  0  0  0  0
  157.1322  142.1787  183.3097 C   0  0  0  0  0  0  0  0  0  0  0  0
  157.6863  141.7164  179.8002 C   0  0  0  0  0  0  0  0  0  0  0  0
  158.0785  142.5085  181.0485 C   0  0  0  0  0  0  0  0  0  0  0  0
  159.5757  142.7669  180.9806 C   0  0  0  0  0  0  0  0  0  0  0  0
  157.2654  143.7760  181.1281 C   0  0  0  0  0  0  0  0  0  0  0  0
 27 28  1  0  0  0
 28 29  1  0  0  0
 28 30  1  0  0  0
 28 21  1  0  0  0
 21 22  2  0  0  0
 22 23  1  0  0  0
 23 24  2  0  0  0
 24 17  1  0  0  0
 17 18  1  0  0  0
 18 19  2  0  0  0
 18  1  1  0  0  0
  1  2  2  0  0  0
  2  3  1  0  0  0
  3  4  1  0  0  0
  4  5  1  0  0  0
  5  6  1  0  0  0
  4  7  1  0  0  0
  7  8  2  0  0  0
  8  9  1  0  0  0
  9 10  2  0  0  0
 10 11  1  0  0  0
 11 12  2  0  0  0
 12 13  1  0  0  0
 13 14  1  0  0  0
 13 15  1  0  0  0
 13 16  1  0  0  0
 24 25  1  0  0  0
 25 26  2  0  0  0
 26 21  1  0  0  0
  6  1  1  0  0  0
 12  7  1  0  0  0
 17 20  1  0  0  0
M  END
> <minimizedAffinity>
-7.19384

> <CNNscore>
0.2543011904

> <CNNaffinity>
5.6958951950

> <CNN_VS>
1.4484729767

> <CNNaffinity_variance>
0.0512315705

$$$$
[H]c1nc(N2C([H])([H])C([H])([H])c3nc(N4C([H])([H])C([H])([H])C([H])([H])C([H])([H])C4([H])[H])nc(N([H])c4c([H])nc(C(F)(F)F)c([H])c4[H])c3C([H])([H])C2([H])[H])c(C(F)(F)F)c([H])c1[H]


 39 43  0  0  0  0  0  0  0  0999 V2000
  154.6765  138.8925  183.9824 C   0  0  0  0  0  0  0  0  0  0  0  0
  153.5320  138.6826  183.2914 N   0  0  0  0  0  0  0  0  0  0  0  0
  153.0575  139.5578  182.3737 C   0  0  0  0  0  0  0  0  0  0  0  0
  153.7016  140.6885  182.1006 N   0  0  0  0  0  0  0  0  0  0  0  0
  154.8509  140.9800  182.7399 C   0  0  0  0  0  0  0  0  0  0  0  0
  155.3627  142.3211  182.3418 C   0  0  0  0  0  0  0  0  0  0  0  0
  156.7609  142.2007  181.8236 C   0  0  0  0  0  0  0  0  0  0  0  0
  157.7069  141.8239  182.8778 N   0  0  0  0  0  0  0  0  0  0  0  0
  157.8075  140.6010  183.5662 C   0  0  0  0  0  0  0  0  0  0  0  0
  156.6133  140.1764  184.3995 C   0  0  0  0  0  0  0  0  0  0  0  0
  155.3447  140.0874  183.6777 C   0  0  0  0  0  0  0  0  0  0  0  0
  158.6378  142.8680  183.1925 C   0  0  0  0  0  0  0  0  0  0  0  0
  158.5047  144.0362  182.4775 N   0  0  0  0  0  0  0  0  0  0  0  0
  159.3420  145.0612  182.7014 C   0  0  0  0  0  0  0  0  0  0  0  0
  160.3281  144.9347  183.6437 C   0  0  0  0  0  0  0  0  0  0  0  0
  160.4763  143.7779  184.3610 C   0  0  0  0  0  0  0  0  0  0  0  0
  159.6044  142.6911  184.1433 C   0  0  0  0  0  0  0  0  0  0  0  0
  159.7568  141.4783  184.9498 C   0  0  0  0  0  0  0  0  0  0  0  0
  159.9050  140.3018  184.3056 F   0  0  0  0  0  0  0  0  0  0  0  0
  158.7548  141.3748  185.9328 F   0  0  0  0  0  0  0  0  0  0  0  0
  160.9186  141.6310  185.7415 F   0  0  0  0  0  0  0  0  0  0  0  0
  151.8243  139.3879  181.6762 N   0  0  0  0  0  0  0  0  0  0  0  0
  150.8430  138.3976  182.1057 C   0  0  0  0  0  0  0  0  0  0  0  0
  149.5157  138.7454  181.4659 C   0  0  0  0  0  0  0  0  0  0  0  0
  149.5938  138.6917  179.9566 C   0  0  0  0  0  0  0  0  0  0  0  0
  150.7990  139.4299  179.4313 C   0  0  0  0  0  0  0  0  0  0  0  0
  151.4782  140.1980  180.5319 C   0  0  0  0  0  0  0  0  0  0  0  0
  155.0134  138.0435  185.0253 N   0  0  0  0  0  0  0  0  0  0  0  0
  155.4546  137.1069  184.7076 H   0  0  0  0  0  0  0  0  0  0  0  0
  154.9663  138.3139  189.1939 C   0  0  0  0  0  0  0  0  0  0  0  0
  153.8073  138.6064  188.4798 C   0  0  0  0  0  0  0  0  0  0  0  0
  153.7813  138.5459  187.1009 C   0  0  0  0  0  0  0  0  0  0  0  0
  154.9295  138.1843  186.4143 C   0  0  0  0  0  0  0  0  0  0  0  0
  156.0451  137.9097  187.1771 C   0  0  0  0  0  0  0  0  0  0  0  0
  156.0738  137.9662  188.5069 N   0  0  0  0  0  0  0  0  0  0  0  0
  156.2009  137.8986  191.1445 F   0  0  0  0  0  0  0  0  0  0  0  0
  154.9764  138.3442  190.6763 C   0  0  0  0  0  0  0  0  0  0  0  0
  154.7645  139.6178  191.1605 F   0  0  0  0  0  0  0  0  0  0  0  0
  153.9857  137.5296  191.1966 F   0  0  0  0  0  0  0  0  0  0  0  0
 36 37  1  0  0  0
 37 38  1  0  0  0
 37 39  1  0  0  0
 37 30  1  0  0  0
 30 31  2  0  0  0
 31 32  1  0  0  0
 32 33  2  0  0  0
 33 28  1  0  0  0
 28  1  1  0  0  0
  1  2  2  0  0  0
  2  3  1  0  0  0
  3  4  2  0  0  0
  4  5  1  0  0  0
  5  6  1  0  0  0
  6  7  1  0  0  0
  7  8  1  0  0  0
  8  9  1  0  0  0
  9 10  1  0  0  0
 10 11  1  0  0  0
  8 12  1  0  0  0
 12 13  2  0  0  0
 13 14  1  0  0  0
 14 15  2  0  0  0
 15 16  1  0  0  0
 16 17  2  0  0  0
 17 18  1  0  0  0
 18 19  1  0  0  0
 18 20  1  0  0  0
 18 21  1  0  0  0
  3 22  1  0  0  0
 22 23  1  0  0  0
 23 24  1  0  0  0
 24 25  1  0  0  0
 25 26  1  0  0  0
 26 27  1  0  0  0
 33 34  1  0  0  0
 34 35  2  0  0  0
 35 30  1  0  0  0
 11  1  1  0  0  0
 17 12  1  0  0  0
 27 22  1  0  0  0
 11  5  2  0  0  0
 28 29  1  0  0  0
M  END
> <minimizedAffinity>
-11.63344

> <CNNscore>
0.6675348878

> <CNNaffinity>
7.8045072556

> <CNN_VS>
5.2097806931

> <CNNaffinity_variance>
0.0576343946

$$$$
[H]c1nc(N2C([H])([H])C([H])([H])c3nc(N4C([H])([H])C([H])([H])C([H])([H])C([H])([H])C4([H])[H])nc(N([H])c4c([H])nc(C(F)(F)F)c([H])c4[H])c3C([H])([H])C2([H])[H])c(C(F)(F)F)c([H])c1[H]


 39 43  0  0  0  0  0  0  0  0999 V2000
  154.4933  138.6157  184.1550 C   0  0  0  0  0  0  0  0  0  0  0  0
  153.3622  138.4803  183.4243 N   0  0  0  0  0  0  0  0  0  0  0  0
  152.9805  139.3815  182.4886 C   0  0  0  0  0  0  0  0  0  0  0  0
  153.7087  140.4649  182.2363 N   0  0  0  0  0  0  0  0  0  0  0  0
  154.8518  140.6812  182.9153 C   0  0  0  0  0  0  0  0  0  0  0  0
  155.4668  141.9829  182.5329 C   0  0  0  0  0  0  0  0  0  0  0  0
  156.8710  141.7663  182.0647 C   0  0  0  0  0  0  0  0  0  0  0  0
  157.7517  141.3311  183.1526 N   0  0  0  0  0  0  0  0  0  0  0  0
  157.7452  140.1073  183.8465 C   0  0  0  0  0  0  0  0  0  0  0  0
  156.4964  139.7679  184.6378 C   0  0  0  0  0  0  0  0  0  0  0  0
  155.2509  139.7614  183.8718 C   0  0  0  0  0  0  0  0  0  0  0  0
  158.7393  142.3115  183.4979 C   0  0  0  0  0  0  0  0  0  0  0  0
  159.1851  142.2922  184.7997 N   0  0  0  0  0  0  0  0  0  0  0  0
  160.1019  143.1826  185.2102 C   0  0  0  0  0  0  0  0  0  0  0  0
  160.5874  144.1091  184.3257 C   0  0  0  0  0  0  0  0  0  0  0  0
  160.1515  144.1441  183.0282 C   0  0  0  0  0  0  0  0  0  0  0  0
  159.1918  143.2147  182.5765 C   0  0  0  0  0  0  0  0  0  0  0  0
  158.7697  143.2457  181.1746 C   0  0  0  0  0  0  0  0  0  0  0  0
  157.5163  143.6622  180.8980 F   0  0  0  0  0  0  0  0  0  0  0  0
  159.0356  142.0277  180.5215 F   0  0  0  0  0  0  0  0  0  0  0  0
  159.6292  144.1326  180.4857 F   0  0  0  0  0  0  0  0  0  0  0  0
  151.7640  139.2921  181.7482 N   0  0  0  0  0  0  0  0  0  0  0  0
  150.7160  138.3503  182.1266 C   0  0  0  0  0  0  0  0  0  0  0  0
  149.4320  138.7820  181.4507 C   0  0  0  0  0  0  0  0  0  0  0  0
  149.5577  138.7498  179.9440 C   0  0  0  0  0  0  0  0  0  0  0  0
  150.8185  139.4290  179.4723 C   0  0  0  0  0  0  0  0  0  0  0  0
  151.5014  140.1395  180.6088 C   0  0  0  0  0  0  0  0  0  0  0  0
  154.7351  137.7505  185.2109 N   0  0  0  0  0  0  0  0  0  0  0  0
  154.9521  136.7336  184.9080 H   0  0  0  0  0  0  0  0  0  0  0  0
  155.0984  138.1822  189.3502 C   0  0  0  0  0  0  0  0  0  0  0  0
  153.9077  138.5507  188.7295 C   0  0  0  0  0  0  0  0  0  0  0  0
  153.7488  138.4404  187.3625 C   0  0  0  0  0  0  0  0  0  0  0  0
  154.7929  137.9510  186.5939 C   0  0  0  0  0  0  0  0  0  0  0  0
  155.9465  137.6060  187.2662 C   0  0  0  0  0  0  0  0  0  0  0  0
  156.1032  137.7102  188.5841 N   0  0  0  0  0  0  0  0  0  0  0  0
  156.5515  137.9630  191.1783 F   0  0  0  0  0  0  0  0  0  0  0  0
  155.2485  138.2678  190.8229 C   0  0  0  0  0  0  0  0  0  0  0  0
  154.9556  139.5312  191.2915 F   0  0  0  0  0  0  0  0  0  0  0  0
  154.4009  137.3790  191.4612 F   0  0  0  0  0  0  0  0  0  0  0  0
 36 37  1  0  0  0
 37 38  1  0  0  0
 37 39  1  0  0  0
 37 30  1  0  0  0
 30 31  2  0  0  0
 31 32  1  0  0  0
 32 33  2  0  0  0
 33 28  1  0  0  0
 28  1  1  0  0  0
  1  2  2  0  0  0
  2  3  1  0  0  0
  3  4  2  0  0  0
  4  5  1  0  0  0
  5  6  1  0  0  0
  6  7  1  0  0  0
  7  8  1  0  0  0
  8  9  1  0  0  0
  9 10  1  0  0  0
 10 11  1  0  0  0
  8 12  1  0  0  0
 12 13  2  0  0  0
 13 14  1  0  0  0
 14 15  2  0  0  0
 15 16  1  0  0  0
 16 17  2  0  0  0
 17 18  1  0  0  0
 18 19  1  0  0  0
 18 20  1  0  0  0
 18 21  1  0  0  0
  3 22  1  0  0  0
 22 23  1  0  0  0
 23 24  1  0  0  0
 24 25  1  0  0  0
 25 26  1  0  0  0
 26 27  1  0  0  0
 33 34  1  0  0  0
 34 35  2  0  0  0
 35 30  1  0  0  0
 11  1  1  0  0  0
 17 12  1  0  0  0
 27 22  1  0  0  0
 11  5  2  0  0  0
 28 29  1  0  0  0
M  END
> <minimizedAffinity>
-11.41777

> <CNNscore>
0.6247406006

> <CNNaffinity>
7.7008504868

> <CNN_VS>
4.8110337257

> <CNNaffinity_variance>
0.0318160057

$$$$
[H]c1nc(N2C([H])([H])C([H])([H])c3nc(N4C([H])([H])C([H])([H])C([H])([H])C([H])([H])C4([H])[H])nc(N([H])c4c([H])nc(C(F)(F)F)c([H])c4[H])c3C([H])([H])C2([H])[H])c(C(F)(F)F)c([H])c1[H]


 39 43  0  0  0  0  0  0  0  0999 V2000
  154.5501  138.5016  184.5158 C   0  0  0  0  0  0  0  0  0  0  0  0
  155.4149  139.5299  184.3531 N   0  0  0  0  0  0  0  0  0  0  0  0
  155.3621  140.3730  183.2948 C   0  0  0  0  0  0  0  0  0  0  0  0
  154.4435  140.2307  182.3442 N   0  0  0  0  0  0  0  0  0  0  0  0
  153.5402  139.2346  182.4243 C   0  0  0  0  0  0  0  0  0  0  0  0
  152.6575  139.2110  181.2246 C   0  0  0  0  0  0  0  0  0  0  0  0
  151.2241  139.2993  181.6435 C   0  0  0  0  0  0  0  0  0  0  0  0
  150.7854  138.0967  182.3575 N   0  0  0  0  0  0  0  0  0  0  0  0
  151.1775  137.6436  183.6304 C   0  0  0  0  0  0  0  0  0  0  0  0
  152.6422  137.2979  183.8203 C   0  0  0  0  0  0  0  0  0  0  0  0
  153.5855  138.3702  183.5063 C   0  0  0  0  0  0  0  0  0  0  0  0
  149.8177  137.3338  181.6246 C   0  0  0  0  0  0  0  0  0  0  0  0
  150.1749  136.0430  181.3084 N   0  0  0  0  0  0  0  0  0  0  0  0
  149.3318  135.2623  180.6143 C   0  0  0  0  0  0  0  0  0  0  0  0
  148.1172  135.7602  180.2230 C   0  0  0  0  0  0  0  0  0  0  0  0
  147.7482  137.0434  180.5263 C   0  0  0  0  0  0  0  0  0  0  0  0
  148.6181  137.8780  181.2581 C   0  0  0  0  0  0  0  0  0  0  0  0
  148.1862  139.2336  181.6051 C   0  0  0  0  0  0  0  0  0  0  0  0
  148.7868  140.2699  180.9836 F   0  0  0  0  0  0  0  0  0  0  0  0
  148.1750  139.4383  182.9975 F   0  0  0  0  0  0  0  0  0  0  0  0
  146.8119  139.3415  181.2896 F   0  0  0  0  0  0  0  0  0  0  0  0
  156.2978  141.4266  183.0702 N   0  0  0  0  0  0  0  0  0  0  0  0
  157.3391  141.7336  184.0448 C   0  0  0  0  0  0  0  0  0  0  0  0
  158.3961  142.5685  183.3537 C   0  0  0  0  0  0  0  0  0  0  0  0
  157.8317  143.8796  182.8545 C   0  0  0  0  0  0  0  0  0  0  0  0
  156.5411  143.6832  182.1001 C   0  0  0  0  0  0  0  0  0  0  0  0
  156.2756  142.2213  181.8647 C   0  0  0  0  0  0  0  0  0  0  0  0
  154.7658  137.5779  185.5268 N   0  0  0  0  0  0  0  0  0  0  0  0
  154.8828  136.5596  185.1772 H   0  0  0  0  0  0  0  0  0  0  0  0
  154.9853  138.1635  189.6573 C   0  0  0  0  0  0  0  0  0  0  0  0
  156.0812  137.6264  188.9870 C   0  0  0  0  0  0  0  0  0  0  0  0
  156.0475  137.4007  187.6254 C   0  0  0  0  0  0  0  0  0  0  0  0
  154.9026  137.7173  186.9118 C   0  0  0  0  0  0  0  0  0  0  0  0
  153.8507  138.2430  187.6322 C   0  0  0  0  0  0  0  0  0  0  0  0
  153.8797  138.4628  188.9449 N   0  0  0  0  0  0  0  0  0  0  0  0
  155.0031  139.8049  191.3328 F   0  0  0  0  0  0  0  0  0  0  0  0
  155.0421  138.4383  191.1133 C   0  0  0  0  0  0  0  0  0  0  0  0
  153.9827  137.8615  191.7815 F   0  0  0  0  0  0  0  0  0  0  0  0
  156.2075  137.9386  191.6681 F   0  0  0  0  0  0  0  0  0  0  0  0
 36 37  1  0  0  0
 37 38  1  0  0  0
 37 39  1  0  0  0
 37 30  1  0  0  0
 30 31  2  0  0  0
 31 32  1  0  0  0
 32 33  2  0  0  0
 33 28  1  0  0  0
 28  1  1  0  0  0
  1  2  2  0  0  0
  2  3  1  0  0  0
  3  4  2  0  0  0
  4  5  1  0  0  0
  5  6  1  0  0  0
  6  7  1  0  0  0
  7  8  1  0  0  0
  8  9  1  0  0  0
  9 10  1  0  0  0
 10 11  1  0  0  0
  8 12  1  0  0  0
 12 13  2  0  0  0
 13 14  1  0  0  0
 14 15  2  0  0  0
 15 16  1  0  0  0
 16 17  2  0  0  0
 17 18  1  0  0  0
 18 19  1  0  0  0
 18 20  1  0  0  0
 18 21  1  0  0  0
  3 22  1  0  0  0
 22 23  1  0  0  0
 23 24  1  0  0  0
 24 25  1  0  0  0
 25 26  1  0  0  0
 26 27  1  0  0  0
 33 34  1  0  0  0
 34 35  2  0  0  0
 35 30  1  0  0  0
 11  1  1  0  0  0
 17 12  1  0  0  0
 27 22  1  0  0  0
 11  5  2  0  0  0
 28 29  1  0  0  0
M  END
> <minimizedAffinity>
-8.99097

> <CNNscore>
0.4986670315

> <CNNaffinity>
7.1182684898

> <CNN_VS>
3.5496459007

> <CNNaffinity_variance>
0.0411110595

$$$$
[H]c1nc(N2C([H])([H])C([H])([H])c3nc(N4C([H])([H])C([H])([H])C([H])([H])C([H])([H])C4([H])[H])nc(N([H])c4c([H])nc(C(F)(F)F)c([H])c4[H])c3C([H])([H])C2([H])[H])c(C(F)(F)F)c([H])c1[H]


 39 43  0  0  0  0  0  0  0  0999 V2000
  153.6691  138.5843  184.8639 C   0  0  0  0  0  0  0  0  0  0  0  0
  154.6380  139.5152  184.7021 N   0  0  0  0  0  0  0  0  0  0  0  0
  154.8546  140.1529  183.5275 C   0  0  0  0  0  0  0  0  0  0  0  0
  154.1150  139.8918  182.4539 N   0  0  0  0  0  0  0  0  0  0  0  0
  153.1262  138.9797  182.5228 C   0  0  0  0  0  0  0  0  0  0  0  0
  152.4778  138.7876  181.1956 C   0  0  0  0  0  0  0  0  0  0  0  0
  151.0060  139.0316  181.3063 C   0  0  0  0  0  0  0  0  0  0  0  0
  150.3384  138.0060  182.1130 N   0  0  0  0  0  0  0  0  0  0  0  0
  150.4502  137.7710  183.4956 C   0  0  0  0  0  0  0  0  0  0  0  0
  151.8188  137.3836  184.0226 C   0  0  0  0  0  0  0  0  0  0  0  0
  152.8962  138.3257  183.7226 C   0  0  0  0  0  0  0  0  0  0  0  0
  149.4553  137.1781  181.3446 C   0  0  0  0  0  0  0  0  0  0  0  0
  149.9721  135.9795  180.9086 N   0  0  0  0  0  0  0  0  0  0  0  0
  149.2163  135.1484  180.1738 C   0  0  0  0  0  0  0  0  0  0  0  0
  147.9306  135.5027  179.8611 C   0  0  0  0  0  0  0  0  0  0  0  0
  147.4026  136.6931  180.2840 C   0  0  0  0  0  0  0  0  0  0  0  0
  148.1791  137.5782  181.0602 C   0  0  0  0  0  0  0  0  0  0  0  0
  147.5808  138.8278  181.5346 C   0  0  0  0  0  0  0  0  0  0  0  0
  146.9029  138.8044  182.7012 F   0  0  0  0  0  0  0  0  0  0  0  0
  146.8118  139.4519  180.5345 F   0  0  0  0  0  0  0  0  0  0  0  0
  148.6255  139.7634  181.7169 F   0  0  0  0  0  0  0  0  0  0  0  0
  155.9065  141.0934  183.3155 N   0  0  0  0  0  0  0  0  0  0  0  0
  155.7075  142.2758  182.4844 C   0  0  0  0  0  0  0  0  0  0  0  0
  156.8147  143.2599  182.7971 C   0  0  0  0  0  0  0  0  0  0  0  0
  158.1761  142.6896  182.4679 C   0  0  0  0  0  0  0  0  0  0  0  0
  158.3486  141.2970  183.0197 C   0  0  0  0  0  0  0  0  0  0  0  0
  157.2049  140.9352  183.9274 C   0  0  0  0  0  0  0  0  0  0  0  0
  153.6134  137.8495  186.0382 N   0  0  0  0  0  0  0  0  0  0  0  0
  152.6742  137.9372  186.5701 H   0  0  0  0  0  0  0  0  0  0  0  0
  156.4774  135.4616  187.9217 C   0  0  0  0  0  0  0  0  0  0  0  0
  155.6387  134.8929  186.9667 C   0  0  0  0  0  0  0  0  0  0  0  0
  154.6675  135.6401  186.3307 C   0  0  0  0  0  0  0  0  0  0  0  0
  154.5266  136.9821  186.6464 C   0  0  0  0  0  0  0  0  0  0  0  0
  155.3845  137.4858  187.6014 C   0  0  0  0  0  0  0  0  0  0  0  0
  156.3226  136.7687  188.2163 N   0  0  0  0  0  0  0  0  0  0  0  0
  157.5734  134.9411  189.9291 F   0  0  0  0  0  0  0  0  0  0  0  0
  157.5430  134.6624  188.5732 C   0  0  0  0  0  0  0  0  0  0  0  0
  157.3333  133.3089  188.4134 F   0  0  0  0  0  0  0  0  0  0  0  0
  158.7842  134.9586  188.0371 F   0  0  0  0  0  0  0  0  0  0  0  0
 36 37  1  0  0  0
 37 38  1  0  0  0
 37 39  1  0  0  0
 37 30  1  0  0  0
 30 31  2  0  0  0
 31 32  1  0  0  0
 32 33  2  0  0  0
 33 28  1  0  0  0
 28  1  1  0  0  0
  1  2  2  0  0  0
  2  3  1  0  0  0
  3  4  2  0  0  0
  4  5  1  0  0  0
  5  6  1  0  0  0
  6  7  1  0  0  0
  7  8  1  0  0  0
  8  9  1  0  0  0
  9 10  1  0  0  0
 10 11  1  0  0  0
  8 12  1  0  0  0
 12 13  2  0  0  0
 13 14  1  0  0  0
 14 15  2  0  0  0
 15 16  1  0  0  0
 16 17  2  0  0  0
 17 18  1  0  0  0
 18 19  1  0  0  0
 18 20  1  0  0  0
 18 21  1  0  0  0
  3 22  1  0  0  0
 22 23  1  0  0  0
 23 24  1  0  0  0
 24 25  1  0  0  0
 25 26  1  0  0  0
 26 27  1  0  0  0
 33 34  1  0  0  0
 34 35  2  0  0  0
 35 30  1  0  0  0
 11  1  1  0  0  0
 17 12  1  0  0  0
 27 22  1  0  0  0
 11  5  2  0  0  0
 28 29  1  0  0  0
M  END
> <minimizedAffinity>
-7.17503

> <CNNscore>
0.3644818068

> <CNNaffinity>
6.8094625473

> <CNN_VS>
2.4819252491

> <CNNaffinity_variance>
0.0003245984

$$$$
[H]c1nc(N2C([H])([H])C([H])([H])c3nc(N4C([H])([H])C([H])([H])C([H])([H])C([H])([H])C4([H])[H])nc(N([H])c4c([H])nc(C(F)(F)F)c([H])c4[H])c3C([H])([H])C2([H])[H])c(C(F)(F)F)c([H])c1[H]


 39 43  0  0  0  0  0  0  0  0999 V2000
  152.9665  137.3958  184.3818 C   0  0  0  0  0  0  0  0  0  0  0  0
  151.6706  137.3543  183.9940 N   0  0  0  0  0  0  0  0  0  0  0  0
  150.7238  136.6617  184.6702 C   0  0  0  0  0  0  0  0  0  0  0  0
  151.0238  135.9738  185.7677 N   0  0  0  0  0  0  0  0  0  0  0  0
  152.2896  135.9592  186.2283 C   0  0  0  0  0  0  0  0  0  0  0  0
  152.4193  135.0711  187.4172 C   0  0  0  0  0  0  0  0  0  0  0  0
  152.9893  135.8385  188.5679 C   0  0  0  0  0  0  0  0  0  0  0  0
  154.3837  136.2248  188.3335 N   0  0  0  0  0  0  0  0  0  0  0  0
  154.8898  137.1522  187.4045 C   0  0  0  0  0  0  0  0  0  0  0  0
  154.6599  136.8544  185.9350 C   0  0  0  0  0  0  0  0  0  0  0  0
  153.2633  136.6687  185.5437 C   0  0  0  0  0  0  0  0  0  0  0  0
  155.3033  135.5540  189.2054 C   0  0  0  0  0  0  0  0  0  0  0  0
  155.5679  134.2360  188.9112 N   0  0  0  0  0  0  0  0  0  0  0  0
  156.4095  133.5302  189.6829 C   0  0  0  0  0  0  0  0  0  0  0  0
  157.0000  134.1305  190.7633 C   0  0  0  0  0  0  0  0  0  0  0  0
  156.7445  135.4398  191.0717 C   0  0  0  0  0  0  0  0  0  0  0  0
  155.8665  136.1994  190.2712 C   0  0  0  0  0  0  0  0  0  0  0  0
  155.6389  137.6088  190.5970 C   0  0  0  0  0  0  0  0  0  0  0  0
  154.3665  138.0227  190.7719 F   0  0  0  0  0  0  0  0  0  0  0  0
  156.3143  138.4664  189.7086 F   0  0  0  0  0  0  0  0  0  0  0  0
  156.3018  137.8813  191.8161 F   0  0  0  0  0  0  0  0  0  0  0  0
  149.3647  136.5539  184.2489 N   0  0  0  0  0  0  0  0  0  0  0  0
  148.6094  135.3206  184.4404 C   0  0  0  0  0  0  0  0  0  0  0  0
  147.1375  135.6464  184.3010 C   0  0  0  0  0  0  0  0  0  0  0  0
  146.8124  136.1760  182.9223 C   0  0  0  0  0  0  0  0  0  0  0  0
  147.7757  137.2543  182.4948 C   0  0  0  0  0  0  0  0  0  0  0  0
  148.6667  137.6600  183.6369 C   0  0  0  0  0  0  0  0  0  0  0  0
  153.9120  137.9793  183.5527 N   0  0  0  0  0  0  0  0  0  0  0  0
  154.4844  137.2701  182.9676 H   0  0  0  0  0  0  0  0  0  0  0  0
  155.0486  141.9593  182.9866 C   0  0  0  0  0  0  0  0  0  0  0  0
  153.8465  141.5112  182.4452 C   0  0  0  0  0  0  0  0  0  0  0  0
  153.4388  140.2007  182.5935 C   0  0  0  0  0  0  0  0  0  0  0  0
  154.2393  139.3149  183.2970 C   0  0  0  0  0  0  0  0  0  0  0  0
  155.4182  139.8177  183.8062 C   0  0  0  0  0  0  0  0  0  0  0  0
  155.8144  141.0809  183.6659 N   0  0  0  0  0  0  0  0  0  0  0  0
  154.8709  144.1306  183.8558 F   0  0  0  0  0  0  0  0  0  0  0  0
  155.4621  143.3772  182.8557 C   0  0  0  0  0  0  0  0  0  0  0  0
  156.8299  143.5197  182.9568 F   0  0  0  0  0  0  0  0  0  0  0  0
  155.0777  143.8958  181.6313 F   0  0  0  0  0  0  0  0  0  0  0  0
 36 37  1  0  0  0
 37 38  1  0  0  0
 37 39  1  0  0  0
 37 30  1  0  0  0
 30 31  2  0  0  0
 31 32  1  0  0  0
 32 33  2  0  0  0
 33 28  1  0  0  0
 28  1  1  0  0  0
  1  2  2  0  0  0
  2  3  1  0  0  0
  3  4  2  0  0  0
  4  5  1  0  0  0
  5  6  1  0  0  0
  6  7  1  0  0  0
  7  8  1  0  0  0
  8  9  1  0  0  0
  9 10  1  0  0  0
 10 11  1  0  0  0
  8 12  1  0  0  0
 12 13  2  0  0  0
 13 14  1  0  0  0
 14 15  2  0  0  0
 15 16  1  0  0  0
 16 17  2  0  0  0
 17 18  1  0  0  0
 18 19  1  0  0  0
 18 20  1  0  0  0
 18 21  1  0  0  0
  3 22  1  0  0  0
 22 23  1  0  0  0
 23 24  1  0  0  0
 24 25  1  0  0  0
 25 26  1  0  0  0
 26 27  1  0  0  0
 33 34  1  0  0  0
 34 35  2  0  0  0
 35 30  1  0  0  0
 11  1  1  0  0  0
 17 12  1  0  0  0
 27 22  1  0  0  0
 11  5  2  0  0  0
 28 29  1  0  0  0
M  END
> <minimizedAffinity>
-6.69831

> <CNNscore>
0.3596277833

> <CNNaffinity>
6.7644553185

> <CNN_VS>
2.4326860905

> <CNNaffinity_variance>
0.0474948697

$$$$
[H]c1nc(N2C([H])([H])C([H])([H])c3nc(N4C([H])([H])C([H])([H])C([H])([H])C([H])([H])C4([H])[H])nc(N([H])c4c([H])nc(C(F)(F)F)c([H])c4[H])c3C([H])([H])C2([H])[H])c(C(F)(F)F)c([H])c1[H]


 39 43  0  0  0  0  0  0  0  0999 V2000
  155.6848  138.9944  184.0579 C   0  0  0  0  0  0  0  0  0  0  0  0
  154.7427  139.3393  183.1497 N   0  0  0  0  0  0  0  0  0  0  0  0
  153.4406  138.9892  183.2734 C   0  0  0  0  0  0  0  0  0  0  0  0
  153.0136  138.2750  184.3104 N   0  0  0  0  0  0  0  0  0  0  0  0
  153.8818  137.8880  185.2649 C   0  0  0  0  0  0  0  0  0  0  0  0
  153.2122  137.0381  186.2888 C   0  0  0  0  0  0  0  0  0  0  0  0
  153.4081  137.6282  187.6494 C   0  0  0  0  0  0  0  0  0  0  0  0
  154.8076  137.5631  188.0801 N   0  0  0  0  0  0  0  0  0  0  0  0
  155.9141  138.2640  187.5663 C   0  0  0  0  0  0  0  0  0  0  0  0
  156.2828  138.0076  186.1175 C   0  0  0  0  0  0  0  0  0  0  0  0
  155.2153  138.2459  185.1470 C   0  0  0  0  0  0  0  0  0  0  0  0
  155.0119  136.6695  189.1825 C   0  0  0  0  0  0  0  0  0  0  0  0
  155.1289  135.3347  188.8688 N   0  0  0  0  0  0  0  0  0  0  0  0
  155.3114  134.4283  189.8419 C   0  0  0  0  0  0  0  0  0  0  0  0
  155.3785  134.8414  191.1462 C   0  0  0  0  0  0  0  0  0  0  0  0
  155.2603  136.1652  191.4754 C   0  0  0  0  0  0  0  0  0  0  0  0
  155.0720  137.1333  190.4674 C   0  0  0  0  0  0  0  0  0  0  0  0
  154.9878  138.5471  190.8394 C   0  0  0  0  0  0  0  0  0  0  0  0
  154.3720  139.3925  189.9866 F   0  0  0  0  0  0  0  0  0  0  0  0
  156.2407  139.0631  191.2200 F   0  0  0  0  0  0  0  0  0  0  0  0
  154.2643  138.6310  192.0516 F   0  0  0  0  0  0  0  0  0  0  0  0
  152.4406  139.2892  182.3007 N   0  0  0  0  0  0  0  0  0  0  0  0
  151.1733  138.5672  182.2717 C   0  0  0  0  0  0  0  0  0  0  0  0
  150.1929  139.3748  181.4480 C   0  0  0  0  0  0  0  0  0  0  0  0
  150.6643  139.5349  180.0201 C   0  0  0  0  0  0  0  0  0  0  0  0
  152.1066  139.9693  179.9516 C   0  0  0  0  0  0  0  0  0  0  0  0
  152.6223  140.3312  181.3176 C   0  0  0  0  0  0  0  0  0  0  0  0
  157.0221  139.2367  183.7844 N   0  0  0  0  0  0  0  0  0  0  0  0
  157.4395  138.5957  183.0178 H   0  0  0  0  0  0  0  0  0  0  0  0
  159.9028  141.9421  185.1390 C   0  0  0  0  0  0  0  0  0  0  0  0
  158.7182  141.7939  185.8556 C   0  0  0  0  0  0  0  0  0  0  0  0
  157.7319  140.9237  185.4364 C   0  0  0  0  0  0  0  0  0  0  0  0
  157.9255  140.1814  184.2823 C   0  0  0  0  0  0  0  0  0  0  0  0
  159.1172  140.3747  183.6157 C   0  0  0  0  0  0  0  0  0  0  0  0
  160.0710  141.2122  184.0172 N   0  0  0  0  0  0  0  0  0  0  0  0
  162.1907  142.1909  185.5922 F   0  0  0  0  0  0  0  0  0  0  0  0
  160.9735  142.8505  185.6157 C   0  0  0  0  0  0  0  0  0  0  0  0
  161.0749  143.9760  184.8255 F   0  0  0  0  0  0  0  0  0  0  0  0
  160.7280  143.2708  186.9113 F   0  0  0  0  0  0  0  0  0  0  0  0
 36 37  1  0  0  0
 37 38  1  0  0  0
 37 39  1  0  0  0
 37 30  1  0  0  0
 30 31  2  0  0  0
 31 32  1  0  0  0
 32 33  2  0  0  0
 33 28  1  0  0  0
 28  1  1  0  0  0
  1  2  2  0  0  0
  2  3  1  0  0  0
  3  4  2  0  0  0
  4  5  1  0  0  0
  5  6  1  0  0  0
  6  7  1  0  0  0
  7  8  1  0  0  0
  8  9  1  0  0  0
  9 10  1  0  0  0
 10 11  1  0  0  0
  8 12  1  0  0  0
 12 13  2  0  0  0
 13 14  1  0  0  0
 14 15  2  0  0  0
 15 16  1  0  0  0
 16 17  2  0  0  0
 17 18  1  0  0  0
 18 19  1  0  0  0
 18 20  1  0  0  0
 18 21  1  0  0  0
  3 22  1  0  0  0
 22 23  1  0  0  0
 23 24  1  0  0  0
 24 25  1  0  0  0
 25 26  1  0  0  0
 26 27  1  0  0  0
 33 34  1  0  0  0
 34 35  2  0  0  0
 35 30  1  0  0  0
 11  1  1  0  0  0
 17 12  1  0  0  0
 27 22  1  0  0  0
 11  5  2  0  0  0
 28 29  1  0  0  0
M  END
> <minimizedAffinity>
-9.22105

> <CNNscore>
0.3356606662

> <CNNaffinity>
7.1680397987

> <CNN_VS>
2.4060289860

> <CNNaffinity_variance>
0.1467588693

$$$$
[H]c1nc(N2C([H])([H])C([H])([H])c3nc(N4C([H])([H])C([H])([H])C([H])([H])C([H])([H])C4([H])[H])nc(N([H])c4c([H])nc(C(F)(F)F)c([H])c4[H])c3C([H])([H])C2([H])[H])c(C(F)(F)F)c([H])c1[H]


 39 43  0  0  0  0  0  0  0  0999 V2000
  154.3449  139.0064  183.9025 C   0  0  0  0  0  0  0  0  0  0  0  0
  154.7324  138.7672  185.1769 N   0  0  0  0  0  0  0  0  0  0  0  0
  153.9865  138.0477  186.0483 C   0  0  0  0  0  0  0  0  0  0  0  0
  152.8143  137.5318  185.6912 N   0  0  0  0  0  0  0  0  0  0  0  0
  152.3492  137.7184  184.4408 C   0  0  0  0  0  0  0  0  0  0  0  0
  150.9926  137.1253  184.2772 C   0  0  0  0  0  0  0  0  0  0  0  0
  150.9939  136.1538  183.1397 C   0  0  0  0  0  0  0  0  0  0  0  0
  151.1831  136.8206  181.8481 N   0  0  0  0  0  0  0  0  0  0  0  0
  152.3325  137.4671  181.3579 C   0  0  0  0  0  0  0  0  0  0  0  0
  152.8249  138.6787  182.1262 C   0  0  0  0  0  0  0  0  0  0  0  0
  153.1088  138.4505  183.5424 C   0  0  0  0  0  0  0  0  0  0  0  0
  150.0208  136.7569  181.0110 C   0  0  0  0  0  0  0  0  0  0  0  0
  149.7228  135.5236  180.4784 N   0  0  0  0  0  0  0  0  0  0  0  0
  148.6575  135.3773  179.6747 C   0  0  0  0  0  0  0  0  0  0  0  0
  147.8728  136.4630  179.3888 C   0  0  0  0  0  0  0  0  0  0  0  0
  148.1577  137.6976  179.9076 C   0  0  0  0  0  0  0  0  0  0  0  0
  149.2700  137.8711  180.7570 C   0  0  0  0  0  0  0  0  0  0  0  0
  149.5326  139.1921  181.3319 C   0  0  0  0  0  0  0  0  0  0  0  0
  150.5440  139.9202  180.8144 F   0  0  0  0  0  0  0  0  0  0  0  0
  149.6349  139.1408  182.7347 F   0  0  0  0  0  0  0  0  0  0  0  0
  148.3683  139.9760  181.1591 F   0  0  0  0  0  0  0  0  0  0  0  0
  154.3447  137.8323  187.4126 N   0  0  0  0  0  0  0  0  0  0  0  0
  153.3768  138.0221  188.4875 C   0  0  0  0  0  0  0  0  0  0  0  0
  153.9044  137.3223  189.7219 C   0  0  0  0  0  0  0  0  0  0  0  0
  155.2200  137.9128  190.1774 C   0  0  0  0  0  0  0  0  0  0  0  0
  156.1909  138.0668  189.0341 C   0  0  0  0  0  0  0  0  0  0  0  0
  155.6677  137.3963  187.7933 C   0  0  0  0  0  0  0  0  0  0  0  0
  155.0711  139.8905  183.1196 N   0  0  0  0  0  0  0  0  0  0  0  0
  154.5794  140.1690  182.1957 H   0  0  0  0  0  0  0  0  0  0  0  0
  158.8599  141.5582  183.6819 C   0  0  0  0  0  0  0  0  0  0  0  0
  157.7376  142.2545  184.1229 C   0  0  0  0  0  0  0  0  0  0  0  0
  156.4654  141.7493  183.9439 C   0  0  0  0  0  0  0  0  0  0  0  0
  156.3022  140.5247  183.3160 C   0  0  0  0  0  0  0  0  0  0  0  0
  157.4511  139.8855  182.8997 C   0  0  0  0  0  0  0  0  0  0  0  0
  158.6795  140.3691  183.0713 N   0  0  0  0  0  0  0  0  0  0  0  0
  160.2572  143.4409  183.6134 F   0  0  0  0  0  0  0  0  0  0  0  0
  160.2252  142.0891  183.9113 C   0  0  0  0  0  0  0  0  0  0  0  0
  160.6214  141.9246  185.2218 F   0  0  0  0  0  0  0  0  0  0  0  0
  161.1508  141.4422  183.1111 F   0  0  0  0  0  0  0  0  0  0  0  0
 36 37  1  0  0  0
 37 38  1  0  0  0
 37 39  1  0  0  0
 37 30  1  0  0  0
 30 31  2  0  0  0
 31 32  1  0  0  0
 32 33  2  0  0  0
 33 28  1  0  0  0
 28  1  1  0  0  0
  1  2  2  0  0  0
  2  3  1  0  0  0
  3  4  2  0  0  0
  4  5  1  0  0  0
  5  6  1  0  0  0
  6  7  1  0  0  0
  7  8  1  0  0  0
  8  9  1  0  0  0
  9 10  1  0  0  0
 10 11  1  0  0  0
  8 12  1  0  0  0
 12 13  2  0  0  0
 13 14  1  0  0  0
 14 15  2  0  0  0
 15 16  1  0  0  0
 16 17  2  0  0  0
 17 18  1  0  0  0
 18 19  1  0  0  0
 18 20  1  0  0  0
 18 21  1  0  0  0
  3 22  1  0  0  0
 22 23  1  0  0  0
 23 24  1  0  0  0
 24 25  1  0  0  0
 25 26  1  0  0  0
 26 27  1  0  0  0
 33 34  1  0  0  0
 34 35  2  0  0  0
 35 30  1  0  0  0
 11  1  1  0  0  0
 17 12  1  0  0  0
 27 22  1  0  0  0
 11  5  2  0  0  0
 28 29  1  0  0  0
M  END
> <minimizedAffinity>
-8.36221

> <CNNscore>
0.3316438794

> <CNNaffinity>
6.9581046104

> <CNN_VS>
2.3076128960

> <CNNaffinity_variance>
0.0284833498

$$$$
[H]c1nc(N2C([H])([H])C([H])([H])c3nc(N4C([H])([H])C([H])([H])C([H])([H])C([H])([H])C4([H])[H])nc(N([H])c4c([H])nc(C(F)(F)F)c([H])c4[H])c3C([H])([H])C2([H])[H])c(C(F)(F)F)c([H])c1[H]


 39 43  0  0  0  0  0  0  0  0999 V2000
  154.4756  139.5107  182.9953 C   0  0  0  0  0  0  0  0  0  0  0  0
  153.3324  139.5444  182.2716 N   0  0  0  0  0  0  0  0  0  0  0  0
  152.2764  138.7370  182.5292 C   0  0  0  0  0  0  0  0  0  0  0  0
  152.3094  137.8534  183.5222 N   0  0  0  0  0  0  0  0  0  0  0  0
  153.4070  137.7508  184.2963 C   0  0  0  0  0  0  0  0  0  0  0  0
  153.2617  136.6535  185.2932 C   0  0  0  0  0  0  0  0  0  0  0  0
  153.4672  137.1887  186.6750 C   0  0  0  0  0  0  0  0  0  0  0  0
  154.8526  137.6113  186.8999 N   0  0  0  0  0  0  0  0  0  0  0  0
  155.5394  138.6975  186.3272 C   0  0  0  0  0  0  0  0  0  0  0  0
  155.7222  138.6836  184.8215 C   0  0  0  0  0  0  0  0  0  0  0  0
  154.4902  138.5764  184.0411 C   0  0  0  0  0  0  0  0  0  0  0  0
  155.5410  136.7869  187.8496 C   0  0  0  0  0  0  0  0  0  0  0  0
  156.4525  135.8952  187.3320 N   0  0  0  0  0  0  0  0  0  0  0  0
  157.1336  135.0778  188.1504 C   0  0  0  0  0  0  0  0  0  0  0  0
  156.9134  135.1371  189.5011 C   0  0  0  0  0  0  0  0  0  0  0  0
  156.0074  136.0160  190.0318 C   0  0  0  0  0  0  0  0  0  0  0  0
  155.2848  136.8858  189.1891 C   0  0  0  0  0  0  0  0  0  0  0  0
  154.3502  137.8445  189.7822 C   0  0  0  0  0  0  0  0  0  0  0  0
  154.4842  138.1340  191.0933 F   0  0  0  0  0  0  0  0  0  0  0  0
  153.0125  137.5215  189.4869 F   0  0  0  0  0  0  0  0  0  0  0  0
  154.5041  139.0739  189.1003 F   0  0  0  0  0  0  0  0  0  0  0  0
  151.0847  138.7119  181.7448 N   0  0  0  0  0  0  0  0  0  0  0  0
  151.0679  139.2232  180.3786 C   0  0  0  0  0  0  0  0  0  0  0  0
  149.8342  138.6792  179.6900 C   0  0  0  0  0  0  0  0  0  0  0  0
  148.5662  139.1433  180.3709 C   0  0  0  0  0  0  0  0  0  0  0  0
  148.6313  138.9548  181.8654 C   0  0  0  0  0  0  0  0  0  0  0  0
  149.8497  138.1620  182.2525 C   0  0  0  0  0  0  0  0  0  0  0  0
  155.5763  140.2399  182.5727 N   0  0  0  0  0  0  0  0  0  0  0  0
  155.4962  140.6135  181.5594 H   0  0  0  0  0  0  0  0  0  0  0  0
  158.9942  141.6064  184.5484 C   0  0  0  0  0  0  0  0  0  0  0  0
  159.0893  140.4974  183.7118 C   0  0  0  0  0  0  0  0  0  0  0  0
  157.9830  140.0015  183.0516 C   0  0  0  0  0  0  0  0  0  0  0  0
  156.7551  140.6208  183.2222 C   0  0  0  0  0  0  0  0  0  0  0  0
  156.7249  141.7119  184.0650 C   0  0  0  0  0  0  0  0  0  0  0  0
  157.7896  142.1935  184.7027 N   0  0  0  0  0  0  0  0  0  0  0  0
  161.3305  141.5302  184.7420 F   0  0  0  0  0  0  0  0  0  0  0  0
  160.1938  142.1564  185.2245 C   0  0  0  0  0  0  0  0  0  0  0  0
  160.3217  143.5125  185.0099 F   0  0  0  0  0  0  0  0  0  0  0  0
  160.1295  141.9545  186.5923 F   0  0  0  0  0  0  0  0  0  0  0  0
 36 37  1  0  0  0
 37 38  1  0  0  0
 37 39  1  0  0  0
 37 30  1  0  0  0
 30 31  2  0  0  0
 31 32  1  0  0  0
 32 33  2  0  0  0
 33 28  1  0  0  0
 28  1  1  0  0  0
  1  2  2  0  0  0
  2  3  1  0  0  0
  3  4  2  0  0  0
  4  5  1  0  0  0
  5  6  1  0  0  0
  6  7  1  0  0  0
  7  8  1  0  0  0
  8  9  1  0  0  0
  9 10  1  0  0  0
 10 11  1  0  0  0
  8 12  1  0  0  0
 12 13  2  0  0  0
 13 14  1  0  0  0
 14 15  2  0  0  0
 15 16  1  0  0  0
 16 17  2  0  0  0
 17 18  1  0  0  0
 18 19  1  0  0  0
 18 20  1  0  0  0
 18 21  1  0  0  0
  3 22  1  0  0  0
 22 23  1  0  0  0
 23 24  1  0  0  0
 24 25  1  0  0  0
 25 26  1  0  0  0
 26 27  1  0  0  0
 33 34  1  0  0  0
 34 35  2  0  0  0
 35 30  1  0  0  0
 11  1  1  0  0  0
 17 12  1  0  0  0
 27 22  1  0  0  0
 11  5  2  0  0  0
 28 29  1  0  0  0
M  END
> <minimizedAffinity>
-9.00163

> <CNNscore>
0.3001863360

> <CNNaffinity>
7.1148834229

> <CNN_VS>
2.1357908249

> <CNNaffinity_variance>
0.0426835008

$$$$
[H]c1nc(N2C([H])([H])C([H])([H])c3nc(N4C([H])([H])C([H])([H])C([H])([H])C([H])([H])C4([H])[H])nc(N([H])c4c([H])nc(C(F)(F)F)c([H])c4[H])c3C([H])([H])C2([H])[H])c(C(F)(F)F)c([H])c1[H]


 39 43  0  0  0  0  0  0  0  0999 V2000
  152.9239  135.9091  185.7155 C   0  0  0  0  0  0  0  0  0  0  0  0
  151.5914  135.7146  185.5811 N   0  0  0  0  0  0  0  0  0  0  0  0
  150.8947  134.8465  186.3520 C   0  0  0  0  0  0  0  0  0  0  0  0
  151.4943  134.1270  187.2958 N   0  0  0  0  0  0  0  0  0  0  0  0
  152.8193  134.2564  187.5014 C   0  0  0  0  0  0  0  0  0  0  0  0
  153.2967  133.3085  188.5466 C   0  0  0  0  0  0  0  0  0  0  0  0
  153.9900  134.0598  189.6388 C   0  0  0  0  0  0  0  0  0  0  0  0
  155.2490  134.6554  189.1822 N   0  0  0  0  0  0  0  0  0  0  0  0
  155.4372  135.7122  188.2727 C   0  0  0  0  0  0  0  0  0  0  0  0
  154.9516  135.4965  186.8520 C   0  0  0  0  0  0  0  0  0  0  0  0
  153.5382  135.1457  186.7188 C   0  0  0  0  0  0  0  0  0  0  0  0
  156.4023  134.0573  189.7887 C   0  0  0  0  0  0  0  0  0  0  0  0
  156.9139  132.9469  189.1569 N   0  0  0  0  0  0  0  0  0  0  0  0
  157.9865  132.3188  189.6637 C   0  0  0  0  0  0  0  0  0  0  0  0
  158.5651  132.7898  190.8125 C   0  0  0  0  0  0  0  0  0  0  0  0
  158.0662  133.8910  191.4552 C   0  0  0  0  0  0  0  0  0  0  0  0
  156.9426  134.5673  190.9366 C   0  0  0  0  0  0  0  0  0  0  0  0
  156.4504  135.7658  191.6190 C   0  0  0  0  0  0  0  0  0  0  0  0
  157.0422  136.1252  192.7773 F   0  0  0  0  0  0  0  0  0  0  0  0
  155.0514  135.7437  191.7708 F   0  0  0  0  0  0  0  0  0  0  0  0
  156.6251  136.8622  190.7429 F   0  0  0  0  0  0  0  0  0  0  0  0
  149.5023  134.5801  186.1902 N   0  0  0  0  0  0  0  0  0  0  0  0
  148.9258  133.3010  186.5898 C   0  0  0  0  0  0  0  0  0  0  0  0
  147.4260  133.4767  186.6986 C   0  0  0  0  0  0  0  0  0  0  0  0
  146.8128  133.8636  185.3715 C   0  0  0  0  0  0  0  0  0  0  0  0
  147.5683  134.9897  184.7123 C   0  0  0  0  0  0  0  0  0  0  0  0
  148.5961  135.5650  185.6479 C   0  0  0  0  0  0  0  0  0  0  0  0
  153.6016  136.6809  184.7844 N   0  0  0  0  0  0  0  0  0  0  0  0
  154.6586  136.7952  184.9905 H   0  0  0  0  0  0  0  0  0  0  0  0
  152.3390  138.7663  181.3918 C   0  0  0  0  0  0  0  0  0  0  0  0
  152.2372  137.3778  181.4141 C   0  0  0  0  0  0  0  0  0  0  0  0
  152.6569  136.6466  182.5073 C   0  0  0  0  0  0  0  0  0  0  0  0
  153.1867  137.3070  183.6044 C   0  0  0  0  0  0  0  0  0  0  0  0
  153.2639  138.6813  183.5206 C   0  0  0  0  0  0  0  0  0  0  0  0
  152.8595  139.3899  182.4686 N   0  0  0  0  0  0  0  0  0  0  0  0
  152.9244  139.9433  179.4492 F   0  0  0  0  0  0  0  0  0  0  0  0
  151.8514  139.5477  180.2298 C   0  0  0  0  0  0  0  0  0  0  0  0
  150.9928  138.8084  179.4438 F   0  0  0  0  0  0  0  0  0  0  0  0
  151.1694  140.6791  180.6429 F   0  0  0  0  0  0  0  0  0  0  0  0
 36 37  1  0  0  0
 37 38  1  0  0  0
 37 39  1  0  0  0
 37 30  1  0  0  0
 30 31  2  0  0  0
 31 32  1  0  0  0
 32 33  2  0  0  0
 33 28  1  0  0  0
 28  1  1  0  0  0
  1  2  2  0  0  0
  2  3  1  0  0  0
  3  4  2  0  0  0
  4  5  1  0  0  0
  5  6  1  0  0  0
  6  7  1  0  0  0
  7  8  1  0  0  0
  8  9  1  0  0  0
  9 10  1  0  0  0
 10 11  1  0  0  0
  8 12  1  0  0  0
 12 13  2  0  0  0
 13 14  1  0  0  0
 14 15  2  0  0  0
 15 16  1  0  0  0
 16 17  2  0  0  0
 17 18  1  0  0  0
 18 19  1  0  0  0
 18 20  1  0  0  0
 18 21  1  0  0  0
  3 22  1  0  0  0
 22 23  1  0  0  0
 23 24  1  0  0  0
 24 25  1  0  0  0
 25 26  1  0  0  0
 26 27  1  0  0  0
 33 34  1  0  0  0
 34 35  2  0  0  0
 35 30  1  0  0  0
 11  1  1  0  0  0
 17 12  1  0  0  0
 27 22  1  0  0  0
 11  5  2  0  0  0
 28 29  1  0  0  0
M  END
> <minimizedAffinity>
-5.82975

> <CNNscore>
0.2979284823

> <CNNaffinity>
6.2579741478

> <CNN_VS>
1.8644287586

> <CNNaffinity_variance>
0.2853088379

$$$$
[H]c1nc(N2C([H])([H])C([H])([H])c3nc(N4C([H])([H])C([H])([H])OC([H])([H])C4([H])[H])nc(N([H])c4c([H])c([H])c(C(F)(F)F)c(Cl)c4[H])c3C([H])([H])C2([H])[H])c(C(F)(F)F)c([H])c1[H]


 40 44  0  0  0  0  0  0  0  0999 V2000
  154.3734  138.7020  184.3726 C   0  0  0  0  0  0  0  0  0  0  0  0
  155.4275  139.5230  184.3870 N   0  0  0  0  0  0  0  0  0  0  0  0
  155.7318  140.4673  183.4991 C   0  0  0  0  0  0  0  0  0  0  0  0
  154.8709  140.6021  182.4735 N   0  0  0  0  0  0  0  0  0  0  0  0
  153.7835  139.8213  182.3745 C   0  0  0  0  0  0  0  0  0  0  0  0
  152.9497  140.1939  181.1770 C   0  0  0  0  0  0  0  0  0  0  0  0
  151.5214  140.3624  181.7003 C   0  0  0  0  0  0  0  0  0  0  0  0
  150.9410  139.0611  181.8682 N   0  0  0  0  0  0  0  0  0  0  0  0
  151.6502  137.8283  182.0293 C   0  0  0  0  0  0  0  0  0  0  0  0
  152.3751  137.8527  183.3595 C   0  0  0  0  0  0  0  0  0  0  0  0
  153.4886  138.8557  183.2932 C   0  0  0  0  0  0  0  0  0  0  0  0
  149.5274  138.9398  181.8715 C   0  0  0  0  0  0  0  0  0  0  0  0
  148.8490  138.9588  183.0580 N   0  0  0  0  0  0  0  0  0  0  0  0
  147.5367  138.8813  183.1507 C   0  0  0  0  0  0  0  0  0  0  0  0
  146.8118  138.7758  181.9919 C   0  0  0  0  0  0  0  0  0  0  0  0
  147.4496  138.7526  180.7816 C   0  0  0  0  0  0  0  0  0  0  0  0
  148.8406  138.8342  180.6853 C   0  0  0  0  0  0  0  0  0  0  0  0
  149.4561  138.7696  179.3456 C   0  0  0  0  0  0  0  0  0  0  0  0
  148.4075  138.6791  178.4106 F   0  0  0  0  0  0  0  0  0  0  0  0
  150.1921  137.6182  179.1327 F   0  0  0  0  0  0  0  0  0  0  0  0
  150.1419  139.8990  178.9679 F   0  0  0  0  0  0  0  0  0  0  0  0
  156.8984  141.2827  183.6297 N   0  0  0  0  0  0  0  0  0  0  0  0
  157.7816  141.0557  184.7352 C   0  0  0  0  0  0  0  0  0  0  0  0
  159.1842  141.4358  184.2976 C   0  0  0  0  0  0  0  0  0  0  0  0
  159.1449  142.7358  183.8408 O   0  0  0  0  0  0  0  0  0  0  0  0
  158.5475  142.7658  182.5779 C   0  0  0  0  0  0  0  0  0  0  0  0
  157.1117  142.2985  182.6205 C   0  0  0  0  0  0  0  0  0  0  0  0
  154.0941  137.7556  185.3636 N   0  0  0  0  0  0  0  0  0  0  0  0
  153.6133  136.8625  185.0675 H   0  0  0  0  0  0  0  0  0  0  0  0
  155.0799  137.9952  189.4650 C   0  0  0  0  0  0  0  0  0  0  0  0
  154.0257  138.7367  188.9924 C   0  0  0  0  0  0  0  0  0  0  0  0
  153.6836  138.6591  187.6334 C   0  0  0  0  0  0  0  0  0  0  0  0
  154.3554  137.8738  186.7458 C   0  0  0  0  0  0  0  0  0  0  0  0
  155.4288  137.1330  187.2825 C   0  0  0  0  0  0  0  0  0  0  0  0
  155.7855  137.1833  188.5851 C   0  0  0  0  0  0  0  0  0  0  0  0
  157.1182  136.2678  189.2674 Cl  0  0  0  0  0  0  0  0  0  0  0  0
  155.0388  136.9392  191.5352 F   0  0  0  0  0  0  0  0  0  0  0  0
  155.4478  138.0694  190.8912 C   0  0  0  0  0  0  0  0  0  0  0  0
  154.8064  139.1458  191.5173 F   0  0  0  0  0  0  0  0  0  0  0  0
  156.8282  138.2354  191.0553 F   0  0  0  0  0  0  0  0  0  0  0  0
 37 38  1  0  0  0
 38 39  1  0  0  0
 38 40  1  0  0  0
 38 30  1  0  0  0
 30 31  2  0  0  0
 31 32  1  0  0  0
 32 33  2  0  0  0
 33 28  1  0  0  0
 28  1  1  0  0  0
  1  2  2  0  0  0
  2  3  1  0  0  0
  3  4  2  0  0  0
  4  5  1  0  0  0
  5  6  1  0  0  0
  6  7  1  0  0  0
  7  8  1  0  0  0
  8  9  1  0  0  0
  9 10  1  0  0  0
 10 11  1  0  0  0
  8 12  1  0  0  0
 12 13  2  0  0  0
 13 14  1  0  0  0
 14 15  2  0  0  0
 15 16  1  0  0  0
 16 17  2  0  0  0
 17 18  1  0  0  0
 18 19  1  0  0  0
 18 20  1  0  0  0
 18 21  1  0  0  0
  3 22  1  0  0  0
 22 23  1  0  0  0
 23 24  1  0  0  0
 24 25  1  0  0  0
 25 26  1  0  0  0
 26 27  1  0  0  0
 33 34  1  0  0  0
 34 35  2  0  0  0
 35 36  1  0  0  0
 35 30  1  0  0  0
 11  1  1  0  0  0
 17 12  1  0  0  0
 27 22  1  0  0  0
 11  5  2  0  0  0
 28 29  1  0  0  0
M  END
> <minimizedAffinity>
-9.73980

> <CNNscore>
0.4168921709

> <CNNaffinity>
7.0179796219

> <CNN_VS>
2.9257407188

> <CNNaffinity_variance>
0.0226146709

$$$$
[H]c1nc(N2C([H])([H])C([H])([H])c3nc(N4C([H])([H])C([H])([H])OC([H])([H])C4([H])[H])nc(N([H])c4c([H])c([H])c(C(F)(F)F)c(Cl)c4[H])c3C([H])([H])C2([H])[H])c(C(F)(F)F)c([H])c1[H]


 40 44  0  0  0  0  0  0  0  0999 V2000
  154.6601  138.5674  184.5054 C   0  0  0  0  0  0  0  0  0  0  0  0
  153.8376  138.9076  183.5088 N   0  0  0  0  0  0  0  0  0  0  0  0
  152.6325  138.4064  183.2452 C   0  0  0  0  0  0  0  0  0  0  0  0
  152.2033  137.4478  184.0867 N   0  0  0  0  0  0  0  0  0  0  0  0
  152.9610  137.0401  185.1170 C   0  0  0  0  0  0  0  0  0  0  0  0
  152.2486  136.0016  185.9428 C   0  0  0  0  0  0  0  0  0  0  0  0
  152.3453  136.4840  187.3920 C   0  0  0  0  0  0  0  0  0  0  0  0
  153.6552  136.1748  187.8889 N   0  0  0  0  0  0  0  0  0  0  0  0
  154.8293  135.9424  187.1037 C   0  0  0  0  0  0  0  0  0  0  0  0
  155.2201  137.2349  186.4163 C   0  0  0  0  0  0  0  0  0  0  0  0
  154.1961  137.5634  185.3705 C   0  0  0  0  0  0  0  0  0  0  0  0
  153.8463  136.0710  189.2909 C   0  0  0  0  0  0  0  0  0  0  0  0
  153.5587  134.8965  189.9283 N   0  0  0  0  0  0  0  0  0  0  0  0
  153.7337  134.7045  191.2203 C   0  0  0  0  0  0  0  0  0  0  0  0
  154.2322  135.7410  191.9663 C   0  0  0  0  0  0  0  0  0  0  0  0
  154.5336  136.9348  191.3697 C   0  0  0  0  0  0  0  0  0  0  0  0
  154.3468  137.1368  190.0004 C   0  0  0  0  0  0  0  0  0  0  0  0
  154.6647  138.4632  189.4371 C   0  0  0  0  0  0  0  0  0  0  0  0
  154.7353  139.3662  190.5148 F   0  0  0  0  0  0  0  0  0  0  0  0
  153.6601  138.9771  188.6376 F   0  0  0  0  0  0  0  0  0  0  0  0
  155.8996  138.5591  188.8416 F   0  0  0  0  0  0  0  0  0  0  0  0
  151.8488  138.8592  182.1391 N   0  0  0  0  0  0  0  0  0  0  0  0
  152.3836  139.8751  181.2813 C   0  0  0  0  0  0  0  0  0  0  0  0
  151.8109  139.6619  179.8921 C   0  0  0  0  0  0  0  0  0  0  0  0
  150.4366  139.6547  180.0000 O   0  0  0  0  0  0  0  0  0  0  0  0
  150.0211  138.4412  180.5547 C   0  0  0  0  0  0  0  0  0  0  0  0
  150.5475  138.2514  181.9578 C   0  0  0  0  0  0  0  0  0  0  0  0
  155.9008  139.1659  184.7464 N   0  0  0  0  0  0  0  0  0  0  0  0
  156.4180  138.8864  185.6245 H   0  0  0  0  0  0  0  0  0  0  0  0
  158.0154  142.0015  182.4359 C   0  0  0  0  0  0  0  0  0  0  0  0
  156.6561  141.8965  182.2748 C   0  0  0  0  0  0  0  0  0  0  0  0
  155.9417  140.9637  183.0427 C   0  0  0  0  0  0  0  0  0  0  0  0
  156.5380  140.1444  183.9532 C   0  0  0  0  0  0  0  0  0  0  0  0
  157.9347  140.2929  184.0797 C   0  0  0  0  0  0  0  0  0  0  0  0
  158.6539  141.1801  183.3573 C   0  0  0  0  0  0  0  0  0  0  0  0
  160.3917  141.3764  183.5036 Cl  0  0  0  0  0  0  0  0  0  0  0  0
  159.4059  143.8638  182.4572 F   0  0  0  0  0  0  0  0  0  0  0  0
  158.7756  142.9782  181.6341 C   0  0  0  0  0  0  0  0  0  0  0  0
  157.9201  143.7261  180.8151 F   0  0  0  0  0  0  0  0  0  0  0  0
  159.7147  142.3443  180.8116 F   0  0  0  0  0  0  0  0  0  0  0  0
 37 38  1  0  0  0
 38 39  1  0  0  0
 38 40  1  0  0  0
 38 30  1  0  0  0
 30 31  2  0  0  0
 31 32  1  0  0  0
 32 33  2  0  0  0
 33 28  1  0  0  0
 28  1  1  0  0  0
  1  2  2  0  0  0
  2  3  1  0  0  0
  3  4  2  0  0  0
  4  5  1  0  0  0
  5  6  1  0  0  0
  6  7  1  0  0  0
  7  8  1  0  0  0
  8  9  1  0  0  0
  9 10  1  0  0  0
 10 11  1  0  0  0
  8 12  1  0  0  0
 12 13  2  0  0  0
 13 14  1  0  0  0
 14 15  2  0  0  0
 15 16  1  0  0  0
 16 17  2  0  0  0
 17 18  1  0  0  0
 18 19  1  0  0  0
 18 20  1  0  0  0
 18 21  1  0  0  0
  3 22  1  0  0  0
 22 23  1  0  0  0
 23 24  1  0  0  0
 24 25  1  0  0  0
 25 26  1  0  0  0
 26 27  1  0  0  0
 33 34  1  0  0  0
 34 35  2  0  0  0
 35 36  1  0  0  0
 35 30  1  0  0  0
 11  1  1  0  0  0
 17 12  1  0  0  0
 27 22  1  0  0  0
 11  5  2  0  0  0
 28 29  1  0  0  0
M  END
> <minimizedAffinity>
-9.60454

> <CNNscore>
0.4166674912

> <CNNaffinity>
7.0679564476

> <CNN_VS>
2.9449877739

> <CNNaffinity_variance>
0.0688164160

$$$$
[H]c1nc(N2C([H])([H])C([H])([H])c3nc(N4C([H])([H])C([H])([H])OC([H])([H])C4([H])[H])nc(N([H])c4c([H])c([H])c(C(F)(F)F)c(Cl)c4[H])c3C([H])([H])C2([H])[H])c(C(F)(F)F)c([H])c1[H]


 40 44  0  0  0  0  0  0  0  0999 V2000
  154.7260  138.7113  184.4695 C   0  0  0  0  0  0  0  0  0  0  0  0
  153.8841  139.0513  183.4892 N   0  0  0  0  0  0  0  0  0  0  0  0
  152.6958  138.5149  183.2187 C   0  0  0  0  0  0  0  0  0  0  0  0
  152.3079  137.5166  184.0336 N   0  0  0  0  0  0  0  0  0  0  0  0
  153.0878  137.1058  185.0459 C   0  0  0  0  0  0  0  0  0  0  0  0
  152.4197  136.0179  185.8446 C   0  0  0  0  0  0  0  0  0  0  0  0
  152.5102  136.4596  187.3071 C   0  0  0  0  0  0  0  0  0  0  0  0
  153.8343  136.1832  187.7856 N   0  0  0  0  0  0  0  0  0  0  0  0
  155.0098  136.0173  186.9859 C   0  0  0  0  0  0  0  0  0  0  0  0
  155.3484  137.3431  186.3354 C   0  0  0  0  0  0  0  0  0  0  0  0
  154.3052  137.6657  185.3069 C   0  0  0  0  0  0  0  0  0  0  0  0
  154.0398  136.0443  189.1825 C   0  0  0  0  0  0  0  0  0  0  0  0
  153.8192  134.8362  189.7825 N   0  0  0  0  0  0  0  0  0  0  0  0
  154.0127  134.6119  191.0667 C   0  0  0  0  0  0  0  0  0  0  0  0
  154.4604  135.6487  191.8438 C   0  0  0  0  0  0  0  0  0  0  0  0
  154.6940  136.8757  191.2851 C   0  0  0  0  0  0  0  0  0  0  0  0
  154.4878  137.1118  189.9240 C   0  0  0  0  0  0  0  0  0  0  0  0
  154.7310  138.4708  189.4030 C   0  0  0  0  0  0  0  0  0  0  0  0
  154.7785  139.3382  190.5108 F   0  0  0  0  0  0  0  0  0  0  0  0
  153.6881  138.9627  188.6396 F   0  0  0  0  0  0  0  0  0  0  0  0
  155.9484  138.6471  188.7903 F   0  0  0  0  0  0  0  0  0  0  0  0
  151.8877  138.9721  182.1320 N   0  0  0  0  0  0  0  0  0  0  0  0
  152.4281  139.9444  181.2285 C   0  0  0  0  0  0  0  0  0  0  0  0
  151.7932  139.7209  179.8682 C   0  0  0  0  0  0  0  0  0  0  0  0
  150.4251  139.7720  180.0288 O   0  0  0  0  0  0  0  0  0  0  0  0
  149.9841  138.5901  180.6301 C   0  0  0  0  0  0  0  0  0  0  0  0
  150.5573  138.4132  182.0164 C   0  0  0  0  0  0  0  0  0  0  0  0
  155.9462  139.3469  184.7204 N   0  0  0  0  0  0  0  0  0  0  0  0
  156.3664  139.2393  185.6839 H   0  0  0  0  0  0  0  0  0  0  0  0
  158.0087  141.9618  182.1205 C   0  0  0  0  0  0  0  0  0  0  0  0
  158.4995  140.6941  182.3117 C   0  0  0  0  0  0  0  0  0  0  0  0
  157.8184  139.8137  183.1668 C   0  0  0  0  0  0  0  0  0  0  0  0
  156.6780  140.1589  183.8272 C   0  0  0  0  0  0  0  0  0  0  0  0
  156.2166  141.4713  183.5957 C   0  0  0  0  0  0  0  0  0  0  0  0
  156.8465  142.3449  182.7794 C   0  0  0  0  0  0  0  0  0  0  0  0
  156.2849  143.9806  182.4816 Cl  0  0  0  0  0  0  0  0  0  0  0  0
  157.8773  143.3142  180.2348 F   0  0  0  0  0  0  0  0  0  0  0  0
  158.7164  142.8948  181.2243 C   0  0  0  0  0  0  0  0  0  0  0  0
  159.7969  142.2619  180.5965 F   0  0  0  0  0  0  0  0  0  0  0  0
  159.2126  144.0003  181.9255 F   0  0  0  0  0  0  0  0  0  0  0  0
 37 38  1  0  0  0
 38 39  1  0  0  0
 38 40  1  0  0  0
 38 30  1  0  0  0
 30 31  2  0  0  0
 31 32  1  0  0  0
 32 33  2  0  0  0
 33 28  1  0  0  0
 28  1  1  0  0  0
  1  2  2  0  0  0
  2  3  1  0  0  0
  3  4  2  0  0  0
  4  5  1  0  0  0
  5  6  1  0  0  0
  6  7  1  0  0  0
  7  8  1  0  0  0
  8  9  1  0  0  0
  9 10  1  0  0  0
 10 11  1  0  0  0
  8 12  1  0  0  0
 12 13  2  0  0  0
 13 14  1  0  0  0
 14 15  2  0  0  0
 15 16  1  0  0  0
 16 17  2  0  0  0
 17 18  1  0  0  0
 18 19  1  0  0  0
 18 20  1  0  0  0
 18 21  1  0  0  0
  3 22  1  0  0  0
 22 23  1  0  0  0
 23 24  1  0  0  0
 24 25  1  0  0  0
 25 26  1  0  0  0
 26 27  1  0  0  0
 33 34  1  0  0  0
 34 35  2  0  0  0
 35 36  1  0  0  0
 35 30  1  0  0  0
 11  1  1  0  0  0
 17 12  1  0  0  0
 27 22  1  0  0  0
 11  5  2  0  0  0
 28 29  1  0  0  0
M  END
> <minimizedAffinity>
-9.65150

> <CNNscore>
0.3944210410

> <CNNaffinity>
7.0021119118

> <CNN_VS>
2.7617802620

> <CNNaffinity_variance>
0.1215893850

$$$$
[H]c1nc(N2C([H])([H])C([H])([H])c3nc(N4C([H])([H])C([H])([H])OC([H])([H])C4([H])[H])nc(N([H])c4c([H])c([H])c(C(F)(F)F)c(Cl)c4[H])c3C([H])([H])C2([H])[H])c(C(F)(F)F)c([H])c1[H]


 40 44  0  0  0  0  0  0  0  0999 V2000
  153.5506  138.0421  183.9676 C   0  0  0  0  0  0  0  0  0  0  0  0
  152.4648  137.7456  183.2474 N   0  0  0  0  0  0  0  0  0  0  0  0
  151.9055  138.4767  182.2854 C   0  0  0  0  0  0  0  0  0  0  0  0
  152.5128  139.6469  182.0150 N   0  0  0  0  0  0  0  0  0  0  0  0
  153.6097  140.0299  182.6874 C   0  0  0  0  0  0  0  0  0  0  0  0
  154.1355  141.3441  182.1734 C   0  0  0  0  0  0  0  0  0  0  0  0
  155.6258  141.1206  181.9065 C   0  0  0  0  0  0  0  0  0  0  0  0
  156.3261  141.1762  183.1575 N   0  0  0  0  0  0  0  0  0  0  0  0
  155.7643  140.9629  184.4565 C   0  0  0  0  0  0  0  0  0  0  0  0
  155.3428  139.5123  184.5736 C   0  0  0  0  0  0  0  0  0  0  0  0
  154.1680  139.2684  183.6733 C   0  0  0  0  0  0  0  0  0  0  0  0
  157.7123  141.4783  183.1505 C   0  0  0  0  0  0  0  0  0  0  0  0
  158.6141  140.5296  183.5444 N   0  0  0  0  0  0  0  0  0  0  0  0
  159.9188  140.7156  183.5412 C   0  0  0  0  0  0  0  0  0  0  0  0
  160.3979  141.9286  183.1190 C   0  0  0  0  0  0  0  0  0  0  0  0
  159.5312  142.9077  182.7161 C   0  0  0  0  0  0  0  0  0  0  0  0
  158.1487  142.7092  182.7208 C   0  0  0  0  0  0  0  0  0  0  0  0
  157.2782  143.8251  182.3028 C   0  0  0  0  0  0  0  0  0  0  0  0
  158.0164  145.0123  182.4682 F   0  0  0  0  0  0  0  0  0  0  0  0
  156.1774  144.0010  183.1212 F   0  0  0  0  0  0  0  0  0  0  0  0
  156.9384  143.8275  180.9713 F   0  0  0  0  0  0  0  0  0  0  0  0
  150.7358  138.0437  181.5875 N   0  0  0  0  0  0  0  0  0  0  0  0
  150.0689  138.9651  180.7156 C   0  0  0  0  0  0  0  0  0  0  0  0
  149.4124  138.1652  179.6055 C   0  0  0  0  0  0  0  0  0  0  0  0
  148.5951  137.2229  180.1922 O   0  0  0  0  0  0  0  0  0  0  0  0
  149.3787  136.1923  180.7182 C   0  0  0  0  0  0  0  0  0  0  0  0
  150.2972  136.6826  181.8126 C   0  0  0  0  0  0  0  0  0  0  0  0
  154.1078  137.2055  184.9398 N   0  0  0  0  0  0  0  0  0  0  0  0
  154.3970  136.2333  184.6432 H   0  0  0  0  0  0  0  0  0  0  0  0
  154.8947  137.9934  189.0155 C   0  0  0  0  0  0  0  0  0  0  0  0
  153.8347  138.6228  188.4114 C   0  0  0  0  0  0  0  0  0  0  0  0
  153.5585  138.3628  187.0601 C   0  0  0  0  0  0  0  0  0  0  0  0
  154.3008  137.5049  186.3058 C   0  0  0  0  0  0  0  0  0  0  0  0
  155.3768  136.8850  186.9741 C   0  0  0  0  0  0  0  0  0  0  0  0
  155.6713  137.1116  188.2734 C   0  0  0  0  0  0  0  0  0  0  0  0
  157.0065  136.3481  189.1185 Cl  0  0  0  0  0  0  0  0  0  0  0  0
  154.5816  139.4121  190.8297 F   0  0  0  0  0  0  0  0  0  0  0  0
  155.1937  138.2595  190.4348 C   0  0  0  0  0  0  0  0  0  0  0  0
  156.5684  138.4447  190.6296 F   0  0  0  0  0  0  0  0  0  0  0  0
  154.7814  137.1998  191.2516 F   0  0  0  0  0  0  0  0  0  0  0  0
 37 38  1  0  0  0
 38 39  1  0  0  0
 38 40  1  0  0  0
 38 30  1  0  0  0
 30 31  2  0  0  0
 31 32  1  0  0  0
 32 33  2  0  0  0
 33 28  1  0  0  0
 28  1  1  0  0  0
  1  2  2  0  0  0
  2  3  1  0  0  0
  3  4  2  0  0  0
  4  5  1  0  0  0
  5  6  1  0  0  0
  6  7  1  0  0  0
  7  8  1  0  0  0
  8  9  1  0  0  0
  9 10  1  0  0  0
 10 11  1  0  0  0
  8 12  1  0  0  0
 12 13  2  0  0  0
 13 14  1  0  0  0
 14 15  2  0  0  0
 15 16  1  0  0  0
 16 17  2  0  0  0
 17 18  1  0  0  0
 18 19  1  0  0  0
 18 20  1  0  0  0
 18 21  1  0  0  0
  3 22  1  0  0  0
 22 23  1  0  0  0
 23 24  1  0  0  0
 24 25  1  0  0  0
 25 26  1  0  0  0
 26 27  1  0  0  0
 33 34  1  0  0  0
 34 35  2  0  0  0
 35 36  1  0  0  0
 35 30  1  0  0  0
 11  1  1  0  0  0
 17 12  1  0  0  0
 27 22  1  0  0  0
 11  5  2  0  0  0
 28 29  1  0  0  0
M  END
> <minimizedAffinity>
-9.72079

> <CNNscore>
0.3701308966

> <CNNaffinity>
7.2967743874

> <CNN_VS>
2.7007615566

> <CNNaffinity_variance>
0.1122706309

$$$$
[H]c1nc(N2C([H])([H])C([H])([H])c3nc(N4C([H])([H])C([H])([H])OC([H])([H])C4([H])[H])nc(N([H])c4c([H])c([H])c(C(F)(F)F)c(Cl)c4[H])c3C([H])([H])C2([H])[H])c(C(F)(F)F)c([H])c1[H]


 40 44  0  0  0  0  0  0  0  0999 V2000
  154.1666  139.9614  183.7352 C   0  0  0  0  0  0  0  0  0  0  0  0
  153.2331  139.7476  182.8033 N   0  0  0  0  0  0  0  0  0  0  0  0
  152.5313  138.6347  182.5992 C   0  0  0  0  0  0  0  0  0  0  0  0
  152.8010  137.6142  183.4341 N   0  0  0  0  0  0  0  0  0  0  0  0
  153.7238  137.7357  184.4014 C   0  0  0  0  0  0  0  0  0  0  0  0
  153.8098  136.4850  185.2357 C   0  0  0  0  0  0  0  0  0  0  0  0
  153.7077  136.9474  186.6910 C   0  0  0  0  0  0  0  0  0  0  0  0
  154.9830  137.4659  187.0950 N   0  0  0  0  0  0  0  0  0  0  0  0
  156.0143  137.9548  186.2312 C   0  0  0  0  0  0  0  0  0  0  0  0
  155.5295  139.2254  185.5631 C   0  0  0  0  0  0  0  0  0  0  0  0
  154.4362  138.8840  184.5944 C   0  0  0  0  0  0  0  0  0  0  0  0
  155.2956  137.5071  188.4783 C   0  0  0  0  0  0  0  0  0  0  0  0
  154.8310  138.5374  189.2471 N   0  0  0  0  0  0  0  0  0  0  0  0
  155.0491  138.6384  190.5428 C   0  0  0  0  0  0  0  0  0  0  0  0
  155.7832  137.6546  191.1534 C   0  0  0  0  0  0  0  0  0  0  0  0
  156.2685  136.6048  190.4223 C   0  0  0  0  0  0  0  0  0  0  0  0
  156.0369  136.4998  189.0490 C   0  0  0  0  0  0  0  0  0  0  0  0
  156.6215  135.3548  188.3245 C   0  0  0  0  0  0  0  0  0  0  0  0
  157.1556  134.4809  189.2903 F   0  0  0  0  0  0  0  0  0  0  0  0
  157.7116  135.6952  187.5445 F   0  0  0  0  0  0  0  0  0  0  0  0
  155.7169  134.5799  187.6390 F   0  0  0  0  0  0  0  0  0  0  0  0
  151.5559  138.5338  181.5593 N   0  0  0  0  0  0  0  0  0  0  0  0
  150.3079  137.8881  181.8409 C   0  0  0  0  0  0  0  0  0  0  0  0
  149.2464  138.5192  180.9587 C   0  0  0  0  0  0  0  0  0  0  0  0
  149.6719  138.4196  179.6514 O   0  0  0  0  0  0  0  0  0  0  0  0
  150.6810  139.3581  179.4191 C   0  0  0  0  0  0  0  0  0  0  0  0
  151.9005  139.0996  180.2722 C   0  0  0  0  0  0  0  0  0  0  0  0
  154.8389  141.1740  183.9179 N   0  0  0  0  0  0  0  0  0  0  0  0
  154.5846  141.7533  184.7643 H   0  0  0  0  0  0  0  0  0  0  0  0
  157.8069  142.6483  181.2972 C   0  0  0  0  0  0  0  0  0  0  0  0
  156.9375  143.5363  181.8805 C   0  0  0  0  0  0  0  0  0  0  0  0
  155.9524  143.0592  182.7592 C   0  0  0  0  0  0  0  0  0  0  0  0
  155.8129  141.7394  183.0668 C   0  0  0  0  0  0  0  0  0  0  0  0
  156.7308  140.8704  182.4414 C   0  0  0  0  0  0  0  0  0  0  0  0
  157.6914  141.2949  181.5909 C   0  0  0  0  0  0  0  0  0  0  0  0
  158.8404  140.2260  180.8053 Cl  0  0  0  0  0  0  0  0  0  0  0  0
  160.0482  142.5779  180.6857 F   0  0  0  0  0  0  0  0  0  0  0  0
  158.8456  143.1389  180.3725 C   0  0  0  0  0  0  0  0  0  0  0  0
  159.0041  144.5258  180.4895 F   0  0  0  0  0  0  0  0  0  0  0  0
  158.5213  142.8529  179.0409 F   0  0  0  0  0  0  0  0  0  0  0  0
 37 38  1  0  0  0
 38 39  1  0  0  0
 38 40  1  0  0  0
 38 30  1  0  0  0
 30 31  2  0  0  0
 31 32  1  0  0  0
 32 33  2  0  0  0
 33 28  1  0  0  0
 28  1  1  0  0  0
  1  2  2  0  0  0
  2  3  1  0  0  0
  3  4  2  0  0  0
  4  5  1  0  0  0
  5  6  1  0  0  0
  6  7  1  0  0  0
  7  8  1  0  0  0
  8  9  1  0  0  0
  9 10  1  0  0  0
 10 11  1  0  0  0
  8 12  1  0  0  0
 12 13  2  0  0  0
 13 14  1  0  0  0
 14 15  2  0  0  0
 15 16  1  0  0  0
 16 17  2  0  0  0
 17 18  1  0  0  0
 18 19  1  0  0  0
 18 20  1  0  0  0
 18 21  1  0  0  0
  3 22  1  0  0  0
 22 23  1  0  0  0
 23 24  1  0  0  0
 24 25  1  0  0  0
 25 26  1  0  0  0
 26 27  1  0  0  0
 33 34  1  0  0  0
 34 35  2  0  0  0
 35 36  1  0  0  0
 35 30  1  0  0  0
 11  1  1  0  0  0
 17 12  1  0  0  0
 27 22  1  0  0  0
 11  5  2  0  0  0
 28 29  1  0  0  0
M  END
> <minimizedAffinity>
-9.48334

> <CNNscore>
0.3658165336

> <CNNaffinity>
7.1923766136

> <CNN_VS>
2.6310901642

> <CNNaffinity_variance>
0.0744837895

$$$$
[H]c1nc(N2C([H])([H])C([H])([H])c3nc(N4C([H])([H])C([H])([H])OC([H])([H])C4([H])[H])nc(N([H])c4c([H])c([H])c(C(F)(F)F)c(Cl)c4[H])c3C([H])([H])C2([H])[H])c(C(F)(F)F)c([H])c1[H]


 40 44  0  0  0  0  0  0  0  0999 V2000
  154.4813  138.6626  183.9227 C   0  0  0  0  0  0  0  0  0  0  0  0
  153.6266  138.8487  182.9126 N   0  0  0  0  0  0  0  0  0  0  0  0
  152.3585  138.4493  182.8395 C   0  0  0  0  0  0  0  0  0  0  0  0
  151.8946  137.7831  183.9129 N   0  0  0  0  0  0  0  0  0  0  0  0
  152.6804  137.5480  184.9754 C   0  0  0  0  0  0  0  0  0  0  0  0
  151.9260  136.8356  186.0669 C   0  0  0  0  0  0  0  0  0  0  0  0
  152.1830  137.6394  187.3437 C   0  0  0  0  0  0  0  0  0  0  0  0
  153.4864  137.3025  187.8397 N   0  0  0  0  0  0  0  0  0  0  0  0
  154.5662  136.7454  187.0830 C   0  0  0  0  0  0  0  0  0  0  0  0
  155.0392  137.7750  186.0772 C   0  0  0  0  0  0  0  0  0  0  0  0
  153.9798  137.9626  185.0319 C   0  0  0  0  0  0  0  0  0  0  0  0
  153.7709  137.5192  189.2127 C   0  0  0  0  0  0  0  0  0  0  0  0
  154.6287  138.5192  189.5767 N   0  0  0  0  0  0  0  0  0  0  0  0
  154.9257  138.8078  190.8279 C   0  0  0  0  0  0  0  0  0  0  0  0
  154.3412  138.0630  191.8194 C   0  0  0  0  0  0  0  0  0  0  0  0
  153.4765  137.0517  191.5006 C   0  0  0  0  0  0  0  0  0  0  0  0
  153.1634  136.7468  190.1741 C   0  0  0  0  0  0  0  0  0  0  0  0
  152.2475  135.6202  189.9105 C   0  0  0  0  0  0  0  0  0  0  0  0
  152.1275  134.8929  191.1099 F   0  0  0  0  0  0  0  0  0  0  0  0
  152.7525  134.6986  189.0115 F   0  0  0  0  0  0  0  0  0  0  0  0
  150.9560  135.9815  189.6102 F   0  0  0  0  0  0  0  0  0  0  0  0
  151.5459  138.7126  181.6935 N   0  0  0  0  0  0  0  0  0  0  0  0
  150.1538  138.3751  181.7396 C   0  0  0  0  0  0  0  0  0  0  0  0
  149.4083  139.3465  180.8429 C   0  0  0  0  0  0  0  0  0  0  0  0
  149.9810  139.2874  179.5904 O   0  0  0  0  0  0  0  0  0  0  0  0
  151.2052  139.9611  179.6078 C   0  0  0  0  0  0  0  0  0  0  0  0
  152.1946  139.3114  180.5463 C   0  0  0  0  0  0  0  0  0  0  0  0
  155.7934  139.1458  183.9481 N   0  0  0  0  0  0  0  0  0  0  0  0
  156.5440  138.5073  184.3294 H   0  0  0  0  0  0  0  0  0  0  0  0
  157.2845  142.8719  182.6278 C   0  0  0  0  0  0  0  0  0  0  0  0
  156.0468  142.8256  183.2199 C   0  0  0  0  0  0  0  0  0  0  0  0
  155.5443  141.5947  183.6699 C   0  0  0  0  0  0  0  0  0  0  0  0
  156.2328  140.4257  183.5464 C   0  0  0  0  0  0  0  0  0  0  0  0
  157.4980  140.5288  182.9319 C   0  0  0  0  0  0  0  0  0  0  0  0
  158.0127  141.6966  182.4873 C   0  0  0  0  0  0  0  0  0  0  0  0
  159.5849  141.8408  181.7209 Cl  0  0  0  0  0  0  0  0  0  0  0  0
  156.8849  145.1387  182.3046 F   0  0  0  0  0  0  0  0  0  0  0  0
  157.8218  144.1600  182.1514 C   0  0  0  0  0  0  0  0  0  0  0  0
  158.1243  144.1005  180.7850 F   0  0  0  0  0  0  0  0  0  0  0  0
  158.9909  144.5113  182.8369 F   0  0  0  0  0  0  0  0  0  0  0  0
 37 38  1  0  0  0
 38 39  1  0  0  0
 38 40  1  0  0  0
 38 30  1  0  0  0
 30 31  2  0  0  0
 31 32  1  0  0  0
 32 33  2  0  0  0
 33 28  1  0  0  0
 28  1  1  0  0  0
  1  2  2  0  0  0
  2  3  1  0  0  0
  3  4  2  0  0  0
  4  5  1  0  0  0
  5  6  1  0  0  0
  6  7  1  0  0  0
  7  8  1  0  0  0
  8  9  1  0  0  0
  9 10  1  0  0  0
 10 11  1  0  0  0
  8 12  1  0  0  0
 12 13  2  0  0  0
 13 14  1  0  0  0
 14 15  2  0  0  0
 15 16  1  0  0  0
 16 17  2  0  0  0
 17 18  1  0  0  0
 18 19  1  0  0  0
 18 20  1  0  0  0
 18 21  1  0  0  0
  3 22  1  0  0  0
 22 23  1  0  0  0
 23 24  1  0  0  0
 24 25  1  0  0  0
 25 26  1  0  0  0
 26 27  1  0  0  0
 33 34  1  0  0  0
 34 35  2  0  0  0
 35 36  1  0  0  0
 35 30  1  0  0  0
 11  1  1  0  0  0
 17 12  1  0  0  0
 27 22  1  0  0  0
 11  5  2  0  0  0
 28 29  1  0  0  0
M  END
> <minimizedAffinity>
-8.84798

> <CNNscore>
0.3206911087

> <CNNaffinity>
6.9821462631

> <CNN_VS>
2.2391121387

> <CNNaffinity_variance>
0.0822113007

$$$$
[H]c1nc(N2C([H])([H])C([H])([H])c3nc(N4C([H])([H])C([H])([H])OC([H])([H])C4([H])[H])nc(N([H])c4c([H])c([H])c(C(F)(F)F)c(Cl)c4[H])c3C([H])([H])C2([H])[H])c(C(F)(F)F)c([H])c1[H]


 40 44  0  0  0  0  0  0  0  0999 V2000
  153.8026  139.3065  183.8474 C   0  0  0  0  0  0  0  0  0  0  0  0
  152.8794  138.8925  182.9745 N   0  0  0  0  0  0  0  0  0  0  0  0
  152.3431  137.6778  182.8768 C   0  0  0  0  0  0  0  0  0  0  0  0
  152.7891  136.7706  183.7653 N   0  0  0  0  0  0  0  0  0  0  0  0
  153.7164  137.0946  184.6801 C   0  0  0  0  0  0  0  0  0  0  0  0
  154.0148  135.9336  185.5916 C   0  0  0  0  0  0  0  0  0  0  0  0
  153.8955  136.4810  187.0159 C   0  0  0  0  0  0  0  0  0  0  0  0
  155.0934  137.2068  187.3269 N   0  0  0  0  0  0  0  0  0  0  0  0
  156.0109  137.7758  186.3871 C   0  0  0  0  0  0  0  0  0  0  0  0
  155.3212  138.9107  185.6579 C   0  0  0  0  0  0  0  0  0  0  0  0
  154.2577  138.3450  184.7639 C   0  0  0  0  0  0  0  0  0  0  0  0
  155.4438  137.3934  188.6890 C   0  0  0  0  0  0  0  0  0  0  0  0
  154.9041  138.4351  189.3904 N   0  0  0  0  0  0  0  0  0  0  0  0
  155.1519  138.6646  190.6643 C   0  0  0  0  0  0  0  0  0  0  0  0
  155.9984  137.8103  191.3224 C   0  0  0  0  0  0  0  0  0  0  0  0
  156.5618  136.7544  190.6592 C   0  0  0  0  0  0  0  0  0  0  0  0
  156.2986  136.5131  189.3090 C   0  0  0  0  0  0  0  0  0  0  0  0
  156.9703  135.3728  188.6561 C   0  0  0  0  0  0  0  0  0  0  0  0
  155.9625  134.4982  188.2076 F   0  0  0  0  0  0  0  0  0  0  0  0
  157.7170  134.6011  189.5276 F   0  0  0  0  0  0  0  0  0  0  0  0
  157.6692  135.6877  187.5155 F   0  0  0  0  0  0  0  0  0  0  0  0
  151.3582  137.3613  181.8906 N   0  0  0  0  0  0  0  0  0  0  0  0
  151.0672  135.9844  181.6197 C   0  0  0  0  0  0  0  0  0  0  0  0
  149.6168  135.8913  181.1826 C   0  0  0  0  0  0  0  0  0  0  0  0
  149.4436  136.7445  180.1139 O   0  0  0  0  0  0  0  0  0  0  0  0
  149.4091  138.0636  180.5742 C   0  0  0  0  0  0  0  0  0  0  0  0
  150.7116  138.4705  181.2219 C   0  0  0  0  0  0  0  0  0  0  0  0
  154.2943  140.6138  183.9183 N   0  0  0  0  0  0  0  0  0  0  0  0
  153.7263  141.3230  184.4577 H   0  0  0  0  0  0  0  0  0  0  0  0
  157.9207  142.0632  182.3062 C   0  0  0  0  0  0  0  0  0  0  0  0
  156.8648  141.8320  181.4599 C   0  0  0  0  0  0  0  0  0  0  0  0
  155.6525  141.3582  181.9850 C   0  0  0  0  0  0  0  0  0  0  0  0
  155.4678  141.1117  183.3120 C   0  0  0  0  0  0  0  0  0  0  0  0
  156.5829  141.3658  184.1371 C   0  0  0  0  0  0  0  0  0  0  0  0
  157.7645  141.8222  183.6660 C   0  0  0  0  0  0  0  0  0  0  0  0
  159.1606  142.1430  184.6798 Cl  0  0  0  0  0  0  0  0  0  0  0  0
  159.1502  142.5793  180.4024 F   0  0  0  0  0  0  0  0  0  0  0  0
  159.1990  142.5610  181.7650 C   0  0  0  0  0  0  0  0  0  0  0  0
  160.2559  141.7132  182.1200 F   0  0  0  0  0  0  0  0  0  0  0  0
  159.4937  143.8423  182.2462 F   0  0  0  0  0  0  0  0  0  0  0  0
 37 38  1  0  0  0
 38 39  1  0  0  0
 38 40  1  0  0  0
 38 30  1  0  0  0
 30 31  2  0  0  0
 31 32  1  0  0  0
 32 33  2  0  0  0
 33 28  1  0  0  0
 28  1  1  0  0  0
  1  2  2  0  0  0
  2  3  1  0  0  0
  3  4  2  0  0  0
  4  5  1  0  0  0
  5  6  1  0  0  0
  6  7  1  0  0  0
  7  8  1  0  0  0
  8  9  1  0  0  0
  9 10  1  0  0  0
 10 11  1  0  0  0
  8 12  1  0  0  0
 12 13  2  0  0  0
 13 14  1  0  0  0
 14 15  2  0  0  0
 15 16  1  0  0  0
 16 17  2  0  0  0
 17 18  1  0  0  0
 18 19  1  0  0  0
 18 20  1  0  0  0
 18 21  1  0  0  0
  3 22  1  0  0  0
 22 23  1  0  0  0
 23 24  1  0  0  0
 24 25  1  0  0  0
 25 26  1  0  0  0
 26 27  1  0  0  0
 33 34  1  0  0  0
 34 35  2  0  0  0
 35 36  1  0  0  0
 35 30  1  0  0  0
 11  1  1  0  0  0
 17 12  1  0  0  0
 27 22  1  0  0  0
 11  5  2  0  0  0
 28 29  1  0  0  0
M  END
> <minimizedAffinity>
-8.52882

> <CNNscore>
0.2895713151

> <CNNaffinity>
7.0043959618

> <CNN_VS>
2.0282721519

> <CNNaffinity_variance>
0.0567161664

$$$$
[H]c1nc(N2C([H])([H])C([H])([H])c3nc(N4C([H])([H])C([H])([H])OC([H])([H])C4([H])[H])nc(N([H])c4c([H])c([H])c(C(F)(F)F)c(Cl)c4[H])c3C([H])([H])C2([H])[H])c(C(F)(F)F)c([H])c1[H]


 40 44  0  0  0  0  0  0  0  0999 V2000
  158.2182  139.8611  185.0488 C   0  0  0  0  0  0  0  0  0  0  0  0
  159.2144  140.5736  185.5831 N   0  0  0  0  0  0  0  0  0  0  0  0
  159.6810  141.7506  185.1711 C   0  0  0  0  0  0  0  0  0  0  0  0
  159.0707  142.2739  184.0918 N   0  0  0  0  0  0  0  0  0  0  0  0
  158.0601  141.6300  183.4870 C   0  0  0  0  0  0  0  0  0  0  0  0
  157.5074  142.4343  182.3400 C   0  0  0  0  0  0  0  0  0  0  0  0
  155.9930  142.4813  182.5560 C   0  0  0  0  0  0  0  0  0  0  0  0
  155.4324  141.2325  182.1264 N   0  0  0  0  0  0  0  0  0  0  0  0
  156.1264  139.9868  182.0027 C   0  0  0  0  0  0  0  0  0  0  0  0
  156.5301  139.5139  183.3844 C   0  0  0  0  0  0  0  0  0  0  0  0
  157.5964  140.4219  183.9217 C   0  0  0  0  0  0  0  0  0  0  0  0
  154.0595  141.1871  181.7713 C   0  0  0  0  0  0  0  0  0  0  0  0
  153.5556  140.0751  181.1565 N   0  0  0  0  0  0  0  0  0  0  0  0
  152.2890  139.9374  180.8192 C   0  0  0  0  0  0  0  0  0  0  0  0
  151.4293  140.9674  181.1010 C   0  0  0  0  0  0  0  0  0  0  0  0
  151.8906  142.0996  181.7151 C   0  0  0  0  0  0  0  0  0  0  0  0
  153.2334  142.2442  182.0714 C   0  0  0  0  0  0  0  0  0  0  0  0
  153.6599  143.5088  182.7011 C   0  0  0  0  0  0  0  0  0  0  0  0
  152.5549  144.3806  182.6725 F   0  0  0  0  0  0  0  0  0  0  0  0
  154.6326  144.1806  181.9833 F   0  0  0  0  0  0  0  0  0  0  0  0
  153.9746  143.4143  184.0355 F   0  0  0  0  0  0  0  0  0  0  0  0
  160.7605  142.4121  185.8344 N   0  0  0  0  0  0  0  0  0  0  0  0
  160.4983  143.1068  187.0602 C   0  0  0  0  0  0  0  0  0  0  0  0
  161.7599  143.0592  187.9025 C   0  0  0  0  0  0  0  0  0  0  0  0
  162.7899  143.5782  187.1476 O   0  0  0  0  0  0  0  0  0  0  0  0
  163.1789  142.6409  186.1868 C   0  0  0  0  0  0  0  0  0  0  0  0
  162.0656  142.3344  185.2130 C   0  0  0  0  0  0  0  0  0  0  0  0
  157.7527  138.6452  185.5596 N   0  0  0  0  0  0  0  0  0  0  0  0
  158.3700  137.7956  185.4428 H   0  0  0  0  0  0  0  0  0  0  0  0
  153.9592  137.8781  187.2539 C   0  0  0  0  0  0  0  0  0  0  0  0
  155.0232  138.1114  188.0894 C   0  0  0  0  0  0  0  0  0  0  0  0
  156.2867  138.3755  187.5380 C   0  0  0  0  0  0  0  0  0  0  0  0
  156.5142  138.4119  186.1954 C   0  0  0  0  0  0  0  0  0  0  0  0
  155.3884  138.1659  185.3824 C   0  0  0  0  0  0  0  0  0  0  0  0
  154.1581  137.9087  185.8788 C   0  0  0  0  0  0  0  0  0  0  0  0
  152.7481  137.6007  184.8803 Cl  0  0  0  0  0  0  0  0  0  0  0  0
  152.6755  137.6901  189.1824 F   0  0  0  0  0  0  0  0  0  0  0  0
  152.6274  137.5996  187.8227 C   0  0  0  0  0  0  0  0  0  0  0  0
  152.2171  136.2952  187.5189 F   0  0  0  0  0  0  0  0  0  0  0  0
  151.6628  138.4825  187.3225 F   0  0  0  0  0  0  0  0  0  0  0  0
 37 38  1  0  0  0
 38 39  1  0  0  0
 38 40  1  0  0  0
 38 30  1  0  0  0
 30 31  2  0  0  0
 31 32  1  0  0  0
 32 33  2  0  0  0
 33 28  1  0  0  0
 28  1  1  0  0  0
  1  2  2  0  0  0
  2  3  1  0  0  0
  3  4  2  0  0  0
  4  5  1  0  0  0
  5  6  1  0  0  0
  6  7  1  0  0  0
  7  8  1  0  0  0
  8  9  1  0  0  0
  9 10  1  0  0  0
 10 11  1  0  0  0
  8 12  1  0  0  0
 12 13  2  0  0  0
 13 14  1  0  0  0
 14 15  2  0  0  0
 15 16  1  0  0  0
 16 17  2  0  0  0
 17 18  1  0  0  0
 18 19  1  0  0  0
 18 20  1  0  0  0
 18 21  1  0  0  0
  3 22  1  0  0  0
 22 23  1  0  0  0
 23 24  1  0  0  0
 24 25  1  0  0  0
 25 26  1  0  0  0
 26 27  1  0  0  0
 33 34  1  0  0  0
 34 35  2  0  0  0
 35 36  1  0  0  0
 35 30  1  0  0  0
 11  1  1  0  0  0
 17 12  1  0  0  0
 27 22  1  0  0  0
 11  5  2  0  0  0
 28 29  1  0  0  0
M  END
> <minimizedAffinity>
-2.20279

> <CNNscore>
0.2737469077

> <CNNaffinity>
7.0777902603

> <CNN_VS>
1.9375232458

> <CNNaffinity_variance>
0.2808424830

$$$$
[H]c1nc(N2C([H])([H])C([H])([H])c3nc(N4C([H])([H])C([H])([H])OC([H])([H])C4([H])[H])nc(N([H])c4c([H])c([H])c(C(F)(F)F)c(Cl)c4[H])c3C([H])([H])C2([H])[H])c(C(F)(F)F)c([H])c1[H]


 40 44  0  0  0  0  0  0  0  0999 V2000
  154.2193  138.4459  184.3410 C   0  0  0  0  0  0  0  0  0  0  0  0
  153.2556  137.6890  183.8081 N   0  0  0  0  0  0  0  0  0  0  0  0
  152.4139  138.0178  182.8303 C   0  0  0  0  0  0  0  0  0  0  0  0
  152.5604  139.2577  182.3277 N   0  0  0  0  0  0  0  0  0  0  0  0
  153.5013  140.0902  182.8002 C   0  0  0  0  0  0  0  0  0  0  0  0
  153.5051  141.3949  182.0481 C   0  0  0  0  0  0  0  0  0  0  0  0
  154.9590  141.6323  181.6334 C   0  0  0  0  0  0  0  0  0  0  0  0
  155.6814  142.1299  182.7687 N   0  0  0  0  0  0  0  0  0  0  0  0
  155.3181  141.9707  184.1440 C   0  0  0  0  0  0  0  0  0  0  0  0
  155.4318  140.5053  184.5120 C   0  0  0  0  0  0  0  0  0  0  0  0
  154.3543  139.7370  183.8058 C   0  0  0  0  0  0  0  0  0  0  0  0
  156.8745  142.8657  182.5493 C   0  0  0  0  0  0  0  0  0  0  0  0
  156.8100  144.2166  182.3505 N   0  0  0  0  0  0  0  0  0  0  0  0
  157.8689  144.9797  182.1686 C   0  0  0  0  0  0  0  0  0  0  0  0
  159.1040  144.3850  182.1795 C   0  0  0  0  0  0  0  0  0  0  0  0
  159.2156  143.0353  182.3746 C   0  0  0  0  0  0  0  0  0  0  0  0
  158.0922  142.2279  182.5666 C   0  0  0  0  0  0  0  0  0  0  0  0
  158.2927  140.7760  182.7378 C   0  0  0  0  0  0  0  0  0  0  0  0
  159.6142  140.4899  182.3455 F   0  0  0  0  0  0  0  0  0  0  0  0
  157.5193  140.0090  181.8857 F   0  0  0  0  0  0  0  0  0  0  0  0
  158.2277  140.3312  184.0365 F   0  0  0  0  0  0  0  0  0  0  0  0
  151.4202  137.1105  182.3486 N   0  0  0  0  0  0  0  0  0  0  0  0
  150.1761  137.6365  181.8699 C   0  0  0  0  0  0  0  0  0  0  0  0
  149.6525  136.6960  180.8000 C   0  0  0  0  0  0  0  0  0  0  0  0
  149.5786  135.4336  181.3489 O   0  0  0  0  0  0  0  0  0  0  0  0
  150.8643  134.8953  181.4490 C   0  0  0  0  0  0  0  0  0  0  0  0
  151.7431  135.6996  182.3777 C   0  0  0  0  0  0  0  0  0  0  0  0
  155.0962  138.0201  185.3438 N   0  0  0  0  0  0  0  0  0  0  0  0
  156.0446  137.6614  185.0463 H   0  0  0  0  0  0  0  0  0  0  0  0
  154.5629  137.9576  189.5345 C   0  0  0  0  0  0  0  0  0  0  0  0
  153.4542  137.9458  188.7251 C   0  0  0  0  0  0  0  0  0  0  0  0
  153.6189  137.9582  187.3313 C   0  0  0  0  0  0  0  0  0  0  0  0
  154.8420  137.9822  186.7318 C   0  0  0  0  0  0  0  0  0  0  0  0
  155.9469  137.9931  187.6080 C   0  0  0  0  0  0  0  0  0  0  0  0
  155.8253  137.9815  188.9539 C   0  0  0  0  0  0  0  0  0  0  0  0
  157.1903  137.9948  190.0568 Cl  0  0  0  0  0  0  0  0  0  0  0  0
  155.2262  137.0088  191.5500 F   0  0  0  0  0  0  0  0  0  0  0  0
  154.4011  137.9448  191.0002 C   0  0  0  0  0  0  0  0  0  0  0  0
  153.0936  137.5895  191.3555 F   0  0  0  0  0  0  0  0  0  0  0  0
  154.6725  139.2010  191.5557 F   0  0  0  0  0  0  0  0  0  0  0  0
 37 38  1  0  0  0
 38 39  1  0  0  0
 38 40  1  0  0  0
 38 30  1  0  0  0
 30 31  2  0  0  0
 31 32  1  0  0  0
 32 33  2  0  0  0
 33 28  1  0  0  0
 28  1  1  0  0  0
  1  2  2  0  0  0
  2  3  1  0  0  0
  3  4  2  0  0  0
  4  5  1  0  0  0
  5  6  1  0  0  0
  6  7  1  0  0  0
  7  8  1  0  0  0
  8  9  1  0  0  0
  9 10  1  0  0  0
 10 11  1  0  0  0
  8 12  1  0  0  0
 12 13  2  0  0  0
 13 14  1  0  0  0
 14 15  2  0  0  0
 15 16  1  0  0  0
 16 17  2  0  0  0
 17 18  1  0  0  0
 18 19  1  0  0  0
 18 20  1  0  0  0
 18 21  1  0  0  0
  3 22  1  0  0  0
 22 23  1  0  0  0
 23 24  1  0  0  0
 24 25  1  0  0  0
 25 26  1  0  0  0
 26 27  1  0  0  0
 33 34  1  0  0  0
 34 35  2  0  0  0
 35 36  1  0  0  0
 35 30  1  0  0  0
 11  1  1  0  0  0
 17 12  1  0  0  0
 27 22  1  0  0  0
 11  5  2  0  0  0
 28 29  1  0  0  0
M  END
> <minimizedAffinity>
-9.42286

> <CNNscore>
0.2601138651

> <CNNaffinity>
7.0734772682

> <CNN_VS>
1.8399095535

> <CNNaffinity_variance>
0.2314296663

$$$$
[H]c1nc(N2C([H])([H])C([H])([H])c3nc(N4C([H])([H])C([H])([H])C([H])([H])C4([H])[H])nc(N([H])c4nc([H])c(C(F)(F)F)c([H])c4[H])c3C([H])([H])C2([H])[H])c(C(F)(F)F)c([H])c1[H]


 38 42  0  0  0  0  0  0  0  0999 V2000
  155.4194  139.2011  184.3275 C   0  0  0  0  0  0  0  0  0  0  0  0
  154.5841  139.4431  183.3031 N   0  0  0  0  0  0  0  0  0  0  0  0
  153.2768  139.1565  183.3647 C   0  0  0  0  0  0  0  0  0  0  0  0
  152.7294  138.5922  184.4958 N   0  0  0  0  0  0  0  0  0  0  0  0
  153.4986  138.3207  185.5508 C   0  0  0  0  0  0  0  0  0  0  0  0
  152.7233  137.7471  186.6858 C   0  0  0  0  0  0  0  0  0  0  0  0
  153.4926  138.0210  188.0120 C   0  0  0  0  0  0  0  0  0  0  0  0
  154.5729  137.0414  188.0709 N   0  0  0  0  0  0  0  0  0  0  0  0
  155.5511  136.8935  187.0287 C   0  0  0  0  0  0  0  0  0  0  0  0
  155.8736  138.2769  186.4628 C   0  0  0  0  0  0  0  0  0  0  0  0
  154.8309  138.6167  185.4701 C   0  0  0  0  0  0  0  0  0  0  0  0
  154.5906  136.2084  189.2177 C   0  0  0  0  0  0  0  0  0  0  0  0
  153.9369  135.0034  189.1324 N   0  0  0  0  0  0  0  0  0  0  0  0
  153.8804  134.1545  190.1589 C   0  0  0  0  0  0  0  0  0  0  0  0
  154.4853  134.4657  191.3513 C   0  0  0  0  0  0  0  0  0  0  0  0
  155.1493  135.6539  191.4891 C   0  0  0  0  0  0  0  0  0  0  0  0
  155.2057  136.5473  190.3990 C   0  0  0  0  0  0  0  0  0  0  0  0
  155.9596  137.7982  190.5684 C   0  0  0  0  0  0  0  0  0  0  0  0
  157.0184  137.9296  189.6681 F   0  0  0  0  0  0  0  0  0  0  0  0
  155.1943  138.9341  190.6524 F   0  0  0  0  0  0  0  0  0  0  0  0
  156.6247  137.7318  191.8146 F   0  0  0  0  0  0  0  0  0  0  0  0
  152.4178  139.4306  182.3014 N   0  0  0  0  0  0  0  0  0  0  0  0
  151.1559  138.7416  182.0077 C   0  0  0  0  0  0  0  0  0  0  0  0
  151.4853  138.2506  180.5996 C   0  0  0  0  0  0  0  0  0  0  0  0
  152.3263  139.3815  180.0280 C   0  0  0  0  0  0  0  0  0  0  0  0
  152.5527  140.3549  181.2084 C   0  0  0  0  0  0  0  0  0  0  0  0
  156.7338  139.6578  184.4032 N   0  0  0  0  0  0  0  0  0  0  0  0
  157.3620  139.1088  185.1047 H   0  0  0  0  0  0  0  0  0  0  0  0
  158.3693  143.1482  182.6915 C   0  0  0  0  0  0  0  0  0  0  0  0
  159.1967  142.0977  182.9771 C   0  0  0  0  0  0  0  0  0  0  0  0
  158.6970  140.9083  183.5329 C   0  0  0  0  0  0  0  0  0  0  0  0
  157.3720  140.7643  183.8041 C   0  0  0  0  0  0  0  0  0  0  0  0
  156.5889  141.8562  183.4935 N   0  0  0  0  0  0  0  0  0  0  0  0
  157.0156  142.9827  182.9744 C   0  0  0  0  0  0  0  0  0  0  0  0
  157.8033  145.3467  182.1737 F   0  0  0  0  0  0  0  0  0  0  0  0
  158.8538  144.4429  182.1422 C   0  0  0  0  0  0  0  0  0  0  0  0
  159.8703  144.8852  182.9985 F   0  0  0  0  0  0  0  0  0  0  0  0
  159.3013  144.3553  180.8626 F   0  0  0  0  0  0  0  0  0  0  0  0
 35 36  1  0  0  0
 36 37  1  0  0  0
 36 38  1  0  0  0
 36 29  1  0  0  0
 29 30  2  0  0  0
 30 31  1  0  0  0
 31 32  2  0  0  0
 32 27  1  0  0  0
 27  1  1  0  0  0
  1  2  2  0  0  0
  2  3  1  0  0  0
  3  4  2  0  0  0
  4  5  1  0  0  0
  5  6  1  0  0  0
  6  7  1  0  0  0
  7  8  1  0  0  0
  8  9  1  0  0  0
  9 10  1  0  0  0
 10 11  1  0  0  0
  8 12  1  0  0  0
 12 13  2  0  0  0
 13 14  1  0  0  0
 14 15  2  0  0  0
 15 16  1  0  0  0
 16 17  2  0  0  0
 17 18  1  0  0  0
 18 19  1  0  0  0
 18 20  1  0  0  0
 18 21  1  0  0  0
  3 22  1  0  0  0
 22 23  1  0  0  0
 23 24  1  0  0  0
 24 25  1  0  0  0
 25 26  1  0  0  0
 32 33  1  0  0  0
 33 34  2  0  0  0
 34 29  1  0  0  0
 11  1  1  0  0  0
 17 12  1  0  0  0
 26 22  1  0  0  0
 11  5  2  0  0  0
 27 28  1  0  0  0
M  END
> <minimizedAffinity>
-9.15509

> <CNNscore>
0.4738703966

> <CNNaffinity>
7.0629186630

> <CNN_VS>
3.3469080925

> <CNNaffinity_variance>
0.0487879291

$$$$
[H]c1nc(N2C([H])([H])C([H])([H])c3nc(N4C([H])([H])C([H])([H])C([H])([H])C4([H])[H])nc(N([H])c4nc([H])c(C(F)(F)F)c([H])c4[H])c3C([H])([H])C2([H])[H])c(C(F)(F)F)c([H])c1[H]


 38 42  0  0  0  0  0  0  0  0999 V2000
  154.9798  138.8046  184.1930 C   0  0  0  0  0  0  0  0  0  0  0  0
  154.1607  138.7816  183.1280 N   0  0  0  0  0  0  0  0  0  0  0  0
  152.9338  138.2461  183.1821 C   0  0  0  0  0  0  0  0  0  0  0  0
  152.4571  137.6877  184.3475 N   0  0  0  0  0  0  0  0  0  0  0  0
  153.2159  137.6714  185.4441 C   0  0  0  0  0  0  0  0  0  0  0  0
  152.5175  137.0587  186.6083 C   0  0  0  0  0  0  0  0  0  0  0  0
  153.1568  137.5988  187.9217 C   0  0  0  0  0  0  0  0  0  0  0  0
  154.4048  136.8644  188.1044 N   0  0  0  0  0  0  0  0  0  0  0  0
  155.4394  136.8221  187.1080 C   0  0  0  0  0  0  0  0  0  0  0  0
  155.5091  138.1855  186.4193 C   0  0  0  0  0  0  0  0  0  0  0  0
  154.4663  138.2193  185.3708 C   0  0  0  0  0  0  0  0  0  0  0  0
  154.5336  136.1582  189.3267 C   0  0  0  0  0  0  0  0  0  0  0  0
  153.9019  134.9424  189.4225 N   0  0  0  0  0  0  0  0  0  0  0  0
  153.9474  134.2066  190.5334 C   0  0  0  0  0  0  0  0  0  0  0  0
  154.6398  134.6508  191.6324 C   0  0  0  0  0  0  0  0  0  0  0  0
  155.2863  135.8557  191.5896 C   0  0  0  0  0  0  0  0  0  0  0  0
  155.2346  136.6289  190.4110 C   0  0  0  0  0  0  0  0  0  0  0  0
  155.9720  137.9007  190.3854 C   0  0  0  0  0  0  0  0  0  0  0  0
  157.2027  137.8110  189.7327 F   0  0  0  0  0  0  0  0  0  0  0  0
  155.2410  138.9913  189.9859 F   0  0  0  0  0  0  0  0  0  0  0  0
  156.3520  138.2021  191.7138 F   0  0  0  0  0  0  0  0  0  0  0  0
  152.0871  138.2463  182.0745 N   0  0  0  0  0  0  0  0  0  0  0  0
  152.4396  138.6712  180.7149 C   0  0  0  0  0  0  0  0  0  0  0  0
  151.3935  139.7701  180.5399 C   0  0  0  0  0  0  0  0  0  0  0  0
  150.1875  139.2199  181.2855 C   0  0  0  0  0  0  0  0  0  0  0  0
  150.6892  137.9267  181.9697 C   0  0  0  0  0  0  0  0  0  0  0  0
  156.1740  139.5198  184.2592 N   0  0  0  0  0  0  0  0  0  0  0  0
  156.6024  139.5900  185.2589 H   0  0  0  0  0  0  0  0  0  0  0  0
  158.0463  141.9437  181.3597 C   0  0  0  0  0  0  0  0  0  0  0  0
  158.7538  140.9209  181.9281 C   0  0  0  0  0  0  0  0  0  0  0  0
  158.1692  140.0765  182.8864 C   0  0  0  0  0  0  0  0  0  0  0  0
  156.8786  140.2500  183.2789 C   0  0  0  0  0  0  0  0  0  0  0  0
  156.2172  141.2960  182.6701 N   0  0  0  0  0  0  0  0  0  0  0  0
  156.7259  142.1057  181.7724 C   0  0  0  0  0  0  0  0  0  0  0  0
  159.9844  142.6156  180.2578 F   0  0  0  0  0  0  0  0  0  0  0  0
  158.6308  142.8909  180.3727 C   0  0  0  0  0  0  0  0  0  0  0  0
  158.0006  142.6321  179.1487 F   0  0  0  0  0  0  0  0  0  0  0  0
  158.4903  144.1953  180.7245 F   0  0  0  0  0  0  0  0  0  0  0  0
 35 36  1  0  0  0
 36 37  1  0  0  0
 36 38  1  0  0  0
 36 29  1  0  0  0
 29 30  2  0  0  0
 30 31  1  0  0  0
 31 32  2  0  0  0
 32 27  1  0  0  0
 27  1  1  0  0  0
  1  2  2  0  0  0
  2  3  1  0  0  0
  3  4  2  0  0  0
  4  5  1  0  0  0
  5  6  1  0  0  0
  6  7  1  0  0  0
  7  8  1  0  0  0
  8  9  1  0  0  0
  9 10  1  0  0  0
 10 11  1  0  0  0
  8 12  1  0  0  0
 12 13  2  0  0  0
 13 14  1  0  0  0
 14 15  2  0  0  0
 15 16  1  0  0  0
 16 17  2  0  0  0
 17 18  1  0  0  0
 18 19  1  0  0  0
 18 20  1  0  0  0
 18 21  1  0  0  0
  3 22  1  0  0  0
 22 23  1  0  0  0
 23 24  1  0  0  0
 24 25  1  0  0  0
 25 26  1  0  0  0
 32 33  1  0  0  0
 33 34  2  0  0  0
 34 29  1  0  0  0
 11  1  1  0  0  0
 17 12  1  0  0  0
 26 22  1  0  0  0
 11  5  2  0  0  0
 27 28  1  0  0  0
M  END
> <minimizedAffinity>
-9.10608

> <CNNscore>
0.4566049278

> <CNNaffinity>
6.9486374855

> <CNN_VS>
3.1727821827

> <CNNaffinity_variance>
0.0752927139

$$$$
[H]c1nc(N2C([H])([H])C([H])([H])c3nc(N4C([H])([H])C([H])([H])C([H])([H])C4([H])[H])nc(N([H])c4nc([H])c(C(F)(F)F)c([H])c4[H])c3C([H])([H])C2([H])[H])c(C(F)(F)F)c([H])c1[H]


 38 42  0  0  0  0  0  0  0  0999 V2000
  157.2020  142.5801  182.7171 C   0  0  0  0  0  0  0  0  0  0  0  0
  157.1927  142.6093  181.3736 N   0  0  0  0  0  0  0  0  0  0  0  0
  158.2957  142.3856  180.6468 C   0  0  0  0  0  0  0  0  0  0  0  0
  159.5011  142.1152  181.2563 N   0  0  0  0  0  0  0  0  0  0  0  0
  159.5868  142.0735  182.5865 C   0  0  0  0  0  0  0  0  0  0  0  0
  160.9589  141.7343  183.0563 C   0  0  0  0  0  0  0  0  0  0  0  0
  160.8659  141.1186  184.4838 C   0  0  0  0  0  0  0  0  0  0  0  0
  160.6754  142.2365  185.4026 N   0  0  0  0  0  0  0  0  0  0  0  0
  159.6010  143.1817  185.2708 C   0  0  0  0  0  0  0  0  0  0  0  0
  158.3560  142.4399  184.7831 C   0  0  0  0  0  0  0  0  0  0  0  0
  158.4525  142.3069  183.3130 C   0  0  0  0  0  0  0  0  0  0  0  0
  161.6397  142.3605  186.4341 C   0  0  0  0  0  0  0  0  0  0  0  0
  161.1845  142.3356  187.7297 N   0  0  0  0  0  0  0  0  0  0  0  0
  162.0070  142.4606  188.7715 C   0  0  0  0  0  0  0  0  0  0  0  0
  163.3564  142.6199  188.5755 C   0  0  0  0  0  0  0  0  0  0  0  0
  163.8615  142.6520  187.3045 C   0  0  0  0  0  0  0  0  0  0  0  0
  162.9858  142.5186  186.2068 C   0  0  0  0  0  0  0  0  0  0  0  0
  163.5656  142.5189  184.8556 C   0  0  0  0  0  0  0  0  0  0  0  0
  163.3970  141.3071  184.1834 F   0  0  0  0  0  0  0  0  0  0  0  0
  163.2381  143.6027  184.0801 F   0  0  0  0  0  0  0  0  0  0  0  0
  164.9709  142.5992  184.9928 F   0  0  0  0  0  0  0  0  0  0  0  0
  158.2677  142.4001  179.2530 N   0  0  0  0  0  0  0  0  0  0  0  0
  159.3678  142.8018  178.3688 C   0  0  0  0  0  0  0  0  0  0  0  0
  158.6597  143.9291  177.6200 C   0  0  0  0  0  0  0  0  0  0  0  0
  157.2310  143.4212  177.5033 C   0  0  0  0  0  0  0  0  0  0  0  0
  157.1935  142.1204  178.3392 C   0  0  0  0  0  0  0  0  0  0  0  0
  156.0620  142.6013  183.5182 N   0  0  0  0  0  0  0  0  0  0  0  0
  155.8531  143.5666  183.9792 H   0  0  0  0  0  0  0  0  0  0  0  0
  153.6326  139.3085  184.5395 C   0  0  0  0  0  0  0  0  0  0  0  0
  153.4984  140.4756  185.2392 C   0  0  0  0  0  0  0  0  0  0  0  0
  154.2734  141.6046  184.9263 C   0  0  0  0  0  0  0  0  0  0  0  0
  155.1826  141.5720  183.9153 C   0  0  0  0  0  0  0  0  0  0  0  0
  155.2714  140.3691  183.2465 N   0  0  0  0  0  0  0  0  0  0  0  0
  154.5671  139.2936  183.5068 C   0  0  0  0  0  0  0  0  0  0  0  0
  152.2942  138.2297  186.1102 F   0  0  0  0  0  0  0  0  0  0  0  0
  152.8670  138.0734  184.8576 C   0  0  0  0  0  0  0  0  0  0  0  0
  151.8542  137.9719  183.8952 F   0  0  0  0  0  0  0  0  0  0  0  0
  153.6322  136.9512  184.8768 F   0  0  0  0  0  0  0  0  0  0  0  0
 35 36  1  0  0  0
 36 37  1  0  0  0
 36 38  1  0  0  0
 36 29  1  0  0  0
 29 30  2  0  0  0
 30 31  1  0  0  0
 31 32  2  0  0  0
 32 27  1  0  0  0
 27  1  1  0  0  0
  1  2  2  0  0  0
  2  3  1  0  0  0
  3  4  2  0  0  0
  4  5  1  0  0  0
  5  6  1  0  0  0
  6  7  1  0  0  0
  7  8  1  0  0  0
  8  9  1  0  0  0
  9 10  1  0  0  0
 10 11  1  0  0  0
  8 12  1  0  0  0
 12 13  2  0  0  0
 13 14  1  0  0  0
 14 15  2  0  0  0
 15 16  1  0  0  0
 16 17  2  0  0  0
 17 18  1  0  0  0
 18 19  1  0  0  0
 18 20  1  0  0  0
 18 21  1  0  0  0
  3 22  1  0  0  0
 22 23  1  0  0  0
 23 24  1  0  0  0
 24 25  1  0  0  0
 25 26  1  0  0  0
 32 33  1  0  0  0
 33 34  2  0  0  0
 34 29  1  0  0  0
 11  1  1  0  0  0
 17 12  1  0  0  0
 26 22  1  0  0  0
 11  5  2  0  0  0
 27 28  1  0  0  0
M  END
> <minimizedAffinity>
11.93526

> <CNNscore>
0.3737969398

> <CNNaffinity>
7.5136442184

> <CNN_VS>
2.8085772991

> <CNNaffinity_variance>
1.6937296391

$$$$
[H]c1nc(N2C([H])([H])C([H])([H])c3nc(N4C([H])([H])C([H])([H])C([H])([H])C4([H])[H])nc(N([H])c4nc([H])c(C(F)(F)F)c([H])c4[H])c3C([H])([H])C2([H])[H])c(C(F)(F)F)c([H])c1[H]


 38 42  0  0  0  0  0  0  0  0999 V2000
  154.6030  138.8904  184.3194 C   0  0  0  0  0  0  0  0  0  0  0  0
  153.4384  138.8427  183.6508 N   0  0  0  0  0  0  0  0  0  0  0  0
  153.2092  139.5883  182.5616 C   0  0  0  0  0  0  0  0  0  0  0  0
  154.1712  140.4475  182.0779 N   0  0  0  0  0  0  0  0  0  0  0  0
  155.3504  140.5501  182.6922 C   0  0  0  0  0  0  0  0  0  0  0  0
  156.2677  141.5007  182.0043 C   0  0  0  0  0  0  0  0  0  0  0  0
  157.7378  141.1329  182.3636 C   0  0  0  0  0  0  0  0  0  0  0  0
  157.9763  141.6543  183.7058 N   0  0  0  0  0  0  0  0  0  0  0  0
  157.1578  141.3082  184.8351 C   0  0  0  0  0  0  0  0  0  0  0  0
  156.7395  139.8434  184.7035 C   0  0  0  0  0  0  0  0  0  0  0  0
  155.5666  139.7844  183.8040 C   0  0  0  0  0  0  0  0  0  0  0  0
  159.0598  142.5591  183.8344 C   0  0  0  0  0  0  0  0  0  0  0  0
  160.1197  142.1673  184.6152 N   0  0  0  0  0  0  0  0  0  0  0  0
  161.1803  142.9505  184.8136 C   0  0  0  0  0  0  0  0  0  0  0  0
  161.2447  144.1925  184.2324 C   0  0  0  0  0  0  0  0  0  0  0  0
  160.2150  144.6311  183.4457 C   0  0  0  0  0  0  0  0  0  0  0  0
  159.0961  143.7973  183.2393 C   0  0  0  0  0  0  0  0  0  0  0  0
  158.0246  144.2835  182.3577 C   0  0  0  0  0  0  0  0  0  0  0  0
  158.1171  143.7908  181.0548 F   0  0  0  0  0  0  0  0  0  0  0  0
  156.7559  144.1835  182.8710 F   0  0  0  0  0  0  0  0  0  0  0  0
  158.2187  145.6722  182.1736 F   0  0  0  0  0  0  0  0  0  0  0  0
  152.0030  139.5148  181.8663 N   0  0  0  0  0  0  0  0  0  0  0  0
  150.8904  138.6030  182.1565 C   0  0  0  0  0  0  0  0  0  0  0  0
  150.8170  137.8941  180.8057 C   0  0  0  0  0  0  0  0  0  0  0  0
  151.1572  138.9989  179.8175 C   0  0  0  0  0  0  0  0  0  0  0  0
  151.5619  140.2113  180.6884 C   0  0  0  0  0  0  0  0  0  0  0  0
  154.9759  138.0020  185.3262 N   0  0  0  0  0  0  0  0  0  0  0  0
  155.3458  137.0421  184.9659 H   0  0  0  0  0  0  0  0  0  0  0  0
  155.0003  138.2541  189.5361 C   0  0  0  0  0  0  0  0  0  0  0  0
  153.8574  138.5758  188.8578 C   0  0  0  0  0  0  0  0  0  0  0  0
  153.7950  138.4924  187.4570 C   0  0  0  0  0  0  0  0  0  0  0  0
  154.8713  138.0876  186.7306 C   0  0  0  0  0  0  0  0  0  0  0  0
  155.9930  137.7762  187.4701 N   0  0  0  0  0  0  0  0  0  0  0  0
  156.0919  137.8404  188.7764 C   0  0  0  0  0  0  0  0  0  0  0  0
  156.4299  138.0263  191.3599 F   0  0  0  0  0  0  0  0  0  0  0  0
  155.1313  138.3655  191.0137 C   0  0  0  0  0  0  0  0  0  0  0  0
  154.9029  139.7096  191.3351 F   0  0  0  0  0  0  0  0  0  0  0  0
  154.2831  137.5527  191.6958 F   0  0  0  0  0  0  0  0  0  0  0  0
 35 36  1  0  0  0
 36 37  1  0  0  0
 36 38  1  0  0  0
 36 29  1  0  0  0
 29 30  2  0  0  0
 30 31  1  0  0  0
 31 32  2  0  0  0
 32 27  1  0  0  0
 27  1  1  0  0  0
  1  2  2  0  0  0
  2  3  1  0  0  0
  3  4  2  0  0  0
  4  5  1  0  0  0
  5  6  1  0  0  0
  6  7  1  0  0  0
  7  8  1  0  0  0
  8  9  1  0  0  0
  9 10  1  0  0  0
 10 11  1  0  0  0
  8 12  1  0  0  0
 12 13  2  0  0  0
 13 14  1  0  0  0
 14 15  2  0  0  0
 15 16  1  0  0  0
 16 17  2  0  0  0
 17 18  1  0  0  0
 18 19  1  0  0  0
 18 20  1  0  0  0
 18 21  1  0  0  0
  3 22  1  0  0  0
 22 23  1  0  0  0
 23 24  1  0  0  0
 24 25  1  0  0  0
 25 26  1  0  0  0
 32 33  1  0  0  0
 33 34  2  0  0  0
 34 29  1  0  0  0
 11  1  1  0  0  0
 17 12  1  0  0  0
 26 22  1  0  0  0
 11  5  2  0  0  0
 27 28  1  0  0  0
M  END
> <minimizedAffinity>
-10.72531

> <CNNscore>
0.3265048862

> <CNNaffinity>
7.4292516708

> <CNN_VS>
2.4256870747

> <CNNaffinity_variance>
0.0276303347

$$$$
[H]c1nc(N2C([H])([H])C([H])([H])c3nc(N4C([H])([H])C([H])([H])C([H])([H])C4([H])[H])nc(N([H])c4nc([H])c(C(F)(F)F)c([H])c4[H])c3C([H])([H])C2([H])[H])c(C(F)(F)F)c([H])c1[H]


 38 42  0  0  0  0  0  0  0  0999 V2000
  155.0010  139.1608  184.4756 C   0  0  0  0  0  0  0  0  0  0  0  0
  155.3048  138.7875  185.7302 N   0  0  0  0  0  0  0  0  0  0  0  0
  154.5900  137.8701  186.3953 C   0  0  0  0  0  0  0  0  0  0  0  0
  153.4981  137.2658  185.8120 N   0  0  0  0  0  0  0  0  0  0  0  0
  153.1350  137.5891  184.5702 C   0  0  0  0  0  0  0  0  0  0  0  0
  151.9563  136.8081  184.1022 C   0  0  0  0  0  0  0  0  0  0  0  0
  151.9647  136.7656  182.5454 C   0  0  0  0  0  0  0  0  0  0  0  0
  151.4628  138.0602  182.0956 N   0  0  0  0  0  0  0  0  0  0  0  0
  152.0522  139.3084  182.4953 C   0  0  0  0  0  0  0  0  0  0  0  0
  153.5674  139.1246  182.5879 C   0  0  0  0  0  0  0  0  0  0  0  0
  153.8735  138.5292  183.9069 C   0  0  0  0  0  0  0  0  0  0  0  0
  150.3248  138.0229  181.2514 C   0  0  0  0  0  0  0  0  0  0  0  0
  149.2938  137.1929  181.6185 N   0  0  0  0  0  0  0  0  0  0  0  0
  148.1865  137.0728  180.8856 C   0  0  0  0  0  0  0  0  0  0  0  0
  148.0424  137.7884  179.7229 C   0  0  0  0  0  0  0  0  0  0  0  0
  149.0403  138.6292  179.3120 C   0  0  0  0  0  0  0  0  0  0  0  0
  150.2089  138.7521  180.0923 C   0  0  0  0  0  0  0  0  0  0  0  0
  151.2452  139.6929  179.6421 C   0  0  0  0  0  0  0  0  0  0  0  0
  151.3011  140.8588  180.4079 F   0  0  0  0  0  0  0  0  0  0  0  0
  152.4835  139.1402  179.4311 F   0  0  0  0  0  0  0  0  0  0  0  0
  150.8588  140.1799  178.3719 F   0  0  0  0  0  0  0  0  0  0  0  0
  154.9279  137.4783  187.6899 N   0  0  0  0  0  0  0  0  0  0  0  0
  154.0370  137.4813  188.8560 C   0  0  0  0  0  0  0  0  0  0  0  0
  154.8460  138.4093  189.7598 C   0  0  0  0  0  0  0  0  0  0  0  0
  156.2849  138.0478  189.4257 C   0  0  0  0  0  0  0  0  0  0  0  0
  156.1899  137.0614  188.2382 C   0  0  0  0  0  0  0  0  0  0  0  0
  155.8147  139.9491  183.6642 N   0  0  0  0  0  0  0  0  0  0  0  0
  155.3686  140.2219  182.7079 H   0  0  0  0  0  0  0  0  0  0  0  0
  159.6867  141.4915  184.3091 C   0  0  0  0  0  0  0  0  0  0  0  0
  159.5483  140.1976  183.8891 C   0  0  0  0  0  0  0  0  0  0  0  0
  158.2808  139.6436  183.6454 C   0  0  0  0  0  0  0  0  0  0  0  0
  157.1496  140.3785  183.8194 C   0  0  0  0  0  0  0  0  0  0  0  0
  157.3534  141.6752  184.2427 N   0  0  0  0  0  0  0  0  0  0  0  0
  158.5181  142.2296  184.4807 C   0  0  0  0  0  0  0  0  0  0  0  0
  160.9443  143.4507  184.2653 F   0  0  0  0  0  0  0  0  0  0  0  0
  161.0021  142.1123  184.6210 C   0  0  0  0  0  0  0  0  0  0  0  0
  161.1742  142.0090  186.0074 F   0  0  0  0  0  0  0  0  0  0  0  0
  162.0417  141.5408  183.9592 F   0  0  0  0  0  0  0  0  0  0  0  0
 35 36  1  0  0  0
 36 37  1  0  0  0
 36 38  1  0  0  0
 36 29  1  0  0  0
 29 30  2  0  0  0
 30 31  1  0  0  0
 31 32  2  0  0  0
 32 27  1  0  0  0
 27  1  1  0  0  0
  1  2  2  0  0  0
  2  3  1  0  0  0
  3  4  2  0  0  0
  4  5  1  0  0  0
  5  6  1  0  0  0
  6  7  1  0  0  0
  7  8  1  0  0  0
  8  9  1  0  0  0
  9 10  1  0  0  0
 10 11  1  0  0  0
  8 12  1  0  0  0
 12 13  2  0  0  0
 13 14  1  0  0  0
 14 15  2  0  0  0
 15 16  1  0  0  0
 16 17  2  0  0  0
 17 18  1  0  0  0
 18 19  1  0  0  0
 18 20  1  0  0  0
 18 21  1  0  0  0
  3 22  1  0  0  0
 22 23  1  0  0  0
 23 24  1  0  0  0
 24 25  1  0  0  0
 25 26  1  0  0  0
 32 33  1  0  0  0
 33 34  2  0  0  0
 34 29  1  0  0  0
 11  1  1  0  0  0
 17 12  1  0  0  0
 26 22  1  0  0  0
 11  5  2  0  0  0
 27 28  1  0  0  0
M  END
> <minimizedAffinity>
-9.74249

> <CNNscore>
0.3065154552

> <CNNaffinity>
6.7518706322

> <CNN_VS>
2.0695526600

> <CNNaffinity_variance>
0.0918629989

$$$$
[H]c1nc(N2C([H])([H])C([H])([H])c3nc(N4C([H])([H])C([H])([H])C([H])([H])C4([H])[H])nc(N([H])c4nc([H])c(C(F)(F)F)c([H])c4[H])c3C([H])([H])C2([H])[H])c(C(F)(F)F)c([H])c1[H]


 38 42  0  0  0  0  0  0  0  0999 V2000
  154.0610  138.3333  184.2659 C   0  0  0  0  0  0  0  0  0  0  0  0
  154.8944  139.1883  183.6494 N   0  0  0  0  0  0  0  0  0  0  0  0
  156.0286  139.6165  184.2198 C   0  0  0  0  0  0  0  0  0  0  0  0
  156.3896  139.1931  185.4799 N   0  0  0  0  0  0  0  0  0  0  0  0
  155.6093  138.3471  186.1537 C   0  0  0  0  0  0  0  0  0  0  0  0
  156.1816  137.9800  187.4788 C   0  0  0  0  0  0  0  0  0  0  0  0
  155.5952  136.6060  187.9188 C   0  0  0  0  0  0  0  0  0  0  0  0
  154.2494  136.8732  188.4164 N   0  0  0  0  0  0  0  0  0  0  0  0
  153.2449  137.5391  187.6337 C   0  0  0  0  0  0  0  0  0  0  0  0
  153.3917  137.0997  186.1765 C   0  0  0  0  0  0  0  0  0  0  0  0
  154.4542  137.9224  185.5582 C   0  0  0  0  0  0  0  0  0  0  0  0
  153.9886  136.4599  189.7470 C   0  0  0  0  0  0  0  0  0  0  0  0
  153.3944  135.2340  189.9219 N   0  0  0  0  0  0  0  0  0  0  0  0
  153.0924  134.7598  191.1308 C   0  0  0  0  0  0  0  0  0  0  0  0
  153.3724  135.4959  192.2552 C   0  0  0  0  0  0  0  0  0  0  0  0
  153.9636  136.7238  192.1363 C   0  0  0  0  0  0  0  0  0  0  0  0
  154.2809  137.2195  190.8544 C   0  0  0  0  0  0  0  0  0  0  0  0
  154.9503  138.5255  190.7641 C   0  0  0  0  0  0  0  0  0  0  0  0
  156.3431  138.4323  190.7704 F   0  0  0  0  0  0  0  0  0  0  0  0
  154.4812  139.3548  189.7764 F   0  0  0  0  0  0  0  0  0  0  0  0
  154.6856  139.2261  191.9637 F   0  0  0  0  0  0  0  0  0  0  0  0
  156.8938  140.4888  183.5609 N   0  0  0  0  0  0  0  0  0  0  0  0
  156.5608  141.8297  183.0665 C   0  0  0  0  0  0  0  0  0  0  0  0
  156.8970  141.6199  181.5915 C   0  0  0  0  0  0  0  0  0  0  0  0
  158.0987  140.6891  181.6408 C   0  0  0  0  0  0  0  0  0  0  0  0
  158.2535  140.3053  183.1311 C   0  0  0  0  0  0  0  0  0  0  0  0
  152.9824  137.6978  183.6539 N   0  0  0  0  0  0  0  0  0  0  0  0
  152.7527  136.7114  184.0568 H   0  0  0  0  0  0  0  0  0  0  0  0
  150.4003  138.5590  180.4324 C   0  0  0  0  0  0  0  0  0  0  0  0
  151.3831  139.4536  180.7536 C   0  0  0  0  0  0  0  0  0  0  0  0
  152.2775  139.2043  181.8077 C   0  0  0  0  0  0  0  0  0  0  0  0
  152.1938  138.0629  182.5424 C   0  0  0  0  0  0  0  0  0  0  0  0
  151.1842  137.2001  182.1704 N   0  0  0  0  0  0  0  0  0  0  0  0
  150.3302  137.3951  181.1942 C   0  0  0  0  0  0  0  0  0  0  0  0
  149.0717  137.5694  178.7959 F   0  0  0  0  0  0  0  0  0  0  0  0
  149.4029  138.7943  179.3540 C   0  0  0  0  0  0  0  0  0  0  0  0
  148.2707  139.3435  179.9695 F   0  0  0  0  0  0  0  0  0  0  0  0
  149.8573  139.6044  178.3628 F   0  0  0  0  0  0  0  0  0  0  0  0
 35 36  1  0  0  0
 36 37  1  0  0  0
 36 38  1  0  0  0
 36 29  1  0  0  0
 29 30  2  0  0  0
 30 31  1  0  0  0
 31 32  2  0  0  0
 32 27  1  0  0  0
 27  1  1  0  0  0
  1  2  2  0  0  0
  2  3  1  0  0  0
  3  4  2  0  0  0
  4  5  1  0  0  0
  5  6  1  0  0  0
  6  7  1  0  0  0
  7  8  1  0  0  0
  8  9  1  0  0  0
  9 10  1  0  0  0
 10 11  1  0  0  0
  8 12  1  0  0  0
 12 13  2  0  0  0
 13 14  1  0  0  0
 14 15  2  0  0  0
 15 16  1  0  0  0
 16 17  2  0  0  0
 17 18  1  0  0  0
 18 19  1  0  0  0
 18 20  1  0  0  0
 18 21  1  0  0  0
  3 22  1  0  0  0
 22 23  1  0  0  0
 23 24  1  0  0  0
 24 25  1  0  0  0
 25 26  1  0  0  0
 32 33  1  0  0  0
 33 34  2  0  0  0
 34 29  1  0  0  0
 11  1  1  0  0  0
 17 12  1  0  0  0
 26 22  1  0  0  0
 11  5  2  0  0  0
 27 28  1  0  0  0
M  END
> <minimizedAffinity>
-9.04922

> <CNNscore>
0.2947081625

> <CNNaffinity>
6.6240186691

> <CNN_VS>
1.9521523714

> <CNNaffinity_variance>
0.0666284189

$$$$
[H]c1nc(N2C([H])([H])C([H])([H])c3nc(N4C([H])([H])C([H])([H])C([H])([H])C4([H])[H])nc(N([H])c4nc([H])c(C(F)(F)F)c([H])c4[H])c3C([H])([H])C2([H])[H])c(C(F)(F)F)c([H])c1[H]


 38 42  0  0  0  0  0  0  0  0999 V2000
  154.1109  136.3163  184.1839 C   0  0  0  0  0  0  0  0  0  0  0  0
  154.2293  135.4691  183.1476 N   0  0  0  0  0  0  0  0  0  0  0  0
  154.6025  134.1924  183.3080 C   0  0  0  0  0  0  0  0  0  0  0  0
  154.8859  133.6907  184.5591 N   0  0  0  0  0  0  0  0  0  0  0  0
  154.7933  134.4745  185.6341 C   0  0  0  0  0  0  0  0  0  0  0  0
  155.1046  133.7466  186.8956 C   0  0  0  0  0  0  0  0  0  0  0  0
  154.4159  134.4798  188.0846 C   0  0  0  0  0  0  0  0  0  0  0  0
  155.2440  135.6432  188.3860 N   0  0  0  0  0  0  0  0  0  0  0  0
  155.5814  136.6373  187.4046 C   0  0  0  0  0  0  0  0  0  0  0  0
  154.3796  136.8380  186.4808 C   0  0  0  0  0  0  0  0  0  0  0  0
  154.4141  135.7754  185.4523 C   0  0  0  0  0  0  0  0  0  0  0  0
  155.7310  135.7282  189.7144 C   0  0  0  0  0  0  0  0  0  0  0  0
  156.7066  134.8361  190.0871 N   0  0  0  0  0  0  0  0  0  0  0  0
  157.2202  134.8218  191.3174 C   0  0  0  0  0  0  0  0  0  0  0  0
  156.7812  135.7145  192.2634 C   0  0  0  0  0  0  0  0  0  0  0  0
  155.8105  136.6240  191.9438 C   0  0  0  0  0  0  0  0  0  0  0  0
  155.2718  136.6342  190.6402 C   0  0  0  0  0  0  0  0  0  0  0  0
  154.2578  137.6492  190.3189 C   0  0  0  0  0  0  0  0  0  0  0  0
  154.7736  138.7406  189.6178 F   0  0  0  0  0  0  0  0  0  0  0  0
  153.1013  137.1633  189.7625 F   0  0  0  0  0  0  0  0  0  0  0  0
  153.8402  138.2373  191.5353 F   0  0  0  0  0  0  0  0  0  0  0  0
  154.7028  133.3190  182.2259 N   0  0  0  0  0  0  0  0  0  0  0  0
  155.8812  133.1296  181.3721 C   0  0  0  0  0  0  0  0  0  0  0  0
  155.2498  133.4862  180.0280 C   0  0  0  0  0  0  0  0  0  0  0  0
  153.8357  132.9416  180.1559 C   0  0  0  0  0  0  0  0  0  0  0  0
  153.7159  132.4651  181.6225 C   0  0  0  0  0  0  0  0  0  0  0  0
  153.5368  137.5839  184.1097 N   0  0  0  0  0  0  0  0  0  0  0  0
  153.5720  138.1497  185.0406 H   0  0  0  0  0  0  0  0  0  0  0  0
  151.1640  139.3328  181.0933 C   0  0  0  0  0  0  0  0  0  0  0  0
  152.3370  139.9380  181.4506 C   0  0  0  0  0  0  0  0  0  0  0  0
  153.1691  139.3857  182.4383 C   0  0  0  0  0  0  0  0  0  0  0  0
  152.8336  138.2292  183.0706 C   0  0  0  0  0  0  0  0  0  0  0  0
  151.6412  137.6660  182.6669 N   0  0  0  0  0  0  0  0  0  0  0  0
  150.8371  138.1489  181.7500 C   0  0  0  0  0  0  0  0  0  0  0  0
  148.9393  139.7951  180.5845 F   0  0  0  0  0  0  0  0  0  0  0  0
  150.2281  139.8980  180.0846 C   0  0  0  0  0  0  0  0  0  0  0  0
  150.5626  141.2509  179.9427 F   0  0  0  0  0  0  0  0  0  0  0  0
  150.2719  139.2591  178.8866 F   0  0  0  0  0  0  0  0  0  0  0  0
 35 36  1  0  0  0
 36 37  1  0  0  0
 36 38  1  0  0  0
 36 29  1  0  0  0
 29 30  2  0  0  0
 30 31  1  0  0  0
 31 32  2  0  0  0
 32 27  1  0  0  0
 27  1  1  0  0  0
  1  2  2  0  0  0
  2  3  1  0  0  0
  3  4  2  0  0  0
  4  5  1  0  0  0
  5  6  1  0  0  0
  6  7  1  0  0  0
  7  8  1  0  0  0
  8  9  1  0  0  0
  9 10  1  0  0  0
 10 11  1  0  0  0
  8 12  1  0  0  0
 12 13  2  0  0  0
 13 14  1  0  0  0
 14 15  2  0  0  0
 15 16  1  0  0  0
 16 17  2  0  0  0
 17 18  1  0  0  0
 18 19  1  0  0  0
 18 20  1  0  0  0
 18 21  1  0  0  0
  3 22  1  0  0  0
 22 23  1  0  0  0
 23 24  1  0  0  0
 24 25  1  0  0  0
 25 26  1  0  0  0
 32 33  1  0  0  0
 33 34  2  0  0  0
 34 29  1  0  0  0
 11  1  1  0  0  0
 17 12  1  0  0  0
 26 22  1  0  0  0
 11  5  2  0  0  0
 27 28  1  0  0  0
M  END
> <minimizedAffinity>
-7.24572

> <CNNscore>
0.2860778868

> <CNNaffinity>
6.2771143913

> <CNN_VS>
1.7957435846

> <CNNaffinity_variance>
0.0645814091

$$$$
[H]c1nc(N2C([H])([H])C([H])([H])c3nc(N4C([H])([H])C([H])([H])C([H])([H])C4([H])[H])nc(N([H])c4nc([H])c(C(F)(F)F)c([H])c4[H])c3C([H])([H])C2([H])[H])c(C(F)(F)F)c([H])c1[H]


 38 42  0  0  0  0  0  0  0  0999 V2000
  154.5990  139.1184  184.1082 C   0  0  0  0  0  0  0  0  0  0  0  0
  153.4198  138.9995  183.4749 N   0  0  0  0  0  0  0  0  0  0  0  0
  153.1012  139.7502  182.4119 C   0  0  0  0  0  0  0  0  0  0  0  0
  153.9813  140.6887  181.9200 N   0  0  0  0  0  0  0  0  0  0  0  0
  155.1692  140.8646  182.5000 C   0  0  0  0  0  0  0  0  0  0  0  0
  155.9915  141.8956  181.8077 C   0  0  0  0  0  0  0  0  0  0  0  0
  157.4955  141.6298  182.1122 C   0  0  0  0  0  0  0  0  0  0  0  0
  157.7388  142.1373  183.4589 N   0  0  0  0  0  0  0  0  0  0  0  0
  156.9851  141.7066  184.6041 C   0  0  0  0  0  0  0  0  0  0  0  0
  156.6712  140.2181  184.4494 C   0  0  0  0  0  0  0  0  0  0  0  0
  155.4771  140.0925  183.5854 C   0  0  0  0  0  0  0  0  0  0  0  0
  158.7567  143.1167  183.5761 C   0  0  0  0  0  0  0  0  0  0  0  0
  158.6141  144.2665  182.8384 N   0  0  0  0  0  0  0  0  0  0  0  0
  159.5225  145.2420  182.8651 C   0  0  0  0  0  0  0  0  0  0  0  0
  160.6460  145.1233  183.6449 C   0  0  0  0  0  0  0  0  0  0  0  0
  160.8366  143.9977  184.3988 C   0  0  0  0  0  0  0  0  0  0  0  0
  159.8714  142.9697  184.3665 C   0  0  0  0  0  0  0  0  0  0  0  0
  160.0881  141.7906  185.2177 C   0  0  0  0  0  0  0  0  0  0  0  0
  159.3420  141.8180  186.3973 F   0  0  0  0  0  0  0  0  0  0  0  0
  160.0101  140.5822  184.5720 F   0  0  0  0  0  0  0  0  0  0  0  0
  161.4178  141.8463  185.6959 F   0  0  0  0  0  0  0  0  0  0  0  0
  151.8816  139.6030  181.7526 N   0  0  0  0  0  0  0  0  0  0  0  0
  150.8243  138.6434  182.0913 C   0  0  0  0  0  0  0  0  0  0  0  0
  150.7495  137.9045  180.7567 C   0  0  0  0  0  0  0  0  0  0  0  0
  151.0069  139.0046  179.7387 C   0  0  0  0  0  0  0  0  0  0  0  0
  151.3742  140.2530  180.5748 C   0  0  0  0  0  0  0  0  0  0  0  0
  155.0686  138.2378  185.0808 N   0  0  0  0  0  0  0  0  0  0  0  0
  155.5614  137.3500  184.6848 H   0  0  0  0  0  0  0  0  0  0  0  0
  155.0094  138.2750  189.2977 C   0  0  0  0  0  0  0  0  0  0  0  0
  153.8572  138.5498  188.6146 C   0  0  0  0  0  0  0  0  0  0  0  0
  153.8228  138.5340  187.2104 C   0  0  0  0  0  0  0  0  0  0  0  0
  154.9363  138.2438  186.4854 C   0  0  0  0  0  0  0  0  0  0  0  0
  156.0657  137.9747  187.2298 N   0  0  0  0  0  0  0  0  0  0  0  0
  156.1395  137.9787  188.5394 C   0  0  0  0  0  0  0  0  0  0  0  0
  154.1554  137.4608  191.3052 F   0  0  0  0  0  0  0  0  0  0  0  0
  155.1092  138.3195  190.7813 C   0  0  0  0  0  0  0  0  0  0  0  0
  156.3866  137.8481  191.1104 F   0  0  0  0  0  0  0  0  0  0  0  0
  154.8996  139.5566  191.3018 F   0  0  0  0  0  0  0  0  0  0  0  0
 35 36  1  0  0  0
 36 37  1  0  0  0
 36 38  1  0  0  0
 36 29  1  0  0  0
 29 30  2  0  0  0
 30 31  1  0  0  0
 31 32  2  0  0  0
 32 27  1  0  0  0
 27  1  1  0  0  0
  1  2  2  0  0  0
  2  3  1  0  0  0
  3  4  2  0  0  0
  4  5  1  0  0  0
  5  6  1  0  0  0
  6  7  1  0  0  0
  7  8  1  0  0  0
  8  9  1  0  0  0
  9 10  1  0  0  0
 10 11  1  0  0  0
  8 12  1  0  0  0
 12 13  2  0  0  0
 13 14  1  0  0  0
 14 15  2  0  0  0
 15 16  1  0  0  0
 16 17  2  0  0  0
 17 18  1  0  0  0
 18 19  1  0  0  0
 18 20  1  0  0  0
 18 21  1  0  0  0
  3 22  1  0  0  0
 22 23  1  0  0  0
 23 24  1  0  0  0
 24 25  1  0  0  0
 25 26  1  0  0  0
 32 33  1  0  0  0
 33 34  2  0  0  0
 34 29  1  0  0  0
 11  1  1  0  0  0
 17 12  1  0  0  0
 26 22  1  0  0  0
 11  5  2  0  0  0
 27 28  1  0  0  0
M  END
> <minimizedAffinity>
-11.08108

> <CNNscore>
0.2819552422

> <CNNaffinity>
7.3983240128

> <CNN_VS>
2.0859961510

> <CNNaffinity_variance>
0.0445140116

$$$$
[H]c1nc(N2C([H])([H])C([H])([H])c3nc(N4C([H])([H])C([H])([H])C([H])([H])C4([H])[H])nc(N([H])c4nc([H])c(C(F)(F)F)c([H])c4[H])c3C([H])([H])C2([H])[H])c(C(F)(F)F)c([H])c1[H]


 38 42  0  0  0  0  0  0  0  0999 V2000
  155.1343  138.7326  184.4419 C   0  0  0  0  0  0  0  0  0  0  0  0
  156.1650  139.5876  184.3308 N   0  0  0  0  0  0  0  0  0  0  0  0
  156.1558  140.6084  183.4631 C   0  0  0  0  0  0  0  0  0  0  0  0
  155.0748  140.8240  182.6370 N   0  0  0  0  0  0  0  0  0  0  0  0
  154.0171  140.0135  182.6892 C   0  0  0  0  0  0  0  0  0  0  0  0
  152.9389  140.4263  181.7481 C   0  0  0  0  0  0  0  0  0  0  0  0
  151.5787  139.8702  182.2638 C   0  0  0  0  0  0  0  0  0  0  0  0
  151.5478  138.4568  181.9012 N   0  0  0  0  0  0  0  0  0  0  0  0
  152.5700  137.5267  182.2951 C   0  0  0  0  0  0  0  0  0  0  0  0
  153.0451  137.8913  183.7020 C   0  0  0  0  0  0  0  0  0  0  0  0
  154.0441  138.9751  183.5781 C   0  0  0  0  0  0  0  0  0  0  0  0
  150.4516  138.0473  181.1012 C   0  0  0  0  0  0  0  0  0  0  0  0
  149.6874  137.0042  181.5643 N   0  0  0  0  0  0  0  0  0  0  0  0
  148.6446  136.5325  180.8805 C   0  0  0  0  0  0  0  0  0  0  0  0
  148.2984  137.0862  179.6730 C   0  0  0  0  0  0  0  0  0  0  0  0
  149.0272  138.1272  179.1664 C   0  0  0  0  0  0  0  0  0  0  0  0
  150.1290  138.6218  179.8952 C   0  0  0  0  0  0  0  0  0  0  0  0
  150.8674  139.7659  179.3408 C   0  0  0  0  0  0  0  0  0  0  0  0
  150.5652  140.9744  179.9709 F   0  0  0  0  0  0  0  0  0  0  0  0
  152.2177  139.5720  179.1911 F   0  0  0  0  0  0  0  0  0  0  0  0
  150.3973  139.9818  178.0246 F   0  0  0  0  0  0  0  0  0  0  0  0
  157.2242  141.4993  183.3717 N   0  0  0  0  0  0  0  0  0  0  0  0
  157.4474  142.4770  182.3004 C   0  0  0  0  0  0  0  0  0  0  0  0
  158.8194  141.9956  181.8332 C   0  0  0  0  0  0  0  0  0  0  0  0
  159.4860  141.5481  183.1249 C   0  0  0  0  0  0  0  0  0  0  0  0
  158.3850  141.6516  184.2063 C   0  0  0  0  0  0  0  0  0  0  0  0
  154.9964  137.7847  185.4541 N   0  0  0  0  0  0  0  0  0  0  0  0
  154.8647  136.7626  185.0994 H   0  0  0  0  0  0  0  0  0  0  0  0
  155.0504  138.1839  189.6523 C   0  0  0  0  0  0  0  0  0  0  0  0
  153.9185  138.5279  188.9667 C   0  0  0  0  0  0  0  0  0  0  0  0
  153.8463  138.3978  187.5699 C   0  0  0  0  0  0  0  0  0  0  0  0
  154.9018  137.9240  186.8549 C   0  0  0  0  0  0  0  0  0  0  0  0
  156.0133  137.5933  187.6014 N   0  0  0  0  0  0  0  0  0  0  0  0
  156.1208  137.6994  188.9043 C   0  0  0  0  0  0  0  0  0  0  0  0
  156.4903  138.0013  191.4731 F   0  0  0  0  0  0  0  0  0  0  0  0
  155.1927  138.3418  191.1247 C   0  0  0  0  0  0  0  0  0  0  0  0
  154.9794  139.6979  191.4037 F   0  0  0  0  0  0  0  0  0  0  0  0
  154.3415  137.5599  191.8384 F   0  0  0  0  0  0  0  0  0  0  0  0
 35 36  1  0  0  0
 36 37  1  0  0  0
 36 38  1  0  0  0
 36 29  1  0  0  0
 29 30  2  0  0  0
 30 31  1  0  0  0
 31 32  2  0  0  0
 32 27  1  0  0  0
 27  1  1  0  0  0
  1  2  2  0  0  0
  2  3  1  0  0  0
  3  4  2  0  0  0
  4  5  1  0  0  0
  5  6  1  0  0  0
  6  7  1  0  0  0
  7  8  1  0  0  0
  8  9  1  0  0  0
  9 10  1  0  0  0
 10 11  1  0  0  0
  8 12  1  0  0  0
 12 13  2  0  0  0
 13 14  1  0  0  0
 14 15  2  0  0  0
 15 16  1  0  0  0
 16 17  2  0  0  0
 17 18  1  0  0  0
 18 19  1  0  0  0
 18 20  1  0  0  0
 18 21  1  0  0  0
  3 22  1  0  0  0
 22 23  1  0  0  0
 23 24  1  0  0  0
 24 25  1  0  0  0
 25 26  1  0  0  0
 32 33  1  0  0  0
 33 34  2  0  0  0
 34 29  1  0  0  0
 11  1  1  0  0  0
 17 12  1  0  0  0
 26 22  1  0  0  0
 11  5  2  0  0  0
 27 28  1  0  0  0
M  END
> <minimizedAffinity>
-10.12465

> <CNNscore>
0.2716482282

> <CNNaffinity>
6.7167482376

> <CNN_VS>
1.8245927095

> <CNNaffinity_variance>
0.0469407775

$$$$
[H]c1nc(N2C([H])([H])C([H])([H])c3nc(N4C([H])([H])C([H])([H])C([H])([H])C([H])([H])C4([H])[H])nc(N([H])c4c([H])c([H])c(C(F)(F)F)c(Cl)c4[H])c3C([H])([H])C2([H])[H])c(C(F)(F)F)c([H])c1[H]


 40 44  0  0  0  0  0  0  0  0999 V2000
  154.5232  138.4788  184.4511 C   0  0  0  0  0  0  0  0  0  0  0  0
  155.6344  139.2475  184.4841 N   0  0  0  0  0  0  0  0  0  0  0  0
  155.9260  140.2222  183.6120 C   0  0  0  0  0  0  0  0  0  0  0  0
  155.0120  140.4325  182.6252 N   0  0  0  0  0  0  0  0  0  0  0  0
  153.9009  139.7377  182.5078 C   0  0  0  0  0  0  0  0  0  0  0  0
  153.0151  140.1455  181.3575 C   0  0  0  0  0  0  0  0  0  0  0  0
  151.5924  140.2898  181.8669 C   0  0  0  0  0  0  0  0  0  0  0  0
  150.9792  138.9994  181.9387 N   0  0  0  0  0  0  0  0  0  0  0  0
  151.5949  137.7755  182.3048 C   0  0  0  0  0  0  0  0  0  0  0  0
  152.4922  137.8085  183.5118 C   0  0  0  0  0  0  0  0  0  0  0  0
  153.6199  138.7222  183.4328 C   0  0  0  0  0  0  0  0  0  0  0  0
  149.6006  138.9344  181.6245 C   0  0  0  0  0  0  0  0  0  0  0  0
  148.7841  138.8434  182.7271 N   0  0  0  0  0  0  0  0  0  0  0  0
  147.4599  138.7884  182.6725 C   0  0  0  0  0  0  0  0  0  0  0  0
  146.8756  138.8257  181.4290 C   0  0  0  0  0  0  0  0  0  0  0  0
  147.6498  138.9158  180.3029 C   0  0  0  0  0  0  0  0  0  0  0  0
  149.0502  138.9726  180.3773 C   0  0  0  0  0  0  0  0  0  0  0  0
  149.8796  139.0531  179.1793 C   0  0  0  0  0  0  0  0  0  0  0  0
  149.2008  138.9454  177.9832 F   0  0  0  0  0  0  0  0  0  0  0  0
  150.3262  140.4128  179.1413 F   0  0  0  0  0  0  0  0  0  0  0  0
  151.0370  138.3499  179.2547 F   0  0  0  0  0  0  0  0  0  0  0  0
  157.0947  141.0162  183.6667 N   0  0  0  0  0  0  0  0  0  0  0  0
  157.4209  141.8306  182.5486 C   0  0  0  0  0  0  0  0  0  0  0  0
  158.5061  142.8331  182.7847 C   0  0  0  0  0  0  0  0  0  0  0  0
  159.5548  142.4158  183.7490 C   0  0  0  0  0  0  0  0  0  0  0  0
  159.3714  141.0540  184.3411 C   0  0  0  0  0  0  0  0  0  0  0  0
  157.9238  140.9858  184.8449 C   0  0  0  0  0  0  0  0  0  0  0  0
  154.3031  137.5072  185.4646 N   0  0  0  0  0  0  0  0  0  0  0  0
  153.7972  136.6177  185.1423 H   0  0  0  0  0  0  0  0  0  0  0  0
  155.1068  137.8807  189.5831 C   0  0  0  0  0  0  0  0  0  0  0  0
  154.1663  138.6487  188.9455 C   0  0  0  0  0  0  0  0  0  0  0  0
  153.9536  138.4871  187.6063 C   0  0  0  0  0  0  0  0  0  0  0  0
  154.6527  137.5604  186.8107 C   0  0  0  0  0  0  0  0  0  0  0  0
  155.5871  136.8020  187.4647 C   0  0  0  0  0  0  0  0  0  0  0  0
  155.8002  136.9695  188.8250 C   0  0  0  0  0  0  0  0  0  0  0  0
  157.0049  135.9806  189.6250 Cl  0  0  0  0  0  0  0  0  0  0  0  0
  154.7074  137.0310  191.7205 F   0  0  0  0  0  0  0  0  0  0  0  0
  155.3521  138.0457  191.0456 C   0  0  0  0  0  0  0  0  0  0  0  0
  154.7576  139.2347  191.4774 F   0  0  0  0  0  0  0  0  0  0  0  0
  156.6766  138.1105  191.3459 F   0  0  0  0  0  0  0  0  0  0  0  0
 37 38  1  0  0  0
 38 39  1  0  0  0
 38 40  1  0  0  0
 38 30  1  0  0  0
 30 31  2  0  0  0
 31 32  1  0  0  0
 32 33  2  0  0  0
 33 28  1  0  0  0
 28  1  1  0  0  0
  1  2  2  0  0  0
  2  3  1  0  0  0
  3  4  2  0  0  0
  4  5  1  0  0  0
  5  6  1  0  0  0
  6  7  1  0  0  0
  7  8  1  0  0  0
  8  9  1  0  0  0
  9 10  1  0  0  0
 10 11  1  0  0  0
  8 12  1  0  0  0
 12 13  2  0  0  0
 13 14  1  0  0  0
 14 15  2  0  0  0
 15 16  1  0  0  0
 16 17  2  0  0  0
 17 18  1  0  0  0
 18 19  1  0  0  0
 18 20  1  0  0  0
 18 21  1  0  0  0
  3 22  1  0  0  0
 22 23  1  0  0  0
 23 24  1  0  0  0
 24 25  1  0  0  0
 25 26  1  0  0  0
 26 27  1  0  0  0
 33 34  1  0  0  0
 34 35  2  0  0  0
 35 36  1  0  0  0
 35 30  1  0  0  0
 11  1  1  0  0  0
 17 12  1  0  0  0
 27 22  1  0  0  0
 11  5  2  0  0  0
 28 29  1  0  0  0
M  END
> <minimizedAffinity>
-10.12410

> <CNNscore>
0.5550740957

> <CNNaffinity>
7.2860183716

> <CNN_VS>
4.0442800522

> <CNNaffinity_variance>
0.0323688276

$$$$
[H]c1nc(N2C([H])([H])C([H])([H])c3nc(N4C([H])([H])C([H])([H])C([H])([H])C([H])([H])C4([H])[H])nc(N([H])c4c([H])c([H])c(C(F)(F)F)c(Cl)c4[H])c3C([H])([H])C2([H])[H])c(C(F)(F)F)c([H])c1[H]


 40 44  0  0  0  0  0  0  0  0999 V2000
  153.7628  138.7297  184.1562 C   0  0  0  0  0  0  0  0  0  0  0  0
  154.8576  139.5216  184.1883 N   0  0  0  0  0  0  0  0  0  0  0  0
  155.2462  140.3434  183.2037 C   0  0  0  0  0  0  0  0  0  0  0  0
  154.4560  140.3613  182.0952 N   0  0  0  0  0  0  0  0  0  0  0  0
  153.3709  139.6281  181.9680 C   0  0  0  0  0  0  0  0  0  0  0  0
  152.6272  139.8139  180.6694 C   0  0  0  0  0  0  0  0  0  0  0  0
  151.1529  140.0048  180.9765 C   0  0  0  0  0  0  0  0  0  0  0  0
  150.5429  138.7292  181.1939 N   0  0  0  0  0  0  0  0  0  0  0  0
  151.1171  137.6005  181.8320 C   0  0  0  0  0  0  0  0  0  0  0  0
  151.8630  137.8589  183.1126 C   0  0  0  0  0  0  0  0  0  0  0  0
  152.9868  138.7753  183.0125 C   0  0  0  0  0  0  0  0  0  0  0  0
  149.2123  138.5768  180.7359 C   0  0  0  0  0  0  0  0  0  0  0  0
  149.1176  138.2685  179.3992 N   0  0  0  0  0  0  0  0  0  0  0  0
  147.9735  138.0634  178.7600 C   0  0  0  0  0  0  0  0  0  0  0  0
  146.8134  138.1679  179.4894 C   0  0  0  0  0  0  0  0  0  0  0  0
  146.8598  138.4734  180.8237 C   0  0  0  0  0  0  0  0  0  0  0  0
  148.0786  138.6881  181.4857 C   0  0  0  0  0  0  0  0  0  0  0  0
  148.1318  139.0289  182.9036 C   0  0  0  0  0  0  0  0  0  0  0  0
  148.2673  140.3730  183.1830 F   0  0  0  0  0  0  0  0  0  0  0  0
  146.8116  138.7607  183.3882 F   0  0  0  0  0  0  0  0  0  0  0  0
  148.9076  138.2010  183.6470 F   0  0  0  0  0  0  0  0  0  0  0  0
  156.3953  141.1653  183.2595 N   0  0  0  0  0  0  0  0  0  0  0  0
  157.2042  141.1313  184.4276 C   0  0  0  0  0  0  0  0  0  0  0  0
  158.5308  141.8121  184.3048 C   0  0  0  0  0  0  0  0  0  0  0  0
  158.5576  142.9882  183.3994 C   0  0  0  0  0  0  0  0  0  0  0  0
  157.2536  143.3190  182.7446 C   0  0  0  0  0  0  0  0  0  0  0  0
  156.7220  142.0126  182.1405 C   0  0  0  0  0  0  0  0  0  0  0  0
  153.4282  137.9366  185.2869 N   0  0  0  0  0  0  0  0  0  0  0  0
  152.5817  137.2905  185.1571 H   0  0  0  0  0  0  0  0  0  0  0  0
  155.0554  137.9878  189.1725 C   0  0  0  0  0  0  0  0  0  0  0  0
  153.9592  138.7352  188.8252 C   0  0  0  0  0  0  0  0  0  0  0  0
  153.4799  138.6826  187.5475 C   0  0  0  0  0  0  0  0  0  0  0  0
  154.0488  137.8918  186.5319 C   0  0  0  0  0  0  0  0  0  0  0  0
  155.1420  137.1518  186.8975 C   0  0  0  0  0  0  0  0  0  0  0  0
  155.6257  137.2084  188.1961 C   0  0  0  0  0  0  0  0  0  0  0  0
  157.0266  136.2474  188.6243 Cl  0  0  0  0  0  0  0  0  0  0  0  0
  154.9522  139.0434  191.2522 F   0  0  0  0  0  0  0  0  0  0  0  0
  155.5922  138.0348  190.5639 C   0  0  0  0  0  0  0  0  0  0  0  0
  156.9424  138.3937  190.5208 F   0  0  0  0  0  0  0  0  0  0  0  0
  155.5013  136.8347  191.1964 F   0  0  0  0  0  0  0  0  0  0  0  0
 37 38  1  0  0  0
 38 39  1  0  0  0
 38 40  1  0  0  0
 38 30  1  0  0  0
 30 31  2  0  0  0
 31 32  1  0  0  0
 32 33  2  0  0  0
 33 28  1  0  0  0
 28  1  1  0  0  0
  1  2  2  0  0  0
  2  3  1  0  0  0
  3  4  2  0  0  0
  4  5  1  0  0  0
  5  6  1  0  0  0
  6  7  1  0  0  0
  7  8  1  0  0  0
  8  9  1  0  0  0
  9 10  1  0  0  0
 10 11  1  0  0  0
  8 12  1  0  0  0
 12 13  2  0  0  0
 13 14  1  0  0  0
 14 15  2  0  0  0
 15 16  1  0  0  0
 16 17  2  0  0  0
 17 18  1  0  0  0
 18 19  1  0  0  0
 18 20  1  0  0  0
 18 21  1  0  0  0
  3 22  1  0  0  0
 22 23  1  0  0  0
 23 24  1  0  0  0
 24 25  1  0  0  0
 25 26  1  0  0  0
 26 27  1  0  0  0
 33 34  1  0  0  0
 34 35  2  0  0  0
 35 36  1  0  0  0
 35 30  1  0  0  0
 11  1  1  0  0  0
 17 12  1  0  0  0
 27 22  1  0  0  0
 11  5  2  0  0  0
 28 29  1  0  0  0
M  END
> <minimizedAffinity>
-9.70664

> <CNNscore>
0.5398986936

> <CNNaffinity>
7.2611494064

> <CNN_VS>
3.9202849865

> <CNNaffinity_variance>
0.0289380215

$$$$
[H]c1nc(N2C([H])([H])C([H])([H])c3nc(N4C([H])([H])C([H])([H])C([H])([H])C([H])([H])C4([H])[H])nc(N([H])c4c([H])c([H])c(C(F)(F)F)c(Cl)c4[H])c3C([H])([H])C2([H])[H])c(C(F)(F)F)c([H])c1[H]


 40 44  0  0  0  0  0  0  0  0999 V2000
  153.0553  138.2192  183.7738 C   0  0  0  0  0  0  0  0  0  0  0  0
  151.9263  138.0900  183.0421 N   0  0  0  0  0  0  0  0  0  0  0  0
  151.5240  138.9381  182.0856 C   0  0  0  0  0  0  0  0  0  0  0  0
  152.3371  140.0053  181.8544 N   0  0  0  0  0  0  0  0  0  0  0  0
  153.4559  140.2189  182.5131 C   0  0  0  0  0  0  0  0  0  0  0  0
  154.2195  141.4475  182.0870 C   0  0  0  0  0  0  0  0  0  0  0  0
  155.6767  141.0705  181.8909 C   0  0  0  0  0  0  0  0  0  0  0  0
  156.3372  141.0467  183.1596 N   0  0  0  0  0  0  0  0  0  0  0  0
  155.7990  140.6184  184.3997 C   0  0  0  0  0  0  0  0  0  0  0  0
  155.0142  139.3351  184.3852 C   0  0  0  0  0  0  0  0  0  0  0  0
  153.8538  139.3169  183.5101 C   0  0  0  0  0  0  0  0  0  0  0  0
  157.6830  141.4845  183.1818 C   0  0  0  0  0  0  0  0  0  0  0  0
  158.5677  140.5354  183.6371 N   0  0  0  0  0  0  0  0  0  0  0  0
  159.8784  140.7189  183.7265 C   0  0  0  0  0  0  0  0  0  0  0  0
  160.3746  141.9398  183.3364 C   0  0  0  0  0  0  0  0  0  0  0  0
  159.5303  142.9152  182.8765 C   0  0  0  0  0  0  0  0  0  0  0  0
  158.1454  142.7057  182.7883 C   0  0  0  0  0  0  0  0  0  0  0  0
  157.2405  143.7475  182.3135 C   0  0  0  0  0  0  0  0  0  0  0  0
  156.1331  143.9731  183.1045 F   0  0  0  0  0  0  0  0  0  0  0  0
  157.9739  144.9655  182.4819 F   0  0  0  0  0  0  0  0  0  0  0  0
  157.0023  143.7127  180.9786 F   0  0  0  0  0  0  0  0  0  0  0  0
  150.3389  138.7824  181.3303 N   0  0  0  0  0  0  0  0  0  0  0  0
  150.4196  138.8381  179.9125 C   0  0  0  0  0  0  0  0  0  0  0  0
  149.1877  138.3989  179.1858 C   0  0  0  0  0  0  0  0  0  0  0  0
  147.9074  138.6795  179.8829 C   0  0  0  0  0  0  0  0  0  0  0  0
  148.0389  139.3609  181.2085 C   0  0  0  0  0  0  0  0  0  0  0  0
  149.0841  138.5705  182.0065 C   0  0  0  0  0  0  0  0  0  0  0  0
  153.3992  137.2238  184.7281 N   0  0  0  0  0  0  0  0  0  0  0  0
  153.2265  136.2123  184.4153 H   0  0  0  0  0  0  0  0  0  0  0  0
  154.7225  137.9180  188.6671 C   0  0  0  0  0  0  0  0  0  0  0  0
  153.6373  138.5638  188.1320 C   0  0  0  0  0  0  0  0  0  0  0  0
  153.2587  138.3023  186.8462 C   0  0  0  0  0  0  0  0  0  0  0  0
  153.9237  137.3894  186.0067 C   0  0  0  0  0  0  0  0  0  0  0  0
  155.0042  136.7536  186.5583 C   0  0  0  0  0  0  0  0  0  0  0  0
  155.3856  137.0224  187.8644 C   0  0  0  0  0  0  0  0  0  0  0  0
  156.7737  136.1890  188.5335 Cl  0  0  0  0  0  0  0  0  0  0  0  0
  154.5252  139.3421  190.5063 F   0  0  0  0  0  0  0  0  0  0  0  0
  155.1498  138.1932  190.0699 C   0  0  0  0  0  0  0  0  0  0  0  0
  156.5198  138.4699  190.0841 F   0  0  0  0  0  0  0  0  0  0  0  0
  154.9308  137.1361  190.8963 F   0  0  0  0  0  0  0  0  0  0  0  0
 37 38  1  0  0  0
 38 39  1  0  0  0
 38 40  1  0  0  0
 38 30  1  0  0  0
 30 31  2  0  0  0
 31 32  1  0  0  0
 32 33  2  0  0  0
 33 28  1  0  0  0
 28  1  1  0  0  0
  1  2  2  0  0  0
  2  3  1  0  0  0
  3  4  2  0  0  0
  4  5  1  0  0  0
  5  6  1  0  0  0
  6  7  1  0  0  0
  7  8  1  0  0  0
  8  9  1  0  0  0
  9 10  1  0  0  0
 10 11  1  0  0  0
  8 12  1  0  0  0
 12 13  2  0  0  0
 13 14  1  0  0  0
 14 15  2  0  0  0
 15 16  1  0  0  0
 16 17  2  0  0  0
 17 18  1  0  0  0
 18 19  1  0  0  0
 18 20  1  0  0  0
 18 21  1  0  0  0
  3 22  1  0  0  0
 22 23  1  0  0  0
 23 24  1  0  0  0
 24 25  1  0  0  0
 25 26  1  0  0  0
 26 27  1  0  0  0
 33 34  1  0  0  0
 34 35  2  0  0  0
 35 36  1  0  0  0
 35 30  1  0  0  0
 11  1  1  0  0  0
 17 12  1  0  0  0
 27 22  1  0  0  0
 11  5  2  0  0  0
 28 29  1  0  0  0
M  END
> <minimizedAffinity>
-10.48956

> <CNNscore>
0.4983780980

> <CNNaffinity>
7.5157637596

> <CNN_VS>
3.7456920147

> <CNNaffinity_variance>
0.1083384007

$$$$
[H]c1nc(N2C([H])([H])C([H])([H])c3nc(N4C([H])([H])C([H])([H])C([H])([H])C([H])([H])C4([H])[H])nc(N([H])c4c([H])c([H])c(C(F)(F)F)c(Cl)c4[H])c3C([H])([H])C2([H])[H])c(C(F)(F)F)c([H])c1[H]


 40 44  0  0  0  0  0  0  0  0999 V2000
  154.8655  138.9728  184.3821 C   0  0  0  0  0  0  0  0  0  0  0  0
  154.0634  139.2032  183.3189 N   0  0  0  0  0  0  0  0  0  0  0  0
  152.8808  138.6119  183.1005 C   0  0  0  0  0  0  0  0  0  0  0  0
  152.4811  137.7124  184.0410 N   0  0  0  0  0  0  0  0  0  0  0  0
  153.1902  137.4196  185.1099 C   0  0  0  0  0  0  0  0  0  0  0  0
  152.5563  136.4131  186.0368 C   0  0  0  0  0  0  0  0  0  0  0  0
  152.6369  136.9421  187.4574 C   0  0  0  0  0  0  0  0  0  0  0  0
  153.9380  136.6786  187.9903 N   0  0  0  0  0  0  0  0  0  0  0  0
  155.1740  136.7170  187.2962 C   0  0  0  0  0  0  0  0  0  0  0  0
  155.3968  137.8919  186.3835 C   0  0  0  0  0  0  0  0  0  0  0  0
  154.4250  138.0515  185.3145 C   0  0  0  0  0  0  0  0  0  0  0  0
  154.0058  136.3580  189.3673 C   0  0  0  0  0  0  0  0  0  0  0  0
  153.5399  135.0996  189.6675 N   0  0  0  0  0  0  0  0  0  0  0  0
  153.5244  134.5813  190.8884 C   0  0  0  0  0  0  0  0  0  0  0  0
  154.0075  135.3598  191.9128 C   0  0  0  0  0  0  0  0  0  0  0  0
  154.4814  136.6197  191.6603 C   0  0  0  0  0  0  0  0  0  0  0  0
  154.4907  137.1543  190.3626 C   0  0  0  0  0  0  0  0  0  0  0  0
  154.9805  138.5020  190.0915 C   0  0  0  0  0  0  0  0  0  0  0  0
  154.1330  139.3002  189.3515 F   0  0  0  0  0  0  0  0  0  0  0  0
  154.9604  139.1554  191.3652 F   0  0  0  0  0  0  0  0  0  0  0  0
  156.2882  138.5585  189.7361 F   0  0  0  0  0  0  0  0  0  0  0  0
  152.0563  138.8698  181.9812 N   0  0  0  0  0  0  0  0  0  0  0  0
  151.0709  137.9106  181.6224 C   0  0  0  0  0  0  0  0  0  0  0  0
  150.0711  138.3716  180.6093 C   0  0  0  0  0  0  0  0  0  0  0  0
  150.5843  139.3405  179.6085 C   0  0  0  0  0  0  0  0  0  0  0  0
  152.0258  139.7114  179.7607 C   0  0  0  0  0  0  0  0  0  0  0  0
  152.2284  140.0898  181.2337 C   0  0  0  0  0  0  0  0  0  0  0  0
  156.0769  139.7015  184.5271 N   0  0  0  0  0  0  0  0  0  0  0  0
  156.6223  139.5055  185.4299 H   0  0  0  0  0  0  0  0  0  0  0  0
  157.9972  142.2754  181.8003 C   0  0  0  0  0  0  0  0  0  0  0  0
  158.4556  141.0099  182.0637 C   0  0  0  0  0  0  0  0  0  0  0  0
  157.7946  140.2228  182.9628 C   0  0  0  0  0  0  0  0  0  0  0  0
  156.6417  140.6312  183.6588 C   0  0  0  0  0  0  0  0  0  0  0  0
  156.1983  141.8973  183.3824 C   0  0  0  0  0  0  0  0  0  0  0  0
  156.8728  142.6935  182.4688 C   0  0  0  0  0  0  0  0  0  0  0  0
  156.2746  144.3076  182.1429 Cl  0  0  0  0  0  0  0  0  0  0  0  0
  157.8934  143.3432  179.7269 F   0  0  0  0  0  0  0  0  0  0  0  0
  158.7086  143.1484  180.8215 C   0  0  0  0  0  0  0  0  0  0  0  0
  159.8382  142.4762  180.3464 F   0  0  0  0  0  0  0  0  0  0  0  0
  159.1239  144.3185  181.3755 F   0  0  0  0  0  0  0  0  0  0  0  0
 37 38  1  0  0  0
 38 39  1  0  0  0
 38 40  1  0  0  0
 38 30  1  0  0  0
 30 31  2  0  0  0
 31 32  1  0  0  0
 32 33  2  0  0  0
 33 28  1  0  0  0
 28  1  1  0  0  0
  1  2  2  0  0  0
  2  3  1  0  0  0
  3  4  2  0  0  0
  4  5  1  0  0  0
  5  6  1  0  0  0
  6  7  1  0  0  0
  7  8  1  0  0  0
  8  9  1  0  0  0
  9 10  1  0  0  0
 10 11  1  0  0  0
  8 12  1  0  0  0
 12 13  2  0  0  0
 13 14  1  0  0  0
 14 15  2  0  0  0
 15 16  1  0  0  0
 16 17  2  0  0  0
 17 18  1  0  0  0
 18 19  1  0  0  0
 18 20  1  0  0  0
 18 21  1  0  0  0
  3 22  1  0  0  0
 22 23  1  0  0  0
 23 24  1  0  0  0
 24 25  1  0  0  0
 25 26  1  0  0  0
 26 27  1  0  0  0
 33 34  1  0  0  0
 34 35  2  0  0  0
 35 36  1  0  0  0
 35 30  1  0  0  0
 11  1  1  0  0  0
 17 12  1  0  0  0
 27 22  1  0  0  0
 11  5  2  0  0  0
 28 29  1  0  0  0
M  END
> <minimizedAffinity>
-10.72434

> <CNNscore>
0.4721192420

> <CNNaffinity>
7.2645926476

> <CNN_VS>
3.4297540188

> <CNNaffinity_variance>
0.1089504138

$$$$
[H]c1nc(N2C([H])([H])C([H])([H])c3nc(N4C([H])([H])C([H])([H])C([H])([H])C([H])([H])C4([H])[H])nc(N([H])c4c([H])c([H])c(C(F)(F)F)c(Cl)c4[H])c3C([H])([H])C2([H])[H])c(C(F)(F)F)c([H])c1[H]


 40 44  0  0  0  0  0  0  0  0999 V2000
  154.8030  138.7390  184.4974 C   0  0  0  0  0  0  0  0  0  0  0  0
  154.0427  138.9928  183.4092 N   0  0  0  0  0  0  0  0  0  0  0  0
  152.8139  138.5034  183.1938 C   0  0  0  0  0  0  0  0  0  0  0  0
  152.3176  137.6891  184.1653 N   0  0  0  0  0  0  0  0  0  0  0  0
  152.9794  137.3820  185.2602 C   0  0  0  0  0  0  0  0  0  0  0  0
  152.2400  136.4822  186.2182 C   0  0  0  0  0  0  0  0  0  0  0  0
  152.3470  137.0668  187.6151 C   0  0  0  0  0  0  0  0  0  0  0  0
  153.6094  136.7095  188.1852 N   0  0  0  0  0  0  0  0  0  0  0  0
  154.8545  136.6017  187.5150 C   0  0  0  0  0  0  0  0  0  0  0  0
  155.1999  137.7076  186.5554 C   0  0  0  0  0  0  0  0  0  0  0  0
  154.2641  137.9063  185.4610 C   0  0  0  0  0  0  0  0  0  0  0  0
  153.6254  136.4482  189.5762 C   0  0  0  0  0  0  0  0  0  0  0  0
  153.0016  135.2741  189.9273 N   0  0  0  0  0  0  0  0  0  0  0  0
  152.9111  134.8199  191.1703 C   0  0  0  0  0  0  0  0  0  0  0  0
  153.4808  135.5788  192.1645 C   0  0  0  0  0  0  0  0  0  0  0  0
  154.1123  136.7556  191.8612 C   0  0  0  0  0  0  0  0  0  0  0  0
  154.1993  137.2231  190.5407 C   0  0  0  0  0  0  0  0  0  0  0  0
  154.8577  138.4839  190.2149 C   0  0  0  0  0  0  0  0  0  0  0  0
  154.1427  139.3275  189.3902 F   0  0  0  0  0  0  0  0  0  0  0  0
  154.8652  139.2148  191.4460 F   0  0  0  0  0  0  0  0  0  0  0  0
  156.1761  138.3639  189.9192 F   0  0  0  0  0  0  0  0  0  0  0  0
  152.0348  138.7840  182.0477 N   0  0  0  0  0  0  0  0  0  0  0  0
  151.0421  137.8480  181.6499 C   0  0  0  0  0  0  0  0  0  0  0  0
  150.0884  138.3350  180.6051 C   0  0  0  0  0  0  0  0  0  0  0  0
  150.6570  139.2969  179.6277 C   0  0  0  0  0  0  0  0  0  0  0  0
  152.1000  139.6358  179.8318 C   0  0  0  0  0  0  0  0  0  0  0  0
  152.2592  140.0032  181.3130 C   0  0  0  0  0  0  0  0  0  0  0  0
  156.0745  139.3589  184.6341 N   0  0  0  0  0  0  0  0  0  0  0  0
  156.7205  138.9187  185.3688 H   0  0  0  0  0  0  0  0  0  0  0  0
  157.3654  142.8576  182.6744 C   0  0  0  0  0  0  0  0  0  0  0  0
  156.1718  142.7898  183.3463 C   0  0  0  0  0  0  0  0  0  0  0  0
  155.8031  141.6257  183.9578 C   0  0  0  0  0  0  0  0  0  0  0  0
  156.5854  140.4559  183.9464 C   0  0  0  0  0  0  0  0  0  0  0  0
  157.7740  140.5427  183.2714 C   0  0  0  0  0  0  0  0  0  0  0  0
  158.1445  141.7269  182.6515 C   0  0  0  0  0  0  0  0  0  0  0  0
  159.6725  141.7977  181.7974 Cl  0  0  0  0  0  0  0  0  0  0  0  0
  158.9158  144.6022  182.6206 F   0  0  0  0  0  0  0  0  0  0  0  0
  157.7824  144.1216  182.0000 C   0  0  0  0  0  0  0  0  0  0  0  0
  156.7949  145.0912  182.1960 F   0  0  0  0  0  0  0  0  0  0  0  0
  157.9501  143.9644  180.6600 F   0  0  0  0  0  0  0  0  0  0  0  0
 37 38  1  0  0  0
 38 39  1  0  0  0
 38 40  1  0  0  0
 38 30  1  0  0  0
 30 31  2  0  0  0
 31 32  1  0  0  0
 32 33  2  0  0  0
 33 28  1  0  0  0
 28  1  1  0  0  0
  1  2  2  0  0  0
  2  3  1  0  0  0
  3  4  2  0  0  0
  4  5  1  0  0  0
  5  6  1  0  0  0
  6  7  1  0  0  0
  7  8  1  0  0  0
  8  9  1  0  0  0
  9 10  1  0  0  0
 10 11  1  0  0  0
  8 12  1  0  0  0
 12 13  2  0  0  0
 13 14  1  0  0  0
 14 15  2  0  0  0
 15 16  1  0  0  0
 16 17  2  0  0  0
 17 18  1  0  0  0
 18 19  1  0  0  0
 18 20  1  0  0  0
 18 21  1  0  0  0
  3 22  1  0  0  0
 22 23  1  0  0  0
 23 24  1  0  0  0
 24 25  1  0  0  0
 25 26  1  0  0  0
 26 27  1  0  0  0
 33 34  1  0  0  0
 34 35  2  0  0  0
 35 36  1  0  0  0
 35 30  1  0  0  0
 11  1  1  0  0  0
 17 12  1  0  0  0
 27 22  1  0  0  0
 11  5  2  0  0  0
 28 29  1  0  0  0
M  END
> <minimizedAffinity>
-10.29250

> <CNNscore>
0.4355858862

> <CNNaffinity>
7.2458753586

> <CNN_VS>
3.1562011242

> <CNNaffinity_variance>
0.1808496416

$$$$
[H]c1nc(N2C([H])([H])C([H])([H])c3nc(N4C([H])([H])C([H])([H])C([H])([H])C([H])([H])C4([H])[H])nc(N([H])c4c([H])c([H])c(C(F)(F)F)c(Cl)c4[H])c3C([H])([H])C2([H])[H])c(C(F)(F)F)c([H])c1[H]


 40 44  0  0  0  0  0  0  0  0999 V2000
  153.5543  138.0869  183.8504 C   0  0  0  0  0  0  0  0  0  0  0  0
  152.4049  138.0621  183.1398 N   0  0  0  0  0  0  0  0  0  0  0  0
  151.9722  139.0427  182.3355 C   0  0  0  0  0  0  0  0  0  0  0  0
  152.7748  140.1388  182.2466 N   0  0  0  0  0  0  0  0  0  0  0  0
  153.9117  140.2581  182.8981 C   0  0  0  0  0  0  0  0  0  0  0  0
  154.6586  141.5429  182.6425 C   0  0  0  0  0  0  0  0  0  0  0  0
  156.1107  141.2112  182.3501 C   0  0  0  0  0  0  0  0  0  0  0  0
  156.8080  140.9996  183.5811 N   0  0  0  0  0  0  0  0  0  0  0  0
  156.3076  140.3836  184.7563 C   0  0  0  0  0  0  0  0  0  0  0  0
  155.5268  139.1115  184.5687 C   0  0  0  0  0  0  0  0  0  0  0  0
  154.3414  139.2180  183.7343 C   0  0  0  0  0  0  0  0  0  0  0  0
  158.1526  141.4391  183.6315 C   0  0  0  0  0  0  0  0  0  0  0  0
  158.6428  141.5795  184.9084 N   0  0  0  0  0  0  0  0  0  0  0  0
  159.8804  141.9618  185.1948 C   0  0  0  0  0  0  0  0  0  0  0  0
  160.7191  142.2325  184.1403 C   0  0  0  0  0  0  0  0  0  0  0  0
  160.2736  142.1064  182.8514 C   0  0  0  0  0  0  0  0  0  0  0  0
  158.9608  141.7012  182.5647 C   0  0  0  0  0  0  0  0  0  0  0  0
  158.4774  141.5805  181.1931 C   0  0  0  0  0  0  0  0  0  0  0  0
  157.4693  142.4549  180.8434 F   0  0  0  0  0  0  0  0  0  0  0  0
  159.5636  142.0479  180.3860 F   0  0  0  0  0  0  0  0  0  0  0  0
  158.3081  140.3021  180.7726 F   0  0  0  0  0  0  0  0  0  0  0  0
  150.7661  138.9948  181.5992 N   0  0  0  0  0  0  0  0  0  0  0  0
  149.6655  138.2735  182.1361 C   0  0  0  0  0  0  0  0  0  0  0  0
  148.3589  138.4929  181.4410 C   0  0  0  0  0  0  0  0  0  0  0  0
  148.4536  138.7548  179.9829 C   0  0  0  0  0  0  0  0  0  0  0  0
  149.8416  138.7594  179.4244 C   0  0  0  0  0  0  0  0  0  0  0  0
  150.6764  139.6733  180.3311 C   0  0  0  0  0  0  0  0  0  0  0  0
  153.9290  136.9606  184.6318 N   0  0  0  0  0  0  0  0  0  0  0  0
  153.8509  136.0133  184.1344 H   0  0  0  0  0  0  0  0  0  0  0  0
  155.4869  136.6046  188.5298 C   0  0  0  0  0  0  0  0  0  0  0  0
  155.7874  135.7107  187.5341 C   0  0  0  0  0  0  0  0  0  0  0  0
  155.2471  135.8740  186.2905 C   0  0  0  0  0  0  0  0  0  0  0  0
  154.3776  136.9265  185.9489 C   0  0  0  0  0  0  0  0  0  0  0  0
  154.0896  137.8095  186.9557 C   0  0  0  0  0  0  0  0  0  0  0  0
  154.6403  137.6398  188.2173 C   0  0  0  0  0  0  0  0  0  0  0  0
  154.2470  138.7903  189.4785 Cl  0  0  0  0  0  0  0  0  0  0  0  0
  156.8321  135.2924  189.9149 F   0  0  0  0  0  0  0  0  0  0  0  0
  156.0680  136.4397  189.8942 C   0  0  0  0  0  0  0  0  0  0  0  0
  155.0327  136.2302  190.8095 F   0  0  0  0  0  0  0  0  0  0  0  0
  156.7641  137.5356  190.2980 F   0  0  0  0  0  0  0  0  0  0  0  0
 37 38  1  0  0  0
 38 39  1  0  0  0
 38 40  1  0  0  0
 38 30  1  0  0  0
 30 31  2  0  0  0
 31 32  1  0  0  0
 32 33  2  0  0  0
 33 28  1  0  0  0
 28  1  1  0  0  0
  1  2  2  0  0  0
  2  3  1  0  0  0
  3  4  2  0  0  0
  4  5  1  0  0  0
  5  6  1  0  0  0
  6  7  1  0  0  0
  7  8  1  0  0  0
  8  9  1  0  0  0
  9 10  1  0  0  0
 10 11  1  0  0  0
  8 12  1  0  0  0
 12 13  2  0  0  0
 13 14  1  0  0  0
 14 15  2  0  0  0
 15 16  1  0  0  0
 16 17  2  0  0  0
 17 18  1  0  0  0
 18 19  1  0  0  0
 18 20  1  0  0  0
 18 21  1  0  0  0
  3 22  1  0  0  0
 22 23  1  0  0  0
 23 24  1  0  0  0
 24 25  1  0  0  0
 25 26  1  0  0  0
 26 27  1  0  0  0
 33 34  1  0  0  0
 34 35  2  0  0  0
 35 36  1  0  0  0
 35 30  1  0  0  0
 11  1  1  0  0  0
 17 12  1  0  0  0
 27 22  1  0  0  0
 11  5  2  0  0  0
 28 29  1  0  0  0
M  END
> <minimizedAffinity>
-9.59366

> <CNNscore>
0.3939233124

> <CNNaffinity>
7.3755822182

> <CNN_VS>
2.9054138660

> <CNNaffinity_variance>
0.1038824916

$$$$
[H]c1nc(N2C([H])([H])C([H])([H])c3nc(N4C([H])([H])C([H])([H])C([H])([H])C([H])([H])C4([H])[H])nc(N([H])c4c([H])c([H])c(C(F)(F)F)c(Cl)c4[H])c3C([H])([H])C2([H])[H])c(C(F)(F)F)c([H])c1[H]


 40 44  0  0  0  0  0  0  0  0999 V2000
  154.0021  138.3239  184.0312 C   0  0  0  0  0  0  0  0  0  0  0  0
  152.9076  137.7837  183.4506 N   0  0  0  0  0  0  0  0  0  0  0  0
  152.1540  138.3804  182.5169 C   0  0  0  0  0  0  0  0  0  0  0  0
  152.5461  139.6293  182.1428 N   0  0  0  0  0  0  0  0  0  0  0  0
  153.5959  140.2402  182.6486 C   0  0  0  0  0  0  0  0  0  0  0  0
  153.8686  141.6103  182.0806 C   0  0  0  0  0  0  0  0  0  0  0  0
  155.3406  141.7036  181.7217 C   0  0  0  0  0  0  0  0  0  0  0  0
  156.1003  141.9925  182.8989 N   0  0  0  0  0  0  0  0  0  0  0  0
  155.8626  141.5148  184.2127 C   0  0  0  0  0  0  0  0  0  0  0  0
  155.5422  140.0513  184.3487 C   0  0  0  0  0  0  0  0  0  0  0  0
  154.3671  139.5945  183.6253 C   0  0  0  0  0  0  0  0  0  0  0  0
  157.2244  142.8371  182.7363 C   0  0  0  0  0  0  0  0  0  0  0  0
  156.9007  144.1442  182.4584 N   0  0  0  0  0  0  0  0  0  0  0  0
  157.7905  145.1126  182.2848 C   0  0  0  0  0  0  0  0  0  0  0  0
  159.1191  144.7780  182.3917 C   0  0  0  0  0  0  0  0  0  0  0  0
  159.4881  143.4881  182.6670 C   0  0  0  0  0  0  0  0  0  0  0  0
  158.5344  142.4743  182.8476 C   0  0  0  0  0  0  0  0  0  0  0  0
  158.9235  141.0957  183.1258 C   0  0  0  0  0  0  0  0  0  0  0  0
  158.3677  140.1461  182.2937 F   0  0  0  0  0  0  0  0  0  0  0  0
  160.3065  141.0313  182.7612 F   0  0  0  0  0  0  0  0  0  0  0  0
  158.9365  140.7755  184.4438 F   0  0  0  0  0  0  0  0  0  0  0  0
  151.0131  137.7953  181.9210 N   0  0  0  0  0  0  0  0  0  0  0  0
  150.9555  136.3806  181.7982 C   0  0  0  0  0  0  0  0  0  0  0  0
  149.6198  135.8276  181.4128 C   0  0  0  0  0  0  0  0  0  0  0  0
  148.8054  136.6982  180.5281 C   0  0  0  0  0  0  0  0  0  0  0  0
  149.4417  137.9991  180.1521 C   0  0  0  0  0  0  0  0  0  0  0  0
  149.9399  138.6369  181.4556 C   0  0  0  0  0  0  0  0  0  0  0  0
  154.7486  137.5693  184.9761 N   0  0  0  0  0  0  0  0  0  0  0  0
  155.4047  136.8320  184.5557 H   0  0  0  0  0  0  0  0  0  0  0  0
  154.3857  137.7781  189.1682 C   0  0  0  0  0  0  0  0  0  0  0  0
  153.2982  137.6521  188.3419 C   0  0  0  0  0  0  0  0  0  0  0  0
  153.4774  137.5956  186.9893 C   0  0  0  0  0  0  0  0  0  0  0  0
  154.7371  137.6596  186.3650 C   0  0  0  0  0  0  0  0  0  0  0  0
  155.8110  137.7846  187.2059 C   0  0  0  0  0  0  0  0  0  0  0  0
  155.6246  137.8418  188.5791 C   0  0  0  0  0  0  0  0  0  0  0  0
  157.0237  138.0025  189.6212 Cl  0  0  0  0  0  0  0  0  0  0  0  0
  154.6036  139.0869  191.0890 F   0  0  0  0  0  0  0  0  0  0  0  0
  154.2070  137.8423  190.6481 C   0  0  0  0  0  0  0  0  0  0  0  0
  155.0713  136.9254  191.2528 F   0  0  0  0  0  0  0  0  0  0  0  0
  152.9396  137.5342  191.0320 F   0  0  0  0  0  0  0  0  0  0  0  0
 37 38  1  0  0  0
 38 39  1  0  0  0
 38 40  1  0  0  0
 38 30  1  0  0  0
 30 31  2  0  0  0
 31 32  1  0  0  0
 32 33  2  0  0  0
 33 28  1  0  0  0
 28  1  1  0  0  0
  1  2  2  0  0  0
  2  3  1  0  0  0
  3  4  2  0  0  0
  4  5  1  0  0  0
  5  6  1  0  0  0
  6  7  1  0  0  0
  7  8  1  0  0  0
  8  9  1  0  0  0
  9 10  1  0  0  0
 10 11  1  0  0  0
  8 12  1  0  0  0
 12 13  2  0  0  0
 13 14  1  0  0  0
 14 15  2  0  0  0
 15 16  1  0  0  0
 16 17  2  0  0  0
 17 18  1  0  0  0
 18 19  1  0  0  0
 18 20  1  0  0  0
 18 21  1  0  0  0
  3 22  1  0  0  0
 22 23  1  0  0  0
 23 24  1  0  0  0
 24 25  1  0  0  0
 25 26  1  0  0  0
 26 27  1  0  0  0
 33 34  1  0  0  0
 34 35  2  0  0  0
 35 36  1  0  0  0
 35 30  1  0  0  0
 11  1  1  0  0  0
 17 12  1  0  0  0
 27 22  1  0  0  0
 11  5  2  0  0  0
 28 29  1  0  0  0
M  END
> <minimizedAffinity>
-9.82071

> <CNNscore>
0.3590667546

> <CNNaffinity>
7.3399138451

> <CNN_VS>
2.6355190277

> <CNNaffinity_variance>
0.2187438309

$$$$
[H]c1nc(N2C([H])([H])C([H])([H])c3nc(N4C([H])([H])C([H])([H])C([H])([H])C([H])([H])C4([H])[H])nc(N([H])c4c([H])c([H])c(C(F)(F)F)c(Cl)c4[H])c3C([H])([H])C2([H])[H])c(C(F)(F)F)c([H])c1[H]


 40 44  0  0  0  0  0  0  0  0999 V2000
  154.3295  138.2108  185.2576 C   0  0  0  0  0  0  0  0  0  0  0  0
  154.5168  138.1853  186.5959 N   0  0  0  0  0  0  0  0  0  0  0  0
  153.5895  137.8400  187.4996 C   0  0  0  0  0  0  0  0  0  0  0  0
  152.3715  137.4918  187.0010 N   0  0  0  0  0  0  0  0  0  0  0  0
  152.0907  137.4849  185.7156 C   0  0  0  0  0  0  0  0  0  0  0  0
  150.6890  137.0461  185.3738 C   0  0  0  0  0  0  0  0  0  0  0  0
  150.7596  136.0187  184.2586 C   0  0  0  0  0  0  0  0  0  0  0  0
  150.9030  136.6883  183.0027 N   0  0  0  0  0  0  0  0  0  0  0  0
  151.6435  137.8685  182.7387 C   0  0  0  0  0  0  0  0  0  0  0  0
  153.0195  137.9483  183.3414 C   0  0  0  0  0  0  0  0  0  0  0  0
  153.0784  137.8517  184.7906 C   0  0  0  0  0  0  0  0  0  0  0  0
  150.2466  136.1029  181.8937 C   0  0  0  0  0  0  0  0  0  0  0  0
  150.7378  134.8661  181.5478 N   0  0  0  0  0  0  0  0  0  0  0  0
  150.2643  134.1266  180.5535 C   0  0  0  0  0  0  0  0  0  0  0  0
  149.2149  134.6381  179.8283 C   0  0  0  0  0  0  0  0  0  0  0  0
  148.6937  135.8664  180.1371 C   0  0  0  0  0  0  0  0  0  0  0  0
  149.2062  136.6372  181.1922 C   0  0  0  0  0  0  0  0  0  0  0  0
  148.6640  137.9531  181.5148 C   0  0  0  0  0  0  0  0  0  0  0  0
  149.3474  139.0221  180.9733 F   0  0  0  0  0  0  0  0  0  0  0  0
  147.4199  138.0128  180.8090 F   0  0  0  0  0  0  0  0  0  0  0  0
  148.2911  138.0995  182.8107 F   0  0  0  0  0  0  0  0  0  0  0  0
  153.8080  137.8185  188.8964 N   0  0  0  0  0  0  0  0  0  0  0  0
  154.8804  138.5816  189.4324 C   0  0  0  0  0  0  0  0  0  0  0  0
  154.8801  138.7239  190.9218 C   0  0  0  0  0  0  0  0  0  0  0  0
  154.3278  137.5657  191.6684 C   0  0  0  0  0  0  0  0  0  0  0  0
  153.8544  136.4274  190.8206 C   0  0  0  0  0  0  0  0  0  0  0  0
  152.9461  137.0318  189.7418 C   0  0  0  0  0  0  0  0  0  0  0  0
  155.4089  138.5481  184.3971 N   0  0  0  0  0  0  0  0  0  0  0  0
  156.0408  137.7285  184.1144 H   0  0  0  0  0  0  0  0  0  0  0  0
  156.7643  142.2118  182.8196 C   0  0  0  0  0  0  0  0  0  0  0  0
  157.6235  141.2114  183.1965 C   0  0  0  0  0  0  0  0  0  0  0  0
  157.1257  140.0470  183.7077 C   0  0  0  0  0  0  0  0  0  0  0  0
  155.7521  139.7939  183.8800 C   0  0  0  0  0  0  0  0  0  0  0  0
  154.9096  140.8038  183.4974 C   0  0  0  0  0  0  0  0  0  0  0  0
  155.4193  141.9849  182.9790 C   0  0  0  0  0  0  0  0  0  0  0  0
  154.3088  143.2531  182.5018 Cl  0  0  0  0  0  0  0  0  0  0  0  0
  157.2064  143.4418  180.8853 F   0  0  0  0  0  0  0  0  0  0  0  0
  157.2921  143.4905  182.2604 C   0  0  0  0  0  0  0  0  0  0  0  0
  158.6538  143.5920  182.5586 F   0  0  0  0  0  0  0  0  0  0  0  0
  156.6700  144.5812  182.7820 F   0  0  0  0  0  0  0  0  0  0  0  0
 37 38  1  0  0  0
 38 39  1  0  0  0
 38 40  1  0  0  0
 38 30  1  0  0  0
 30 31  2  0  0  0
 31 32  1  0  0  0
 32 33  2  0  0  0
 33 28  1  0  0  0
 28  1  1  0  0  0
  1  2  2  0  0  0
  2  3  1  0  0  0
  3  4  2  0  0  0
  4  5  1  0  0  0
  5  6  1  0  0  0
  6  7  1  0  0  0
  7  8  1  0  0  0
  8  9  1  0  0  0
  9 10  1  0  0  0
 10 11  1  0  0  0
  8 12  1  0  0  0
 12 13  2  0  0  0
 13 14  1  0  0  0
 14 15  2  0  0  0
 15 16  1  0  0  0
 16 17  2  0  0  0
 17 18  1  0  0  0
 18 19  1  0  0  0
 18 20  1  0  0  0
 18 21  1  0  0  0
  3 22  1  0  0  0
 22 23  1  0  0  0
 23 24  1  0  0  0
 24 25  1  0  0  0
 25 26  1  0  0  0
 26 27  1  0  0  0
 33 34  1  0  0  0
 34 35  2  0  0  0
 35 36  1  0  0  0
 35 30  1  0  0  0
 11  1  1  0  0  0
 17 12  1  0  0  0
 27 22  1  0  0  0
 11  5  2  0  0  0
 28 29  1  0  0  0
M  END
> <minimizedAffinity>
-8.17335

> <CNNscore>
0.3260443211

> <CNNaffinity>
7.0436983109

> <CNN_VS>
2.2965579033

> <CNNaffinity_variance>
0.0468257852

$$$$
[H]c1nc(N2C([H])([H])C([H])([H])c3nc(N4C([H])([H])C([H])([H])C([H])([H])C([H])([H])C4([H])[H])nc(N([H])c4c([H])c([H])c(C(F)(F)F)c(Cl)c4[H])c3C([H])([H])C2([H])[H])c(C(F)(F)F)c([H])c1[H]


 40 44  0  0  0  0  0  0  0  0999 V2000
  153.7606  137.7479  184.3274 C   0  0  0  0  0  0  0  0  0  0  0  0
  154.5679  138.5874  183.6417 N   0  0  0  0  0  0  0  0  0  0  0  0
  155.6444  139.2073  184.1447 C   0  0  0  0  0  0  0  0  0  0  0  0
  155.9225  138.9520  185.4527 N   0  0  0  0  0  0  0  0  0  0  0  0
  155.1979  138.1509  186.2038 C   0  0  0  0  0  0  0  0  0  0  0  0
  155.6914  137.9882  187.6194 C   0  0  0  0  0  0  0  0  0  0  0  0
  155.7177  136.5087  187.9581 C   0  0  0  0  0  0  0  0  0  0  0  0
  154.4021  136.0800  188.3211 N   0  0  0  0  0  0  0  0  0  0  0  0
  153.1729  136.5161  187.7645 C   0  0  0  0  0  0  0  0  0  0  0  0
  153.1113  136.6157  186.2647 C   0  0  0  0  0  0  0  0  0  0  0  0
  154.0757  137.5153  185.6537 C   0  0  0  0  0  0  0  0  0  0  0  0
  154.3130  135.1003  189.3388 C   0  0  0  0  0  0  0  0  0  0  0  0
  154.4187  133.8095  188.8769 N   0  0  0  0  0  0  0  0  0  0  0  0
  154.3808  132.7339  189.6525 C   0  0  0  0  0  0  0  0  0  0  0  0
  154.2259  132.9330  191.0034 C   0  0  0  0  0  0  0  0  0  0  0  0
  154.1163  134.2015  191.5082 C   0  0  0  0  0  0  0  0  0  0  0  0
  154.1577  135.3296  190.6742 C   0  0  0  0  0  0  0  0  0  0  0  0
  154.0258  136.6821  191.2060 C   0  0  0  0  0  0  0  0  0  0  0  0
  152.8723  137.3478  190.8465 F   0  0  0  0  0  0  0  0  0  0  0  0
  153.8318  136.4986  192.6126 F   0  0  0  0  0  0  0  0  0  0  0  0
  155.1634  137.4182  191.1447 F   0  0  0  0  0  0  0  0  0  0  0  0
  156.4769  140.0808  183.4078 N   0  0  0  0  0  0  0  0  0  0  0  0
  155.8852  141.1846  182.7360 C   0  0  0  0  0  0  0  0  0  0  0  0
  156.8479  142.2031  182.2122 C   0  0  0  0  0  0  0  0  0  0  0  0
  158.1617  141.6670  181.7759 C   0  0  0  0  0  0  0  0  0  0  0  0
  158.3278  140.1874  181.9237 C   0  0  0  0  0  0  0  0  0  0  0  0
  157.8963  139.8382  183.3541 C   0  0  0  0  0  0  0  0  0  0  0  0
  152.6749  137.1116  183.6672 N   0  0  0  0  0  0  0  0  0  0  0  0
  152.6895  136.0392  183.6939 H   0  0  0  0  0  0  0  0  0  0  0  0
  149.2363  138.7389  181.8573 C   0  0  0  0  0  0  0  0  0  0  0  0
  149.1674  137.8595  182.9075 C   0  0  0  0  0  0  0  0  0  0  0  0
  150.3169  137.3599  183.4499 C   0  0  0  0  0  0  0  0  0  0  0  0
  151.6054  137.6939  182.9932 C   0  0  0  0  0  0  0  0  0  0  0  0
  151.6544  138.5737  181.9445 C   0  0  0  0  0  0  0  0  0  0  0  0
  150.4846  139.0785  181.3964 C   0  0  0  0  0  0  0  0  0  0  0  0
  150.5892  140.2011  180.0555 Cl  0  0  0  0  0  0  0  0  0  0  0  0
  147.9441  140.6493  181.4960 F   0  0  0  0  0  0  0  0  0  0  0  0
  147.9899  139.2931  181.2526 C   0  0  0  0  0  0  0  0  0  0  0  0
  146.8824  138.7462  181.9069 F   0  0  0  0  0  0  0  0  0  0  0  0
  147.8786  138.9980  179.9301 F   0  0  0  0  0  0  0  0  0  0  0  0
 37 38  1  0  0  0
 38 39  1  0  0  0
 38 40  1  0  0  0
 38 30  1  0  0  0
 30 31  2  0  0  0
 31 32  1  0  0  0
 32 33  2  0  0  0
 33 28  1  0  0  0
 28  1  1  0  0  0
  1  2  2  0  0  0
  2  3  1  0  0  0
  3  4  2  0  0  0
  4  5  1  0  0  0
  5  6  1  0  0  0
  6  7  1  0  0  0
  7  8  1  0  0  0
  8  9  1  0  0  0
  9 10  1  0  0  0
 10 11  1  0  0  0
  8 12  1  0  0  0
 12 13  2  0  0  0
 13 14  1  0  0  0
 14 15  2  0  0  0
 15 16  1  0  0  0
 16 17  2  0  0  0
 17 18  1  0  0  0
 18 19  1  0  0  0
 18 20  1  0  0  0
 18 21  1  0  0  0
  3 22  1  0  0  0
 22 23  1  0  0  0
 23 24  1  0  0  0
 24 25  1  0  0  0
 25 26  1  0  0  0
 26 27  1  0  0  0
 33 34  1  0  0  0
 34 35  2  0  0  0
 35 36  1  0  0  0
 35 30  1  0  0  0
 11  1  1  0  0  0
 17 12  1  0  0  0
 27 22  1  0  0  0
 11  5  2  0  0  0
 28 29  1  0  0  0
M  END
> <minimizedAffinity>
-8.12123

> <CNNscore>
0.3229635954

> <CNNaffinity>
6.8979711533

> <CNN_VS>
2.2277934551

> <CNNaffinity_variance>
0.0538600758

$$$$
[H]c1nc(N2C([H])([H])C([H])([H])c3nc(-c4c([H])c([H])nc([H])c4[H])nc(N([H])c4c([H])c([H])c(C(F)(F)F)c([H])c4[H])c3C([H])([H])C2([H])[H])c(C(F)(F)F)c([H])c1[H]


 39 43  0  0  0  0  0  0  0  0999 V2000
  155.3250  139.0505  184.7487 C   0  0  0  0  0  0  0  0  0  0  0  0
  156.4341  139.8008  184.7670 N   0  0  0  0  0  0  0  0  0  0  0  0
  156.5876  140.8682  183.9798 C   0  0  0  0  0  0  0  0  0  0  0  0
  155.6016  141.2082  183.1434 N   0  0  0  0  0  0  0  0  0  0  0  0
  154.4235  140.5329  183.0240 C   0  0  0  0  0  0  0  0  0  0  0  0
  153.5383  141.2281  182.0845 C   0  0  0  0  0  0  0  0  0  0  0  0
  152.7142  140.3865  181.1924 C   0  0  0  0  0  0  0  0  0  0  0  0
  152.2081  139.1816  181.7601 N   0  0  0  0  0  0  0  0  0  0  0  0
  153.0259  138.1076  182.3122 C   0  0  0  0  0  0  0  0  0  0  0  0
  153.2386  138.4104  183.8033 C   0  0  0  0  0  0  0  0  0  0  0  0
  154.3156  139.4345  183.8510 C   0  0  0  0  0  0  0  0  0  0  0  0
  150.8275  138.8754  181.8571 C   0  0  0  0  0  0  0  0  0  0  0  0
  150.3129  138.4480  183.0560 N   0  0  0  0  0  0  0  0  0  0  0  0
  149.0399  138.1367  183.2610 C   0  0  0  0  0  0  0  0  0  0  0  0
  148.1079  138.2227  182.2448 C   0  0  0  0  0  0  0  0  0  0  0  0
  148.5697  138.6434  181.0303 C   0  0  0  0  0  0  0  0  0  0  0  0
  149.9256  138.9740  180.8223 C   0  0  0  0  0  0  0  0  0  0  0  0
  150.3110  139.3848  179.4801 C   0  0  0  0  0  0  0  0  0  0  0  0
  151.5681  138.9964  179.0717 F   0  0  0  0  0  0  0  0  0  0  0  0
  150.3572  140.7896  179.4237 F   0  0  0  0  0  0  0  0  0  0  0  0
  149.3574  139.0638  178.5170 F   0  0  0  0  0  0  0  0  0  0  0  0
  157.7899  141.7169  183.9306 C   0  0  0  0  0  0  0  0  0  0  0  0
  158.0125  142.6412  182.9563 C   0  0  0  0  0  0  0  0  0  0  0  0
  159.1516  143.4285  183.0122 C   0  0  0  0  0  0  0  0  0  0  0  0
  160.0634  143.3270  183.9862 N   0  0  0  0  0  0  0  0  0  0  0  0
  159.8659  142.4300  184.9453 C   0  0  0  0  0  0  0  0  0  0  0  0
  158.7474  141.6292  184.9289 C   0  0  0  0  0  0  0  0  0  0  0  0
  155.0588  138.0488  185.6451 N   0  0  0  0  0  0  0  0  0  0  0  0
  154.7745  137.0795  185.2159 H   0  0  0  0  0  0  0  0  0  0  0  0
  154.9408  138.0311  189.8959 C   0  0  0  0  0  0  0  0  0  0  0  0
  156.1064  137.7453  189.2020 C   0  0  0  0  0  0  0  0  0  0  0  0
  156.1019  137.7505  187.8237 C   0  0  0  0  0  0  0  0  0  0  0  0
  154.9493  138.0391  187.0571 C   0  0  0  0  0  0  0  0  0  0  0  0
  153.8245  138.3116  187.7764 C   0  0  0  0  0  0  0  0  0  0  0  0
  153.8000  138.3140  189.1761 C   0  0  0  0  0  0  0  0  0  0  0  0
  154.8069  139.3505  191.7568 F   0  0  0  0  0  0  0  0  0  0  0  0
  155.0357  138.0367  191.3769 C   0  0  0  0  0  0  0  0  0  0  0  0
  154.2245  137.1430  191.9814 F   0  0  0  0  0  0  0  0  0  0  0  0
  156.3540  137.6839  191.7051 F   0  0  0  0  0  0  0  0  0  0  0  0
 36 37  1  0  0  0
 37 38  1  0  0  0
 37 39  1  0  0  0
 37 30  1  0  0  0
 30 31  2  0  0  0
 31 32  1  0  0  0
 32 33  2  0  0  0
 33 28  1  0  0  0
 28  1  1  0  0  0
  1  2  2  0  0  0
  2  3  1  0  0  0
  3  4  2  0  0  0
  4  5  1  0  0  0
  5  6  1  0  0  0
  6  7  1  0  0  0
  7  8  1  0  0  0
  8  9  1  0  0  0
  9 10  1  0  0  0
 10 11  1  0  0  0
  8 12  1  0  0  0
 12 13  2  0  0  0
 13 14  1  0  0  0
 14 15  2  0  0  0
 15 16  1  0  0  0
 16 17  2  0  0  0
 17 18  1  0  0  0
 18 19  1  0  0  0
 18 20  1  0  0  0
 18 21  1  0  0  0
  3 22  1  0  0  0
 22 23  2  0  0  0
 23 24  1  0  0  0
 24 25  2  0  0  0
 25 26  1  0  0  0
 26 27  2  0  0  0
 33 34  1  0  0  0
 34 35  2  0  0  0
 35 30  1  0  0  0
 11  1  1  0  0  0
 17 12  1  0  0  0
 27 22  1  0  0  0
 11  5  2  0  0  0
 28 29  1  0  0  0
M  END
> <minimizedAffinity>
-10.73843

> <CNNscore>
0.4654536545

> <CNNaffinity>
7.0503525734

> <CNN_VS>
3.2816123962

> <CNNaffinity_variance>
0.1056473702

$$$$
[H]c1nc(N2C([H])([H])C([H])([H])c3nc(-c4c([H])c([H])nc([H])c4[H])nc(N([H])c4c([H])c([H])c(C(F)(F)F)c([H])c4[H])c3C([H])([H])C2([H])[H])c(C(F)(F)F)c([H])c1[H]


 39 43  0  0  0  0  0  0  0  0999 V2000
  154.4396  138.3208  184.2942 C   0  0  0  0  0  0  0  0  0  0  0  0
  155.6652  138.8549  184.2177 N   0  0  0  0  0  0  0  0  0  0  0  0
  155.9553  139.8618  183.3902 C   0  0  0  0  0  0  0  0  0  0  0  0
  154.9920  140.3619  182.6096 N   0  0  0  0  0  0  0  0  0  0  0  0
  153.7053  139.9122  182.5874 C   0  0  0  0  0  0  0  0  0  0  0  0
  152.8984  140.7411  181.6868 C   0  0  0  0  0  0  0  0  0  0  0  0
  151.8750  140.0493  180.8760 C   0  0  0  0  0  0  0  0  0  0  0  0
  151.1988  138.9681  181.5116 N   0  0  0  0  0  0  0  0  0  0  0  0
  151.8439  137.7723  182.0419 C   0  0  0  0  0  0  0  0  0  0  0  0
  152.2111  138.0577  183.5061 C   0  0  0  0  0  0  0  0  0  0  0  0
  153.4571  138.8673  183.4527 C   0  0  0  0  0  0  0  0  0  0  0  0
  149.7957  138.9223  181.7073 C   0  0  0  0  0  0  0  0  0  0  0  0
  149.2810  139.1399  182.9614 N   0  0  0  0  0  0  0  0  0  0  0  0
  147.9883  139.1229  183.2582 C   0  0  0  0  0  0  0  0  0  0  0  0
  147.0335  138.8748  182.2910 C   0  0  0  0  0  0  0  0  0  0  0  0
  147.4944  138.6515  181.0249 C   0  0  0  0  0  0  0  0  0  0  0  0
  148.8715  138.6732  180.7184 C   0  0  0  0  0  0  0  0  0  0  0  0
  149.2502  138.3949  179.3408 C   0  0  0  0  0  0  0  0  0  0  0  0
  148.2365  137.9574  178.5167 F   0  0  0  0  0  0  0  0  0  0  0  0
  150.1790  137.3385  179.3227 F   0  0  0  0  0  0  0  0  0  0  0  0
  149.9533  139.4404  178.7470 F   0  0  0  0  0  0  0  0  0  0  0  0
  157.2855  140.4744  183.2372 C   0  0  0  0  0  0  0  0  0  0  0  0
  158.3644  140.1142  183.9851 C   0  0  0  0  0  0  0  0  0  0  0  0
  159.5907  140.7130  183.7437 C   0  0  0  0  0  0  0  0  0  0  0  0
  159.7764  141.6449  182.8017 N   0  0  0  0  0  0  0  0  0  0  0  0
  158.7362  142.0118  182.0624 C   0  0  0  0  0  0  0  0  0  0  0  0
  157.5012  141.4414  182.2679 C   0  0  0  0  0  0  0  0  0  0  0  0
  154.0585  137.4013  185.2359 N   0  0  0  0  0  0  0  0  0  0  0  0
  153.1533  136.8237  185.0085 H   0  0  0  0  0  0  0  0  0  0  0  0
  155.4134  136.7473  189.2134 C   0  0  0  0  0  0  0  0  0  0  0  0
  155.0849  138.0150  188.7588 C   0  0  0  0  0  0  0  0  0  0  0  0
  154.6598  138.1881  187.4592 C   0  0  0  0  0  0  0  0  0  0  0  0
  154.5345  137.1208  186.5400 C   0  0  0  0  0  0  0  0  0  0  0  0
  154.8696  135.8922  187.0248 C   0  0  0  0  0  0  0  0  0  0  0  0
  155.3037  135.6870  188.3398 C   0  0  0  0  0  0  0  0  0  0  0  0
  154.6806  136.3115  191.3335 F   0  0  0  0  0  0  0  0  0  0  0  0
  155.8314  136.6401  190.6333 C   0  0  0  0  0  0  0  0  0  0  0  0
  156.8591  135.7893  190.8393 F   0  0  0  0  0  0  0  0  0  0  0  0
  156.2658  137.9143  191.0306 F   0  0  0  0  0  0  0  0  0  0  0  0
 36 37  1  0  0  0
 37 38  1  0  0  0
 37 39  1  0  0  0
 37 30  1  0  0  0
 30 31  2  0  0  0
 31 32  1  0  0  0
 32 33  2  0  0  0
 33 28  1  0  0  0
 28  1  1  0  0  0
  1  2  2  0  0  0
  2  3  1  0  0  0
  3  4  2  0  0  0
  4  5  1  0  0  0
  5  6  1  0  0  0
  6  7  1  0  0  0
  7  8  1  0  0  0
  8  9  1  0  0  0
  9 10  1  0  0  0
 10 11  1  0  0  0
  8 12  1  0  0  0
 12 13  2  0  0  0
 13 14  1  0  0  0
 14 15  2  0  0  0
 15 16  1  0  0  0
 16 17  2  0  0  0
 17 18  1  0  0  0
 18 19  1  0  0  0
 18 20  1  0  0  0
 18 21  1  0  0  0
  3 22  1  0  0  0
 22 23  2  0  0  0
 23 24  1  0  0  0
 24 25  2  0  0  0
 25 26  1  0  0  0
 26 27  2  0  0  0
 33 34  1  0  0  0
 34 35  2  0  0  0
 35 30  1  0  0  0
 11  1  1  0  0  0
 17 12  1  0  0  0
 27 22  1  0  0  0
 11  5  2  0  0  0
 28 29  1  0  0  0
M  END
> <minimizedAffinity>
-8.87897

> <CNNscore>
0.4136193395

> <CNNaffinity>
6.8858041763

> <CNN_VS>
2.8481018543

> <CNNaffinity_variance>
0.0414955281

$$$$
[H]c1nc(N2C([H])([H])C([H])([H])c3nc(-c4c([H])c([H])nc([H])c4[H])nc(N([H])c4c([H])c([H])c(C(F)(F)F)c([H])c4[H])c3C([H])([H])C2([H])[H])c(C(F)(F)F)c([H])c1[H]


 39 43  0  0  0  0  0  0  0  0999 V2000
  155.6313  139.0493  184.8992 C   0  0  0  0  0  0  0  0  0  0  0  0
  154.7955  139.2557  183.8734 N   0  0  0  0  0  0  0  0  0  0  0  0
  153.5709  138.7253  183.8318 C   0  0  0  0  0  0  0  0  0  0  0  0
  153.1563  137.9626  184.8486 N   0  0  0  0  0  0  0  0  0  0  0  0
  153.9041  137.6724  185.9507 C   0  0  0  0  0  0  0  0  0  0  0  0
  153.1119  136.8893  186.9039 C   0  0  0  0  0  0  0  0  0  0  0  0
  153.8149  135.8166  187.6377 C   0  0  0  0  0  0  0  0  0  0  0  0
  155.1601  136.0950  188.0161 N   0  0  0  0  0  0  0  0  0  0  0  0
  156.2412  136.4159  187.0912 C   0  0  0  0  0  0  0  0  0  0  0  0
  156.2545  137.9414  186.9093 C   0  0  0  0  0  0  0  0  0  0  0  0
  155.1629  138.2359  185.9437 C   0  0  0  0  0  0  0  0  0  0  0  0
  155.6179  136.0925  189.3575 C   0  0  0  0  0  0  0  0  0  0  0  0
  156.4769  135.1067  189.7764 N   0  0  0  0  0  0  0  0  0  0  0  0
  156.9687  135.0081  191.0044 C   0  0  0  0  0  0  0  0  0  0  0  0
  156.6380  135.9234  191.9850 C   0  0  0  0  0  0  0  0  0  0  0  0
  155.7851  136.9252  191.6189 C   0  0  0  0  0  0  0  0  0  0  0  0
  155.2685  137.0229  190.3095 C   0  0  0  0  0  0  0  0  0  0  0  0
  154.3465  138.1162  190.0388 C   0  0  0  0  0  0  0  0  0  0  0  0
  154.6739  138.9275  188.9745 F   0  0  0  0  0  0  0  0  0  0  0  0
  154.3346  138.9922  191.1394 F   0  0  0  0  0  0  0  0  0  0  0  0
  153.0194  137.7016  189.9541 F   0  0  0  0  0  0  0  0  0  0  0  0
  152.6153  138.8896  182.7237 C   0  0  0  0  0  0  0  0  0  0  0  0
  152.7130  139.8785  181.7934 C   0  0  0  0  0  0  0  0  0  0  0  0
  151.7937  139.9321  180.7576 C   0  0  0  0  0  0  0  0  0  0  0  0
  150.7952  139.0522  180.6202 N   0  0  0  0  0  0  0  0  0  0  0  0
  150.6811  138.0808  181.5184 C   0  0  0  0  0  0  0  0  0  0  0  0
  151.5735  137.9899  182.5615 C   0  0  0  0  0  0  0  0  0  0  0  0
  156.8275  139.6981  185.0596 N   0  0  0  0  0  0  0  0  0  0  0  0
  157.4117  139.4219  185.9468 H   0  0  0  0  0  0  0  0  0  0  0  0
  158.4427  143.0352  182.9767 C   0  0  0  0  0  0  0  0  0  0  0  0
  157.0743  142.8437  183.0884 C   0  0  0  0  0  0  0  0  0  0  0  0
  156.5892  141.7436  183.7623 C   0  0  0  0  0  0  0  0  0  0  0  0
  157.4271  140.7756  184.3629 C   0  0  0  0  0  0  0  0  0  0  0  0
  158.7646  140.9987  184.2281 C   0  0  0  0  0  0  0  0  0  0  0  0
  159.2852  142.1072  183.5498 C   0  0  0  0  0  0  0  0  0  0  0  0
  159.8600  144.8253  183.0712 F   0  0  0  0  0  0  0  0  0  0  0  0
  158.8845  144.2598  182.2642 C   0  0  0  0  0  0  0  0  0  0  0  0
  159.2847  144.0404  180.9938 F   0  0  0  0  0  0  0  0  0  0  0  0
  157.7780  145.1214  182.2042 F   0  0  0  0  0  0  0  0  0  0  0  0
 36 37  1  0  0  0
 37 38  1  0  0  0
 37 39  1  0  0  0
 37 30  1  0  0  0
 30 31  2  0  0  0
 31 32  1  0  0  0
 32 33  2  0  0  0
 33 28  1  0  0  0
 28  1  1  0  0  0
  1  2  2  0  0  0
  2  3  1  0  0  0
  3  4  2  0  0  0
  4  5  1  0  0  0
  5  6  1  0  0  0
  6  7  1  0  0  0
  7  8  1  0  0  0
  8  9  1  0  0  0
  9 10  1  0  0  0
 10 11  1  0  0  0
  8 12  1  0  0  0
 12 13  2  0  0  0
 13 14  1  0  0  0
 14 15  2  0  0  0
 15 16  1  0  0  0
 16 17  2  0  0  0
 17 18  1  0  0  0
 18 19  1  0  0  0
 18 20  1  0  0  0
 18 21  1  0  0  0
  3 22  1  0  0  0
 22 23  2  0  0  0
 23 24  1  0  0  0
 24 25  2  0  0  0
 25 26  1  0  0  0
 26 27  2  0  0  0
 33 34  1  0  0  0
 34 35  2  0  0  0
 35 30  1  0  0  0
 11  1  1  0  0  0
 17 12  1  0  0  0
 27 22  1  0  0  0
 11  5  2  0  0  0
 28 29  1  0  0  0
M  END
> <minimizedAffinity>
-9.60059

> <CNNscore>
0.3591835201

> <CNNaffinity>
6.9598832130

> <CNN_VS>
2.4998753071

> <CNNaffinity_variance>
0.1391466856

$$$$
[H]c1nc(N2C([H])([H])C([H])([H])c3nc(-c4c([H])c([H])nc([H])c4[H])nc(N([H])c4c([H])c([H])c(C(F)(F)F)c([H])c4[H])c3C([H])([H])C2([H])[H])c(C(F)(F)F)c([H])c1[H]


 39 43  0  0  0  0  0  0  0  0999 V2000
  154.0240  138.8350  184.1857 C   0  0  0  0  0  0  0  0  0  0  0  0
  154.9394  139.8078  184.0904 N   0  0  0  0  0  0  0  0  0  0  0  0
  154.9497  140.6826  183.0818 C   0  0  0  0  0  0  0  0  0  0  0  0
  154.0138  140.5924  182.1313 N   0  0  0  0  0  0  0  0  0  0  0  0
  153.0270  139.6523  182.1066 C   0  0  0  0  0  0  0  0  0  0  0  0
  152.1251  139.8996  180.9775 C   0  0  0  0  0  0  0  0  0  0  0  0
  151.6035  138.7152  180.2645 C   0  0  0  0  0  0  0  0  0  0  0  0
  151.3046  137.5800  181.0721 N   0  0  0  0  0  0  0  0  0  0  0  0
  152.2648  136.8733  181.9122 C   0  0  0  0  0  0  0  0  0  0  0  0
  152.2402  137.5363  183.2979 C   0  0  0  0  0  0  0  0  0  0  0  0
  153.0630  138.7675  183.1639 C   0  0  0  0  0  0  0  0  0  0  0  0
  150.0186  136.9901  181.1571 C   0  0  0  0  0  0  0  0  0  0  0  0
  149.8517  135.6776  180.7901 N   0  0  0  0  0  0  0  0  0  0  0  0
  148.6976  135.0251  180.8309 C   0  0  0  0  0  0  0  0  0  0  0  0
  147.5390  135.6432  181.2603 C   0  0  0  0  0  0  0  0  0  0  0  0
  147.6515  136.9512  181.6371 C   0  0  0  0  0  0  0  0  0  0  0  0
  148.8840  137.6365  181.5918 C   0  0  0  0  0  0  0  0  0  0  0  0
  148.8812  139.0362  181.9912 C   0  0  0  0  0  0  0  0  0  0  0  0
  149.7930  139.3844  182.9636 F   0  0  0  0  0  0  0  0  0  0  0  0
  147.6369  139.3480  182.5687 F   0  0  0  0  0  0  0  0  0  0  0  0
  148.9530  139.9116  180.9102 F   0  0  0  0  0  0  0  0  0  0  0  0
  155.9421  141.7557  182.9031 C   0  0  0  0  0  0  0  0  0  0  0  0
  157.2716  141.5916  183.1452 C   0  0  0  0  0  0  0  0  0  0  0  0
  158.1418  142.6438  182.9078 C   0  0  0  0  0  0  0  0  0  0  0  0
  157.7406  143.8349  182.4488 N   0  0  0  0  0  0  0  0  0  0  0  0
  156.4474  144.0161  182.2080 C   0  0  0  0  0  0  0  0  0  0  0  0
  155.5495  142.9973  182.4284 C   0  0  0  0  0  0  0  0  0  0  0  0
  153.8781  138.0201  185.2777 N   0  0  0  0  0  0  0  0  0  0  0  0
  153.1835  137.1781  185.1627 H   0  0  0  0  0  0  0  0  0  0  0  0
  155.1173  138.2937  189.3364 C   0  0  0  0  0  0  0  0  0  0  0  0
  153.8059  138.5405  188.9608 C   0  0  0  0  0  0  0  0  0  0  0  0
  153.4453  138.4523  187.6334 C   0  0  0  0  0  0  0  0  0  0  0  0
  154.3575  138.1146  186.6070 C   0  0  0  0  0  0  0  0  0  0  0  0
  155.6361  137.8828  187.0171 C   0  0  0  0  0  0  0  0  0  0  0  0
  156.0304  137.9646  188.3579 C   0  0  0  0  0  0  0  0  0  0  0  0
  156.7692  138.0880  190.9019 F   0  0  0  0  0  0  0  0  0  0  0  0
  155.4181  138.3777  190.7872 C   0  0  0  0  0  0  0  0  0  0  0  0
  155.0595  139.5490  191.3543 F   0  0  0  0  0  0  0  0  0  0  0  0
  154.6741  137.3693  191.4196 F   0  0  0  0  0  0  0  0  0  0  0  0
 36 37  1  0  0  0
 37 38  1  0  0  0
 37 39  1  0  0  0
 37 30  1  0  0  0
 30 31  2  0  0  0
 31 32  1  0  0  0
 32 33  2  0  0  0
 33 28  1  0  0  0
 28  1  1  0  0  0
  1  2  2  0  0  0
  2  3  1  0  0  0
  3  4  2  0  0  0
  4  5  1  0  0  0
  5  6  1  0  0  0
  6  7  1  0  0  0
  7  8  1  0  0  0
  8  9  1  0  0  0
  9 10  1  0  0  0
 10 11  1  0  0  0
  8 12  1  0  0  0
 12 13  2  0  0  0
 13 14  1  0  0  0
 14 15  2  0  0  0
 15 16  1  0  0  0
 16 17  2  0  0  0
 17 18  1  0  0  0
 18 19  1  0  0  0
 18 20  1  0  0  0
 18 21  1  0  0  0
  3 22  1  0  0  0
 22 23  2  0  0  0
 23 24  1  0  0  0
 24 25  2  0  0  0
 25 26  1  0  0  0
 26 27  2  0  0  0
 33 34  1  0  0  0
 34 35  2  0  0  0
 35 30  1  0  0  0
 11  1  1  0  0  0
 17 12  1  0  0  0
 27 22  1  0  0  0
 11  5  2  0  0  0
 28 29  1  0  0  0
M  END
> <minimizedAffinity>
-9.89626

> <CNNscore>
0.3412557840

> <CNNaffinity>
6.7436361313

> <CNN_VS>
2.3013048172

> <CNNaffinity_variance>
0.1468055993

$$$$
[H]c1nc(N2C([H])([H])C([H])([H])c3nc(-c4c([H])c([H])nc([H])c4[H])nc(N([H])c4c([H])c([H])c(C(F)(F)F)c([H])c4[H])c3C([H])([H])C2([H])[H])c(C(F)(F)F)c([H])c1[H]


 39 43  0  0  0  0  0  0  0  0999 V2000
  155.9817  140.6359  184.4839 C   0  0  0  0  0  0  0  0  0  0  0  0
  157.1612  141.2560  184.6154 N   0  0  0  0  0  0  0  0  0  0  0  0
  158.1637  140.7403  185.3308 C   0  0  0  0  0  0  0  0  0  0  0  0
  157.9921  139.5614  185.9375 N   0  0  0  0  0  0  0  0  0  0  0  0
  156.8450  138.8267  185.8862 C   0  0  0  0  0  0  0  0  0  0  0  0
  157.0329  137.5515  186.5847 C   0  0  0  0  0  0  0  0  0  0  0  0
  155.8892  137.0423  187.3696 C   0  0  0  0  0  0  0  0  0  0  0  0
  154.5973  137.2713  186.8136 N   0  0  0  0  0  0  0  0  0  0  0  0
  154.0358  138.5829  186.5114 C   0  0  0  0  0  0  0  0  0  0  0  0
  154.4294  138.9311  185.0677 C   0  0  0  0  0  0  0  0  0  0  0  0
  155.8370  139.4041  185.1428 C   0  0  0  0  0  0  0  0  0  0  0  0
  153.6870  136.2362  186.4833 C   0  0  0  0  0  0  0  0  0  0  0  0
  153.6046  135.7979  185.1848 N   0  0  0  0  0  0  0  0  0  0  0  0
  152.7923  134.8372  184.7644 C   0  0  0  0  0  0  0  0  0  0  0  0
  151.9397  134.1867  185.6354 C   0  0  0  0  0  0  0  0  0  0  0  0
  151.9830  134.5863  186.9406 C   0  0  0  0  0  0  0  0  0  0  0  0
  152.8517  135.6082  187.3788 C   0  0  0  0  0  0  0  0  0  0  0  0
  152.7939  135.9710  188.7872 C   0  0  0  0  0  0  0  0  0  0  0  0
  153.8751  135.5879  189.5503 F   0  0  0  0  0  0  0  0  0  0  0  0
  151.7063  135.3118  189.3885 F   0  0  0  0  0  0  0  0  0  0  0  0
  152.4966  137.3163  188.9917 F   0  0  0  0  0  0  0  0  0  0  0  0
  159.4725  141.3823  185.5381 C   0  0  0  0  0  0  0  0  0  0  0  0
  160.4682  141.3656  184.6100 C   0  0  0  0  0  0  0  0  0  0  0  0
  161.6537  142.0342  184.8712 C   0  0  0  0  0  0  0  0  0  0  0  0
  161.8801  142.7045  186.0069 N   0  0  0  0  0  0  0  0  0  0  0  0
  160.9222  142.7313  186.9261 C   0  0  0  0  0  0  0  0  0  0  0  0
  159.7291  142.0824  186.7065 C   0  0  0  0  0  0  0  0  0  0  0  0
  154.9870  141.0461  183.6353 N   0  0  0  0  0  0  0  0  0  0  0  0
  154.2178  140.3004  183.3964 H   0  0  0  0  0  0  0  0  0  0  0  0
  154.6290  144.5564  181.2619 C   0  0  0  0  0  0  0  0  0  0  0  0
  155.8273  143.8663  181.3591 C   0  0  0  0  0  0  0  0  0  0  0  0
  155.9065  142.7385  182.1474 C   0  0  0  0  0  0  0  0  0  0  0  0
  154.8086  142.2307  182.8797 C   0  0  0  0  0  0  0  0  0  0  0  0
  153.6507  142.9389  182.7597 C   0  0  0  0  0  0  0  0  0  0  0  0
  153.5413  144.0870  181.9662 C   0  0  0  0  0  0  0  0  0  0  0  0
  153.2779  146.0174  180.1386 F   0  0  0  0  0  0  0  0  0  0  0  0
  154.6171  145.7413  180.3683 C   0  0  0  0  0  0  0  0  0  0  0  0
  155.3191  146.7923  180.8426 F   0  0  0  0  0  0  0  0  0  0  0  0
  155.2220  145.3524  179.1629 F   0  0  0  0  0  0  0  0  0  0  0  0
 36 37  1  0  0  0
 37 38  1  0  0  0
 37 39  1  0  0  0
 37 30  1  0  0  0
 30 31  2  0  0  0
 31 32  1  0  0  0
 32 33  2  0  0  0
 33 28  1  0  0  0
 28  1  1  0  0  0
  1  2  2  0  0  0
  2  3  1  0  0  0
  3  4  2  0  0  0
  4  5  1  0  0  0
  5  6  1  0  0  0
  6  7  1  0  0  0
  7  8  1  0  0  0
  8  9  1  0  0  0
  9 10  1  0  0  0
 10 11  1  0  0  0
  8 12  1  0  0  0
 12 13  2  0  0  0
 13 14  1  0  0  0
 14 15  2  0  0  0
 15 16  1  0  0  0
 16 17  2  0  0  0
 17 18  1  0  0  0
 18 19  1  0  0  0
 18 20  1  0  0  0
 18 21  1  0  0  0
  3 22  1  0  0  0
 22 23  2  0  0  0
 23 24  1  0  0  0
 24 25  2  0  0  0
 25 26  1  0  0  0
 26 27  2  0  0  0
 33 34  1  0  0  0
 34 35  2  0  0  0
 35 30  1  0  0  0
 11  1  1  0  0  0
 17 12  1  0  0  0
 27 22  1  0  0  0
 11  5  2  0  0  0
 28 29  1  0  0  0
M  END
> <minimizedAffinity>
7.89199

> <CNNscore>
0.3087609112

> <CNNaffinity>
6.8084425926

> <CNN_VS>
2.1021809578

> <CNNaffinity_variance>
0.3482824564

$$$$
[H]c1nc(N2C([H])([H])C([H])([H])c3nc(-c4c([H])c([H])nc([H])c4[H])nc(N([H])c4c([H])c([H])c(C(F)(F)F)c([H])c4[H])c3C([H])([H])C2([H])[H])c(C(F)(F)F)c([H])c1[H]


 39 43  0  0  0  0  0  0  0  0999 V2000
  154.7570  138.4456  184.8768 C   0  0  0  0  0  0  0  0  0  0  0  0
  155.2197  138.5091  186.1318 N   0  0  0  0  0  0  0  0  0  0  0  0
  154.5635  137.9720  187.1632 C   0  0  0  0  0  0  0  0  0  0  0  0
  153.4041  137.3440  186.9420 N   0  0  0  0  0  0  0  0  0  0  0  0
  152.8214  137.2078  185.7172 C   0  0  0  0  0  0  0  0  0  0  0  0
  151.6093  136.3902  185.8251 C   0  0  0  0  0  0  0  0  0  0  0  0
  150.4590  136.7830  184.9850 C   0  0  0  0  0  0  0  0  0  0  0  0
  150.7726  137.2755  183.6852 N   0  0  0  0  0  0  0  0  0  0  0  0
  151.6013  138.4435  183.4094 C   0  0  0  0  0  0  0  0  0  0  0  0
  153.0544  137.9594  183.2889 C   0  0  0  0  0  0  0  0  0  0  0  0
  153.5323  137.7854  184.6861 C   0  0  0  0  0  0  0  0  0  0  0  0
  150.3089  136.6818  182.4846 C   0  0  0  0  0  0  0  0  0  0  0  0
  150.8138  135.4666  182.0929 N   0  0  0  0  0  0  0  0  0  0  0  0
  150.4519  134.8200  180.9927 C   0  0  0  0  0  0  0  0  0  0  0  0
  149.5073  135.3435  180.1310 C   0  0  0  0  0  0  0  0  0  0  0  0
  148.9735  136.5523  180.4758 C   0  0  0  0  0  0  0  0  0  0  0  0
  149.3636  137.2319  181.6493 C   0  0  0  0  0  0  0  0  0  0  0  0
  148.7484  138.5265  181.9031 C   0  0  0  0  0  0  0  0  0  0  0  0
  148.2819  138.7283  183.1836 F   0  0  0  0  0  0  0  0  0  0  0  0
  147.5997  138.6559  181.1015 F   0  0  0  0  0  0  0  0  0  0  0  0
  149.5399  139.5961  181.4913 F   0  0  0  0  0  0  0  0  0  0  0  0
  155.0019  138.0307  188.5676 C   0  0  0  0  0  0  0  0  0  0  0  0
  154.1383  138.1050  189.6173 C   0  0  0  0  0  0  0  0  0  0  0  0
  154.6373  138.1118  190.9102 C   0  0  0  0  0  0  0  0  0  0  0  0
  155.9444  138.0517  191.1897 N   0  0  0  0  0  0  0  0  0  0  0  0
  156.8037  137.9807  190.1798 C   0  0  0  0  0  0  0  0  0  0  0  0
  156.3507  137.9697  188.8808 C   0  0  0  0  0  0  0  0  0  0  0  0
  155.4686  138.8386  183.7736 N   0  0  0  0  0  0  0  0  0  0  0  0
  155.6727  138.0597  183.0277 H   0  0  0  0  0  0  0  0  0  0  0  0
  157.5833  142.3645  182.6875 C   0  0  0  0  0  0  0  0  0  0  0  0
  158.1831  141.1156  182.6390 C   0  0  0  0  0  0  0  0  0  0  0  0
  157.4679  139.9972  183.0094 C   0  0  0  0  0  0  0  0  0  0  0  0
  156.1237  140.0506  183.4454 C   0  0  0  0  0  0  0  0  0  0  0  0
  155.5721  141.2961  183.4816 C   0  0  0  0  0  0  0  0  0  0  0  0
  156.2744  142.4490  183.1108 C   0  0  0  0  0  0  0  0  0  0  0  0
  159.3876  143.6644  183.2136 F   0  0  0  0  0  0  0  0  0  0  0  0
  158.4095  143.5142  182.2423 C   0  0  0  0  0  0  0  0  0  0  0  0
  158.8968  143.3864  180.9900 F   0  0  0  0  0  0  0  0  0  0  0  0
  157.5767  144.6441  182.2468 F   0  0  0  0  0  0  0  0  0  0  0  0
 36 37  1  0  0  0
 37 38  1  0  0  0
 37 39  1  0  0  0
 37 30  1  0  0  0
 30 31  2  0  0  0
 31 32  1  0  0  0
 32 33  2  0  0  0
 33 28  1  0  0  0
 28  1  1  0  0  0
  1  2  2  0  0  0
  2  3  1  0  0  0
  3  4  2  0  0  0
  4  5  1  0  0  0
  5  6  1  0  0  0
  6  7  1  0  0  0
  7  8  1  0  0  0
  8  9  1  0  0  0
  9 10  1  0  0  0
 10 11  1  0  0  0
  8 12  1  0  0  0
 12 13  2  0  0  0
 13 14  1  0  0  0
 14 15  2  0  0  0
 15 16  1  0  0  0
 16 17  2  0  0  0
 17 18  1  0  0  0
 18 19  1  0  0  0
 18 20  1  0  0  0
 18 21  1  0  0  0
  3 22  1  0  0  0
 22 23  2  0  0  0
 23 24  1  0  0  0
 24 25  2  0  0  0
 25 26  1  0  0  0
 26 27  2  0  0  0
 33 34  1  0  0  0
 34 35  2  0  0  0
 35 30  1  0  0  0
 11  1  1  0  0  0
 17 12  1  0  0  0
 27 22  1  0  0  0
 11  5  2  0  0  0
 28 29  1  0  0  0
M  END
> <minimizedAffinity>
-8.01669

> <CNNscore>
0.3028659225

> <CNNaffinity>
6.8839569092

> <CNN_VS>
2.0849158764

> <CNNaffinity_variance>
0.0839125142

$$$$
[H]c1nc(N2C([H])([H])C([H])([H])c3nc(-c4c([H])c([H])nc([H])c4[H])nc(N([H])c4c([H])c([H])c(C(F)(F)F)c([H])c4[H])c3C([H])([H])C2([H])[H])c(C(F)(F)F)c([H])c1[H]


 39 43  0  0  0  0  0  0  0  0999 V2000
  154.3300  138.6904  184.1797 C   0  0  0  0  0  0  0  0  0  0  0  0
  155.4981  139.3102  183.9688 N   0  0  0  0  0  0  0  0  0  0  0  0
  155.6592  140.2230  183.0078 C   0  0  0  0  0  0  0  0  0  0  0  0
  154.6207  140.5370  182.2266 N   0  0  0  0  0  0  0  0  0  0  0  0
  153.3798  139.9829  182.3326 C   0  0  0  0  0  0  0  0  0  0  0  0
  152.4620  140.6193  181.3829 C   0  0  0  0  0  0  0  0  0  0  0  0
  151.4691  139.7465  180.7229 C   0  0  0  0  0  0  0  0  0  0  0  0
  150.9218  138.7034  181.5247 N   0  0  0  0  0  0  0  0  0  0  0  0
  151.6946  137.6435  182.1621 C   0  0  0  0  0  0  0  0  0  0  0  0
  152.1006  138.1440  183.5567 C   0  0  0  0  0  0  0  0  0  0  0  0
  153.2654  139.0408  183.3334 C   0  0  0  0  0  0  0  0  0  0  0  0
  149.5387  138.5668  181.8031 C   0  0  0  0  0  0  0  0  0  0  0  0
  149.0268  139.0981  182.9609 N   0  0  0  0  0  0  0  0  0  0  0  0
  147.7518  139.0315  183.3208 C   0  0  0  0  0  0  0  0  0  0  0  0
  146.8147  138.3985  182.5272 C   0  0  0  0  0  0  0  0  0  0  0  0
  147.2736  137.8522  181.3626 C   0  0  0  0  0  0  0  0  0  0  0  0
  148.6316  137.9296  180.9874 C   0  0  0  0  0  0  0  0  0  0  0  0
  149.0133  137.2884  179.7377 C   0  0  0  0  0  0  0  0  0  0  0  0
  149.5552  138.1168  178.7794 F   0  0  0  0  0  0  0  0  0  0  0  0
  147.8639  136.7640  179.1191 F   0  0  0  0  0  0  0  0  0  0  0  0
  149.8103  136.1615  179.9245 F   0  0  0  0  0  0  0  0  0  0  0  0
  156.9210  140.9193  182.7056 C   0  0  0  0  0  0  0  0  0  0  0  0
  158.0703  140.2711  182.3707 C   0  0  0  0  0  0  0  0  0  0  0  0
  159.2015  141.0084  182.0586 C   0  0  0  0  0  0  0  0  0  0  0  0
  159.2289  142.3461  182.0716 N   0  0  0  0  0  0  0  0  0  0  0  0
  158.1186  142.9975  182.3974 C   0  0  0  0  0  0  0  0  0  0  0  0
  156.9727  142.3044  182.7126 C   0  0  0  0  0  0  0  0  0  0  0  0
  154.0756  137.8709  185.2481 N   0  0  0  0  0  0  0  0  0  0  0  0
  153.4722  136.9781  185.0393 H   0  0  0  0  0  0  0  0  0  0  0  0
  155.0530  138.2673  189.3677 C   0  0  0  0  0  0  0  0  0  0  0  0
  155.9728  137.7891  188.4473 C   0  0  0  0  0  0  0  0  0  0  0  0
  155.6147  137.6647  187.1222 C   0  0  0  0  0  0  0  0  0  0  0  0
  154.3322  138.0067  186.6343 C   0  0  0  0  0  0  0  0  0  0  0  0
  153.4572  138.4696  187.5707 C   0  0  0  0  0  0  0  0  0  0  0  0
  153.7936  138.6067  188.9227 C   0  0  0  0  0  0  0  0  0  0  0  0
  156.9078  138.3155  190.7016 F   0  0  0  0  0  0  0  0  0  0  0  0
  155.5255  138.4019  190.7681 C   0  0  0  0  0  0  0  0  0  0  0  0
  155.0759  139.5102  191.3940 F   0  0  0  0  0  0  0  0  0  0  0  0
  155.0272  137.2978  191.4773 F   0  0  0  0  0  0  0  0  0  0  0  0
 36 37  1  0  0  0
 37 38  1  0  0  0
 37 39  1  0  0  0
 37 30  1  0  0  0
 30 31  2  0  0  0
 31 32  1  0  0  0
 32 33  2  0  0  0
 33 28  1  0  0  0
 28  1  1  0  0  0
  1  2  2  0  0  0
  2  3  1  0  0  0
  3  4  2  0  0  0
  4  5  1  0  0  0
  5  6  1  0  0  0
  6  7  1  0  0  0
  7  8  1  0  0  0
  8  9  1  0  0  0
  9 10  1  0  0  0
 10 11  1  0  0  0
  8 12  1  0  0  0
 12 13  2  0  0  0
 13 14  1  0  0  0
 14 15  2  0  0  0
 15 16  1  0  0  0
 16 17  2  0  0  0
 17 18  1  0  0  0
 18 19  1  0  0  0
 18 20  1  0  0  0
 18 21  1  0  0  0
  3 22  1  0  0  0
 22 23  2  0  0  0
 23 24  1  0  0  0
 24 25  2  0  0  0
 25 26  1  0  0  0
 26 27  2  0  0  0
 33 34  1  0  0  0
 34 35  2  0  0  0
 35 30  1  0  0  0
 11  1  1  0  0  0
 17 12  1  0  0  0
 27 22  1  0  0  0
 11  5  2  0  0  0
 28 29  1  0  0  0
M  END
> <minimizedAffinity>
-10.17819

> <CNNscore>
0.2800458372

> <CNNaffinity>
6.8473291397

> <CNN_VS>
1.9175660610

> <CNNaffinity_variance>
0.0527627468

$$$$
[H]c1nc(N2C([H])([H])C([H])([H])c3nc(-c4c([H])c([H])nc([H])c4[H])nc(N([H])c4c([H])c([H])c(C(F)(F)F)c([H])c4[H])c3C([H])([H])C2([H])[H])c(C(F)(F)F)c([H])c1[H]


 39 43  0  0  0  0  0  0  0  0999 V2000
  155.1669  139.4800  183.9270 C   0  0  0  0  0  0  0  0  0  0  0  0
  154.3505  139.5011  182.8658 N   0  0  0  0  0  0  0  0  0  0  0  0
  153.1465  138.9240  182.8792 C   0  0  0  0  0  0  0  0  0  0  0  0
  152.7334  138.3041  183.9893 N   0  0  0  0  0  0  0  0  0  0  0  0
  153.4630  138.2081  185.1368 C   0  0  0  0  0  0  0  0  0  0  0  0
  152.6749  137.5443  186.1797 C   0  0  0  0  0  0  0  0  0  0  0  0
  153.3963  136.6191  187.0780 C   0  0  0  0  0  0  0  0  0  0  0  0
  154.7211  137.0014  187.4373 N   0  0  0  0  0  0  0  0  0  0  0  0
  155.8132  137.2235  186.4965 C   0  0  0  0  0  0  0  0  0  0  0  0
  155.7779  138.7049  186.0909 C   0  0  0  0  0  0  0  0  0  0  0  0
  154.7011  138.8121  185.0711 C   0  0  0  0  0  0  0  0  0  0  0  0
  155.1449  137.2139  188.7730 C   0  0  0  0  0  0  0  0  0  0  0  0
  154.7502  138.3505  189.4343 N   0  0  0  0  0  0  0  0  0  0  0  0
  155.0845  138.6501  190.6825 C   0  0  0  0  0  0  0  0  0  0  0  0
  155.8839  137.8091  191.4324 C   0  0  0  0  0  0  0  0  0  0  0  0
  156.3041  136.6632  190.8196 C   0  0  0  0  0  0  0  0  0  0  0  0
  155.9418  136.3522  189.4918 C   0  0  0  0  0  0  0  0  0  0  0  0
  156.4694  135.1170  188.9310 C   0  0  0  0  0  0  0  0  0  0  0  0
  155.5570  134.3163  188.2794 F   0  0  0  0  0  0  0  0  0  0  0  0
  156.9465  134.3039  189.9750 F   0  0  0  0  0  0  0  0  0  0  0  0
  157.6024  135.3153  188.1455 F   0  0  0  0  0  0  0  0  0  0  0  0
  152.2138  138.8866  181.7404 C   0  0  0  0  0  0  0  0  0  0  0  0
  151.1952  137.9893  181.6381 C   0  0  0  0  0  0  0  0  0  0  0  0
  150.3371  138.0544  180.5518 C   0  0  0  0  0  0  0  0  0  0  0  0
  150.4579  138.9642  179.5782 N   0  0  0  0  0  0  0  0  0  0  0  0
  151.4463  139.8474  179.6581 C   0  0  0  0  0  0  0  0  0  0  0  0
  152.3198  139.8193  180.7206 C   0  0  0  0  0  0  0  0  0  0  0  0
  156.3355  140.1906  184.0130 N   0  0  0  0  0  0  0  0  0  0  0  0
  156.8325  140.1864  184.9916 H   0  0  0  0  0  0  0  0  0  0  0  0
  158.3343  142.6342  181.1639 C   0  0  0  0  0  0  0  0  0  0  0  0
  158.4626  141.2539  181.1519 C   0  0  0  0  0  0  0  0  0  0  0  0
  157.8074  140.4967  182.0990 C   0  0  0  0  0  0  0  0  0  0  0  0
  156.9901  141.0597  183.1064 C   0  0  0  0  0  0  0  0  0  0  0  0
  156.8925  142.4187  183.0853 C   0  0  0  0  0  0  0  0  0  0  0  0
  157.5461  143.2125  182.1353 C   0  0  0  0  0  0  0  0  0  0  0  0
  158.3343  143.1156  178.9300 F   0  0  0  0  0  0  0  0  0  0  0  0
  159.0449  143.3751  180.0921 C   0  0  0  0  0  0  0  0  0  0  0  0
  159.2093  144.6896  180.3512 F   0  0  0  0  0  0  0  0  0  0  0  0
  160.3266  142.8131  179.9851 F   0  0  0  0  0  0  0  0  0  0  0  0
 36 37  1  0  0  0
 37 38  1  0  0  0
 37 39  1  0  0  0
 37 30  1  0  0  0
 30 31  2  0  0  0
 31 32  1  0  0  0
 32 33  2  0  0  0
 33 28  1  0  0  0
 28  1  1  0  0  0
  1  2  2  0  0  0
  2  3  1  0  0  0
  3  4  2  0  0  0
  4  5  1  0  0  0
  5  6  1  0  0  0
  6  7  1  0  0  0
  7  8  1  0  0  0
  8  9  1  0  0  0
  9 10  1  0  0  0
 10 11  1  0  0  0
  8 12  1  0  0  0
 12 13  2  0  0  0
 13 14  1  0  0  0
 14 15  2  0  0  0
 15 16  1  0  0  0
 16 17  2  0  0  0
 17 18  1  0  0  0
 18 19  1  0  0  0
 18 20  1  0  0  0
 18 21  1  0  0  0
  3 22  1  0  0  0
 22 23  2  0  0  0
 23 24  1  0  0  0
 24 25  2  0  0  0
 25 26  1  0  0  0
 26 27  2  0  0  0
 33 34  1  0  0  0
 34 35  2  0  0  0
 35 30  1  0  0  0
 11  1  1  0  0  0
 17 12  1  0  0  0
 27 22  1  0  0  0
 11  5  2  0  0  0
 28 29  1  0  0  0
M  END
> <minimizedAffinity>
-9.35038

> <CNNscore>
0.2502697408

> <CNNaffinity>
6.9415884018

> <CNN_VS>
1.7372695208

> <CNNaffinity_variance>
0.0756013989

$$$$
[H]c1nc(N2C([H])([H])C([H])([H])c3nc(-c4c([H])c([H])nc([H])c4[H])nc(N([H])c4c([H])c([H])c(C(F)(F)F)c([H])c4[H])c3C([H])([H])C2([H])[H])c(C(F)(F)F)c([H])c1[H]


 39 43  0  0  0  0  0  0  0  0999 V2000
  152.6821  136.8985  184.8866 C   0  0  0  0  0  0  0  0  0  0  0  0
  152.5749  137.5214  183.7061 N   0  0  0  0  0  0  0  0  0  0  0  0
  151.3937  137.8376  183.1698 C   0  0  0  0  0  0  0  0  0  0  0  0
  150.2739  137.5274  183.8310 N   0  0  0  0  0  0  0  0  0  0  0  0
  150.2404  136.8945  185.0378 C   0  0  0  0  0  0  0  0  0  0  0  0
  148.8576  136.7934  185.5144 C   0  0  0  0  0  0  0  0  0  0  0  0
  148.4794  135.5484  186.2146 C   0  0  0  0  0  0  0  0  0  0  0  0
  149.4779  134.9741  187.0533 N   0  0  0  0  0  0  0  0  0  0  0  0
  150.7950  134.5342  186.6073 C   0  0  0  0  0  0  0  0  0  0  0  0
  151.7490  135.7314  186.7370 C   0  0  0  0  0  0  0  0  0  0  0  0
  151.4836  136.5817  185.5465 C   0  0  0  0  0  0  0  0  0  0  0  0
  149.3091  134.7560  188.4436 C   0  0  0  0  0  0  0  0  0  0  0  0
  149.8683  135.6347  189.3382 N   0  0  0  0  0  0  0  0  0  0  0  0
  149.7725  135.5298  190.6570 C   0  0  0  0  0  0  0  0  0  0  0  0
  149.0786  134.4901  191.2452 C   0  0  0  0  0  0  0  0  0  0  0  0
  148.5026  133.5871  190.3977 C   0  0  0  0  0  0  0  0  0  0  0  0
  148.6085  133.7080  188.9959 C   0  0  0  0  0  0  0  0  0  0  0  0
  147.9778  132.6728  188.1901 C   0  0  0  0  0  0  0  0  0  0  0  0
  148.7770  132.0878  187.2324 F   0  0  0  0  0  0  0  0  0  0  0  0
  146.9260  133.2422  187.4496 F   0  0  0  0  0  0  0  0  0  0  0  0
  147.3334  131.7036  188.9552 F   0  0  0  0  0  0  0  0  0  0  0  0
  151.2058  138.4957  181.8660 C   0  0  0  0  0  0  0  0  0  0  0  0
  149.9829  138.8092  181.3568 C   0  0  0  0  0  0  0  0  0  0  0  0
  149.9005  139.4686  180.1407 C   0  0  0  0  0  0  0  0  0  0  0  0
  150.9752  139.8177  179.4241 N   0  0  0  0  0  0  0  0  0  0  0  0
  152.1774  139.5193  179.9023 C   0  0  0  0  0  0  0  0  0  0  0  0
  152.3045  138.8667  181.1068 C   0  0  0  0  0  0  0  0  0  0  0  0
  153.8663  136.6990  185.5466 N   0  0  0  0  0  0  0  0  0  0  0  0
  154.6131  136.0870  185.0247 H   0  0  0  0  0  0  0  0  0  0  0  0
  154.9787  137.8065  189.4988 C   0  0  0  0  0  0  0  0  0  0  0  0
  154.0879  138.5665  188.7567 C   0  0  0  0  0  0  0  0  0  0  0  0
  153.7605  138.1805  187.4747 C   0  0  0  0  0  0  0  0  0  0  0  0
  154.2921  137.0246  186.8576 C   0  0  0  0  0  0  0  0  0  0  0  0
  155.1655  136.3073  187.6188 C   0  0  0  0  0  0  0  0  0  0  0  0
  155.5158  136.6752  188.9233 C   0  0  0  0  0  0  0  0  0  0  0  0
  154.8720  139.6035  190.9064 F   0  0  0  0  0  0  0  0  0  0  0  0
  155.2548  138.2710  190.8810 C   0  0  0  0  0  0  0  0  0  0  0  0
  154.6751  137.5166  191.8386 F   0  0  0  0  0  0  0  0  0  0  0  0
  156.6426  138.1854  191.0733 F   0  0  0  0  0  0  0  0  0  0  0  0
 36 37  1  0  0  0
 37 38  1  0  0  0
 37 39  1  0  0  0
 37 30  1  0  0  0
 30 31  2  0  0  0
 31 32  1  0  0  0
 32 33  2  0  0  0
 33 28  1  0  0  0
 28  1  1  0  0  0
  1  2  2  0  0  0
  2  3  1  0  0  0
  3  4  2  0  0  0
  4  5  1  0  0  0
  5  6  1  0  0  0
  6  7  1  0  0  0
  7  8  1  0  0  0
  8  9  1  0  0  0
  9 10  1  0  0  0
 10 11  1  0  0  0
  8 12  1  0  0  0
 12 13  2  0  0  0
 13 14  1  0  0  0
 14 15  2  0  0  0
 15 16  1  0  0  0
 16 17  2  0  0  0
 17 18  1  0  0  0
 18 19  1  0  0  0
 18 20  1  0  0  0
 18 21  1  0  0  0
  3 22  1  0  0  0
 22 23  2  0  0  0
 23 24  1  0  0  0
 24 25  2  0  0  0
 25 26  1  0  0  0
 26 27  2  0  0  0
 33 34  1  0  0  0
 34 35  2  0  0  0
 35 30  1  0  0  0
 11  1  1  0  0  0
 17 12  1  0  0  0
 27 22  1  0  0  0
 11  5  2  0  0  0
 28 29  1  0  0  0
M  END
> <minimizedAffinity>
-6.82344

> <CNNscore>
0.2476511151

> <CNNaffinity>
6.4075021744

> <CNN_VS>
1.5868250132

> <CNNaffinity_variance>
0.0856104717

$$$$
[H]C1=C(C(=O)N([H])c2c([H])c([H])c(C(F)(F)F)c([H])c2[H])C([H])([H])C([H])([H])N(c2nc([H])c([H])c([H])c2C(F)(F)F)C1([H])[H]


 30 32  0  0  0  0  0  0  0  0999 V2000
  154.4252  137.8458  185.8697 C   0  0  0  0  0  0  0  0  0  0  0  0
  155.1624  137.0412  186.6263 C   0  0  0  0  0  0  0  0  0  0  0  0
  154.4300  136.0719  187.5360 C   0  0  0  0  0  0  0  0  0  0  0  0
  153.4774  136.7996  188.2457 N   0  0  0  0  0  0  0  0  0  0  0  0
  152.5887  137.7252  187.4501 C   0  0  0  0  0  0  0  0  0  0  0  0
  152.9379  137.7037  186.0011 C   0  0  0  0  0  0  0  0  0  0  0  0
  153.0833  136.9006  189.6137 C   0  0  0  0  0  0  0  0  0  0  0  0
  151.9351  136.2527  190.0024 N   0  0  0  0  0  0  0  0  0  0  0  0
  151.5259  136.1796  191.2607 C   0  0  0  0  0  0  0  0  0  0  0  0
  152.2724  136.7800  192.2605 C   0  0  0  0  0  0  0  0  0  0  0  0
  153.4252  137.4438  191.9470 C   0  0  0  0  0  0  0  0  0  0  0  0
  153.8292  137.5019  190.5939 C   0  0  0  0  0  0  0  0  0  0  0  0
  155.0268  138.2832  190.2051 C   0  0  0  0  0  0  0  0  0  0  0  0
  156.1207  137.5628  189.8920 F   0  0  0  0  0  0  0  0  0  0  0  0
  155.3340  139.0849  191.3217 F   0  0  0  0  0  0  0  0  0  0  0  0
  154.6647  139.2256  189.2249 F   0  0  0  0  0  0  0  0  0  0  0  0
  156.4101  139.1631  185.0750 N   0  0  0  0  0  0  0  0  0  0  0  0
  155.0528  138.7961  185.0046 C   0  0  0  0  0  0  0  0  0  0  0  0
  154.3466  139.3580  184.0917 O   0  0  0  0  0  0  0  0  0  0  0  0
  157.0279  138.7360  185.7786 H   0  0  0  0  0  0  0  0  0  0  0  0
  158.0871  141.9812  182.3787 C   0  0  0  0  0  0  0  0  0  0  0  0
  158.4106  140.6414  182.2879 C   0  0  0  0  0  0  0  0  0  0  0  0
  157.8692  139.7492  183.1668 C   0  0  0  0  0  0  0  0  0  0  0  0
  157.0040  140.1023  184.1589 C   0  0  0  0  0  0  0  0  0  0  0  0
  156.6733  141.4552  184.2611 C   0  0  0  0  0  0  0  0  0  0  0  0
  157.2155  142.3987  183.3734 C   0  0  0  0  0  0  0  0  0  0  0  0
  159.3141  143.9336  182.2448 F   0  0  0  0  0  0  0  0  0  0  0  0
  158.6816  142.9651  181.4712 C   0  0  0  0  0  0  0  0  0  0  0  0
  157.7464  143.5896  180.7250 F   0  0  0  0  0  0  0  0  0  0  0  0
  159.6436  142.3610  180.6486 F   0  0  0  0  0  0  0  0  0  0  0  0
 27 28  1  0  0  0
 28 29  1  0  0  0
 28 30  1  0  0  0
 28 21  1  0  0  0
 21 22  2  0  0  0
 22 23  1  0  0  0
 23 24  2  0  0  0
 24 17  1  0  0  0
 17 18  1  0  0  0
 18 19  2  0  0  0
 18  1  1  0  0  0
  1  2  2  0  0  0
  2  3  1  0  0  0
  3  4  1  0  0  0
  4  5  1  0  0  0
  5  6  1  0  0  0
  4  7  1  0  0  0
  7  8  2  0  0  0
  8  9  1  0  0  0
  9 10  2  0  0  0
 10 11  1  0  0  0
 11 12  2  0  0  0
 12 13  1  0  0  0
 13 14  1  0  0  0
 13 15  1  0  0  0
 13 16  1  0  0  0
 24 25  1  0  0  0
 25 26  2  0  0  0
 26 21  1  0  0  0
  6  1  1  0  0  0
 12  7  1  0  0  0
 17 20  1  0  0  0
M  END
> <minimizedAffinity>
-8.19098

> <CNNscore>
0.5029234886

> <CNNaffinity>
5.9486532211

> <CNN_VS>
2.9917173386

> <CNNaffinity_variance>
0.1243953481

$$$$
[H]C1=C(C(=O)N([H])c2c([H])c([H])c(C(F)(F)F)c([H])c2[H])C([H])([H])C([H])([H])N(c2nc([H])c([H])c([H])c2C(F)(F)F)C1([H])[H]


 30 32  0  0  0  0  0  0  0  0999 V2000
  154.5544  137.7993  185.9623 C   0  0  0  0  0  0  0  0  0  0  0  0
  155.3333  137.1005  186.7797 C   0  0  0  0  0  0  0  0  0  0  0  0
  154.6626  136.0836  187.6851 C   0  0  0  0  0  0  0  0  0  0  0  0
  153.6030  136.7239  188.3238 N   0  0  0  0  0  0  0  0  0  0  0  0
  152.6628  137.5256  187.4562 C   0  0  0  0  0  0  0  0  0  0  0  0
  153.0859  137.5014  186.0272 C   0  0  0  0  0  0  0  0  0  0  0  0
  153.1310  136.8200  189.6673 C   0  0  0  0  0  0  0  0  0  0  0  0
  152.0223  136.0854  190.0142 N   0  0  0  0  0  0  0  0  0  0  0  0
  151.5555  136.0045  191.2518 C   0  0  0  0  0  0  0  0  0  0  0  0
  152.1960  136.6871  192.2722 C   0  0  0  0  0  0  0  0  0  0  0  0
  153.3039  137.4396  192.0002 C   0  0  0  0  0  0  0  0  0  0  0  0
  153.7717  137.5031  190.6681 C   0  0  0  0  0  0  0  0  0  0  0  0
  154.9185  138.3748  190.3201 C   0  0  0  0  0  0  0  0  0  0  0  0
  156.0850  137.7438  190.0863 F   0  0  0  0  0  0  0  0  0  0  0  0
  155.0947  139.2274  191.4273 F   0  0  0  0  0  0  0  0  0  0  0  0
  154.5323  139.2579  189.2949 F   0  0  0  0  0  0  0  0  0  0  0  0
  156.4703  139.1873  185.1200 N   0  0  0  0  0  0  0  0  0  0  0  0
  155.1208  138.7873  185.0971 C   0  0  0  0  0  0  0  0  0  0  0  0
  154.3625  139.3537  184.2299 O   0  0  0  0  0  0  0  0  0  0  0  0
  157.1280  138.7586  185.7855 H   0  0  0  0  0  0  0  0  0  0  0  0
  158.1048  142.0148  182.4074 C   0  0  0  0  0  0  0  0  0  0  0  0
  157.3589  142.4306  183.4931 C   0  0  0  0  0  0  0  0  0  0  0  0
  156.8338  141.5092  184.3516 C   0  0  0  0  0  0  0  0  0  0  0  0
  157.0011  140.1645  184.2050 C   0  0  0  0  0  0  0  0  0  0  0  0
  157.7509  139.7339  183.1084 C   0  0  0  0  0  0  0  0  0  0  0  0
  158.3026  140.6570  182.2053 C   0  0  0  0  0  0  0  0  0  0  0  0
  159.5995  142.3243  180.6740 F   0  0  0  0  0  0  0  0  0  0  0  0
  158.6494  142.9805  181.4506 C   0  0  0  0  0  0  0  0  0  0  0  0
  159.2707  144.0058  182.0704 F   0  0  0  0  0  0  0  0  0  0  0  0
  157.6404  143.4584  180.6017 F   0  0  0  0  0  0  0  0  0  0  0  0
 27 28  1  0  0  0
 28 29  1  0  0  0
 28 30  1  0  0  0
 28 21  1  0  0  0
 21 22  2  0  0  0
 22 23  1  0  0  0
 23 24  2  0  0  0
 24 17  1  0  0  0
 17 18  1  0  0  0
 18 19  2  0  0  0
 18  1  1  0  0  0
  1  2  2  0  0  0
  2  3  1  0  0  0
  3  4  1  0  0  0
  4  5  1  0  0  0
  5  6  1  0  0  0
  4  7  1  0  0  0
  7  8  2  0  0  0
  8  9  1  0  0  0
  9 10  2  0  0  0
 10 11  1  0  0  0
 11 12  2  0  0  0
 12 13  1  0  0  0
 13 14  1  0  0  0
 13 15  1  0  0  0
 13 16  1  0  0  0
 24 25  1  0  0  0
 25 26  2  0  0  0
 26 21  1  0  0  0
  6  1  1  0  0  0
 12  7  1  0  0  0
 17 20  1  0  0  0
M  END
> <minimizedAffinity>
-8.21967

> <CNNscore>
0.4905575514

> <CNNaffinity>
5.8983335495

> <CNN_VS>
2.8934719563

> <CNNaffinity_variance>
0.1193897948

$$$$
[H]C1=C(C(=O)N([H])c2c([H])c([H])c(C(F)(F)F)c([H])c2[H])C([H])([H])C([H])([H])N(c2nc([H])c([H])c([H])c2C(F)(F)F)C1([H])[H]


 30 32  0  0  0  0  0  0  0  0999 V2000
  155.9971  140.4538  182.9977 C   0  0  0  0  0  0  0  0  0  0  0  0
  156.9233  140.6453  182.0656 C   0  0  0  0  0  0  0  0  0  0  0  0
  158.3706  140.7004  182.5191 C   0  0  0  0  0  0  0  0  0  0  0  0
  158.4442  141.5980  183.5819 N   0  0  0  0  0  0  0  0  0  0  0  0
  157.4327  141.4326  184.6906 C   0  0  0  0  0  0  0  0  0  0  0  0
  156.4914  140.3123  184.4066 C   0  0  0  0  0  0  0  0  0  0  0  0
  159.2845  142.6975  183.9310 C   0  0  0  0  0  0  0  0  0  0  0  0
  160.1577  142.5329  184.9796 N   0  0  0  0  0  0  0  0  0  0  0  0
  161.0625  143.4364  185.3277 C   0  0  0  0  0  0  0  0  0  0  0  0
  161.1565  144.6214  184.6177 C   0  0  0  0  0  0  0  0  0  0  0  0
  160.3185  144.8543  183.5635 C   0  0  0  0  0  0  0  0  0  0  0  0
  159.3654  143.8681  183.2225 C   0  0  0  0  0  0  0  0  0  0  0  0
  158.3847  144.1199  182.1405 C   0  0  0  0  0  0  0  0  0  0  0  0
  158.5700  143.4182  181.0061 F   0  0  0  0  0  0  0  0  0  0  0  0
  158.5036  145.4895  181.8339 F   0  0  0  0  0  0  0  0  0  0  0  0
  157.0829  144.0218  182.6657 F   0  0  0  0  0  0  0  0  0  0  0  0
  153.9698  139.2932  182.0760 N   0  0  0  0  0  0  0  0  0  0  0  0
  154.6131  140.4112  182.6398 C   0  0  0  0  0  0  0  0  0  0  0  0
  153.8916  141.4528  182.8458 O   0  0  0  0  0  0  0  0  0  0  0  0
  154.4949  138.4256  181.8999 H   0  0  0  0  0  0  0  0  0  0  0  0
  149.8205  139.1958  181.1828 C   0  0  0  0  0  0  0  0  0  0  0  0
  150.6908  139.9343  180.4049 C   0  0  0  0  0  0  0  0  0  0  0  0
  152.0205  139.9617  180.7096 C   0  0  0  0  0  0  0  0  0  0  0  0
  152.5643  139.2884  181.7625 C   0  0  0  0  0  0  0  0  0  0  0  0
  151.6920  138.5415  182.5571 C   0  0  0  0  0  0  0  0  0  0  0  0
  150.3177  138.4949  182.2714 C   0  0  0  0  0  0  0  0  0  0  0  0
  147.8219  138.1169  181.6033 F   0  0  0  0  0  0  0  0  0  0  0  0
  148.3837  139.1780  180.8997 C   0  0  0  0  0  0  0  0  0  0  0  0
  148.1324  138.9736  179.5896 F   0  0  0  0  0  0  0  0  0  0  0  0
  147.7789  140.3655  181.3365 F   0  0  0  0  0  0  0  0  0  0  0  0
 27 28  1  0  0  0
 28 29  1  0  0  0
 28 30  1  0  0  0
 28 21  1  0  0  0
 21 22  2  0  0  0
 22 23  1  0  0  0
 23 24  2  0  0  0
 24 17  1  0  0  0
 17 18  1  0  0  0
 18 19  2  0  0  0
 18  1  1  0  0  0
  1  2  2  0  0  0
  2  3  1  0  0  0
  3  4  1  0  0  0
  4  5  1  0  0  0
  5  6  1  0  0  0
  4  7  1  0  0  0
  7  8  2  0  0  0
  8  9  1  0  0  0
  9 10  2  0  0  0
 10 11  1  0  0  0
 11 12  2  0  0  0
 12 13  1  0  0  0
 13 14  1  0  0  0
 13 15  1  0  0  0
 13 16  1  0  0  0
 24 25  1  0  0  0
 25 26  2  0  0  0
 26 21  1  0  0  0
  6  1  1  0  0  0
 12  7  1  0  0  0
 17 20  1  0  0  0
M  END
> <minimizedAffinity>
-8.59115

> <CNNscore>
0.3836183846

> <CNNaffinity>
6.3640489578

> <CNN_VS>
2.4413661957

> <CNNaffinity_variance>
0.0959029645

$$$$
[H]C1=C(C(=O)N([H])c2c([H])c([H])c(C(F)(F)F)c([H])c2[H])C([H])([H])C([H])([H])N(c2nc([H])c([H])c([H])c2C(F)(F)F)C1([H])[H]


 30 32  0  0  0  0  0  0  0  0999 V2000
  153.8073  136.9989  184.2926 C   0  0  0  0  0  0  0  0  0  0  0  0
  153.2368  136.1418  183.4540 C   0  0  0  0  0  0  0  0  0  0  0  0
  152.7902  136.6757  182.1053 C   0  0  0  0  0  0  0  0  0  0  0  0
  152.0386  137.8257  182.3364 N   0  0  0  0  0  0  0  0  0  0  0  0
  152.6306  138.8562  183.2676 C   0  0  0  0  0  0  0  0  0  0  0  0
  153.9469  138.4110  183.8069 C   0  0  0  0  0  0  0  0  0  0  0  0
  150.7803  138.3282  181.8879 C   0  0  0  0  0  0  0  0  0  0  0  0
  149.6481  137.9059  182.5427 N   0  0  0  0  0  0  0  0  0  0  0  0
  148.4371  138.3830  182.2934 C   0  0  0  0  0  0  0  0  0  0  0  0
  148.2706  139.3587  181.3252 C   0  0  0  0  0  0  0  0  0  0  0  0
  149.3523  139.8249  180.6322 C   0  0  0  0  0  0  0  0  0  0  0  0
  150.6279  139.2914  180.9246 C   0  0  0  0  0  0  0  0  0  0  0  0
  151.8111  139.7103  180.1369 C   0  0  0  0  0  0  0  0  0  0  0  0
  152.6364  140.5873  180.7397 F   0  0  0  0  0  0  0  0  0  0  0  0
  151.2959  140.3191  178.9759 F   0  0  0  0  0  0  0  0  0  0  0  0
  152.4609  138.5668  179.6368 F   0  0  0  0  0  0  0  0  0  0  0  0
  155.1182  137.2800  186.4161 N   0  0  0  0  0  0  0  0  0  0  0  0
  154.2334  136.5648  185.5870 C   0  0  0  0  0  0  0  0  0  0  0  0
  153.7832  135.4522  186.0423 O   0  0  0  0  0  0  0  0  0  0  0  0
  155.5013  138.1845  186.1091 H   0  0  0  0  0  0  0  0  0  0  0  0
  156.2014  135.9927  190.3141 C   0  0  0  0  0  0  0  0  0  0  0  0
  156.8390  135.4804  189.2010 C   0  0  0  0  0  0  0  0  0  0  0  0
  156.4742  135.8985  187.9545 C   0  0  0  0  0  0  0  0  0  0  0  0
  155.4923  136.8161  187.7271 C   0  0  0  0  0  0  0  0  0  0  0  0
  154.8393  137.3375  188.8459 C   0  0  0  0  0  0  0  0  0  0  0  0
  155.1898  136.9258  190.1420 C   0  0  0  0  0  0  0  0  0  0  0  0
  157.6136  134.6461  191.5500 F   0  0  0  0  0  0  0  0  0  0  0  0
  156.5485  135.5347  191.6612 C   0  0  0  0  0  0  0  0  0  0  0  0
  155.5277  134.8727  192.2451 F   0  0  0  0  0  0  0  0  0  0  0  0
  156.9559  136.6129  192.4603 F   0  0  0  0  0  0  0  0  0  0  0  0
 27 28  1  0  0  0
 28 29  1  0  0  0
 28 30  1  0  0  0
 28 21  1  0  0  0
 21 22  2  0  0  0
 22 23  1  0  0  0
 23 24  2  0  0  0
 24 17  1  0  0  0
 17 18  1  0  0  0
 18 19  2  0  0  0
 18  1  1  0  0  0
  1  2  2  0  0  0
  2  3  1  0  0  0
  3  4  1  0  0  0
  4  5  1  0  0  0
  5  6  1  0  0  0
  4  7  1  0  0  0
  7  8  2  0  0  0
  8  9  1  0  0  0
  9 10  2  0  0  0
 10 11  1  0  0  0
 11 12  2  0  0  0
 12 13  1  0  0  0
 13 14  1  0  0  0
 13 15  1  0  0  0
 13 16  1  0  0  0
 24 25  1  0  0  0
 25 26  2  0  0  0
 26 21  1  0  0  0
  6  1  1  0  0  0
 12  7  1  0  0  0
 17 20  1  0  0  0
M  END
> <minimizedAffinity>
-6.68129

> <CNNscore>
0.3788573146

> <CNNaffinity>
5.2696428299

> <CNN_VS>
1.9964426756

> <CNNaffinity_variance>
0.1844331473

$$$$
[H]C1=C(C(=O)N([H])c2c([H])c([H])c(C(F)(F)F)c([H])c2[H])C([H])([H])C([H])([H])N(c2nc([H])c([H])c([H])c2C(F)(F)F)C1([H])[H]


 30 32  0  0  0  0  0  0  0  0999 V2000
  153.0857  137.5154  183.5775 C   0  0  0  0  0  0  0  0  0  0  0  0
  152.8536  136.4112  182.8775 C   0  0  0  0  0  0  0  0  0  0  0  0
  152.3894  136.5781  181.4421 C   0  0  0  0  0  0  0  0  0  0  0  0
  151.3267  137.4789  181.4461 N   0  0  0  0  0  0  0  0  0  0  0  0
  151.5226  138.7672  182.2084 C   0  0  0  0  0  0  0  0  0  0  0  0
  152.8608  138.8149  182.8632 C   0  0  0  0  0  0  0  0  0  0  0  0
  150.0201  137.5161  180.8731 C   0  0  0  0  0  0  0  0  0  0  0  0
  149.0871  136.6209  181.3390 N   0  0  0  0  0  0  0  0  0  0  0  0
  147.8151  136.6290  180.9673 C   0  0  0  0  0  0  0  0  0  0  0  0
  147.3719  137.5768  180.0603 C   0  0  0  0  0  0  0  0  0  0  0  0
  148.2451  138.4978  179.5533 C   0  0  0  0  0  0  0  0  0  0  0  0
  149.5943  138.4572  179.9720 C   0  0  0  0  0  0  0  0  0  0  0  0
  150.5878  139.3846  179.3813 C   0  0  0  0  0  0  0  0  0  0  0  0
  151.8665  138.9627  179.3984 F   0  0  0  0  0  0  0  0  0  0  0  0
  150.5045  140.5646  180.1460 F   0  0  0  0  0  0  0  0  0  0  0  0
  150.1391  139.7940  178.1120 F   0  0  0  0  0  0  0  0  0  0  0  0
  154.0991  138.4831  185.6616 N   0  0  0  0  0  0  0  0  0  0  0  0
  153.5067  137.4284  184.9416 C   0  0  0  0  0  0  0  0  0  0  0  0
  153.3344  136.3222  185.5696 O   0  0  0  0  0  0  0  0  0  0  0  0
  154.2505  139.3973  185.2137 H   0  0  0  0  0  0  0  0  0  0  0  0
  155.2689  138.0440  189.7191 C   0  0  0  0  0  0  0  0  0  0  0  0
  153.9826  138.4293  189.3951 C   0  0  0  0  0  0  0  0  0  0  0  0
  153.6242  138.5735  188.0864 C   0  0  0  0  0  0  0  0  0  0  0  0
  154.4767  138.3562  187.0455 C   0  0  0  0  0  0  0  0  0  0  0  0
  155.7805  137.9696  187.3628 C   0  0  0  0  0  0  0  0  0  0  0  0
  156.1812  137.8148  188.6999 C   0  0  0  0  0  0  0  0  0  0  0  0
  156.9719  137.3750  191.1288 F   0  0  0  0  0  0  0  0  0  0  0  0
  155.6901  137.9166  191.1160 C   0  0  0  0  0  0  0  0  0  0  0  0
  154.8893  137.0790  191.8076 F   0  0  0  0  0  0  0  0  0  0  0  0
  155.7371  139.1743  191.7348 F   0  0  0  0  0  0  0  0  0  0  0  0
 27 28  1  0  0  0
 28 29  1  0  0  0
 28 30  1  0  0  0
 28 21  1  0  0  0
 21 22  2  0  0  0
 22 23  1  0  0  0
 23 24  2  0  0  0
 24 17  1  0  0  0
 17 18  1  0  0  0
 18 19  2  0  0  0
 18  1  1  0  0  0
  1  2  2  0  0  0
  2  3  1  0  0  0
  3  4  1  0  0  0
  4  5  1  0  0  0
  5  6  1  0  0  0
  4  7  1  0  0  0
  7  8  2  0  0  0
  8  9  1  0  0  0
  9 10  2  0  0  0
 10 11  1  0  0  0
 11 12  2  0  0  0
 12 13  1  0  0  0
 13 14  1  0  0  0
 13 15  1  0  0  0
 13 16  1  0  0  0
 24 25  1  0  0  0
 25 26  2  0  0  0
 26 21  1  0  0  0
  6  1  1  0  0  0
 12  7  1  0  0  0
 17 20  1  0  0  0
M  END
> <minimizedAffinity>
-7.56312

> <CNNscore>
0.3731020689

> <CNNaffinity>
5.3318543434

> <CNN_VS>
1.9893258810

> <CNNaffinity_variance>
0.0657654703

$$$$
[H]C1=C(C(=O)N([H])c2c([H])c([H])c(C(F)(F)F)c([H])c2[H])C([H])([H])C([H])([H])N(c2nc([H])c([H])c([H])c2C(F)(F)F)C1([H])[H]


 30 32  0  0  0  0  0  0  0  0999 V2000
  155.8311  140.6877  182.8788 C   0  0  0  0  0  0  0  0  0  0  0  0
  156.7943  140.6512  181.9655 C   0  0  0  0  0  0  0  0  0  0  0  0
  158.2253  140.7848  182.4531 C   0  0  0  0  0  0  0  0  0  0  0  0
  158.2821  141.8966  183.2906 N   0  0  0  0  0  0  0  0  0  0  0  0
  157.2279  141.9992  184.3666 C   0  0  0  0  0  0  0  0  0  0  0  0
  156.2710  140.8581  184.3025 C   0  0  0  0  0  0  0  0  0  0  0  0
  159.1352  143.0335  183.4187 C   0  0  0  0  0  0  0  0  0  0  0  0
  158.8332  144.1517  182.6787 N   0  0  0  0  0  0  0  0  0  0  0  0
  159.4810  145.3021  182.7927 C   0  0  0  0  0  0  0  0  0  0  0  0
  160.5244  145.4149  183.6960 C   0  0  0  0  0  0  0  0  0  0  0  0
  160.8815  144.3425  184.4643 C   0  0  0  0  0  0  0  0  0  0  0  0
  160.1686  143.1315  184.3139 C   0  0  0  0  0  0  0  0  0  0  0  0
  160.5804  141.9240  185.0677 C   0  0  0  0  0  0  0  0  0  0  0  0
  159.6974  141.4716  185.9783 F   0  0  0  0  0  0  0  0  0  0  0  0
  161.7620  142.2852  185.7438 F   0  0  0  0  0  0  0  0  0  0  0  0
  161.0186  140.9412  184.1609 F   0  0  0  0  0  0  0  0  0  0  0  0
  153.8432  139.4012  182.0422 N   0  0  0  0  0  0  0  0  0  0  0  0
  154.4601  140.5868  182.4842 C   0  0  0  0  0  0  0  0  0  0  0  0
  153.7255  141.6382  182.5364 O   0  0  0  0  0  0  0  0  0  0  0  0
  154.3794  138.5241  181.9918 H   0  0  0  0  0  0  0  0  0  0  0  0
  149.7292  139.1471  181.0248 C   0  0  0  0  0  0  0  0  0  0  0  0
  150.5975  139.9040  180.2624 C   0  0  0  0  0  0  0  0  0  0  0  0
  151.9154  139.9818  180.6069 C   0  0  0  0  0  0  0  0  0  0  0  0
  152.4490  139.3431  181.6862 C   0  0  0  0  0  0  0  0  0  0  0  0
  151.5786  138.5780  182.4653 C   0  0  0  0  0  0  0  0  0  0  0  0
  150.2162  138.4797  182.1388 C   0  0  0  0  0  0  0  0  0  0  0  0
  147.7680  137.9736  181.3586 F   0  0  0  0  0  0  0  0  0  0  0  0
  148.3033  139.0754  180.6984 C   0  0  0  0  0  0  0  0  0  0  0  0
  148.0991  138.8944  179.3767 F   0  0  0  0  0  0  0  0  0  0  0  0
  147.6353  140.2245  181.1459 F   0  0  0  0  0  0  0  0  0  0  0  0
 27 28  1  0  0  0
 28 29  1  0  0  0
 28 30  1  0  0  0
 28 21  1  0  0  0
 21 22  2  0  0  0
 22 23  1  0  0  0
 23 24  2  0  0  0
 24 17  1  0  0  0
 17 18  1  0  0  0
 18 19  2  0  0  0
 18  1  1  0  0  0
  1  2  2  0  0  0
  2  3  1  0  0  0
  3  4  1  0  0  0
  4  5  1  0  0  0
  5  6  1  0  0  0
  4  7  1  0  0  0
  7  8  2  0  0  0
  8  9  1  0  0  0
  9 10  2  0  0  0
 10 11  1  0  0  0
 11 12  2  0  0  0
 12 13  1  0  0  0
 13 14  1  0  0  0
 13 15  1  0  0  0
 13 16  1  0  0  0
 24 25  1  0  0  0
 25 26  2  0  0  0
 26 21  1  0  0  0
  6  1  1  0  0  0
 12  7  1  0  0  0
 17 20  1  0  0  0
M  END
> <minimizedAffinity>
-9.06790

> <CNNscore>
0.2671637535

> <CNNaffinity>
6.2147965431

> <CNN_VS>
1.6603683233

> <CNNaffinity_variance>
0.0955206454

$$$$
[H]C1=C(C(=O)N([H])c2c([H])c([H])c(C(F)(F)F)c([H])c2[H])C([H])([H])C([H])([H])N(c2nc([H])c([H])c([H])c2C(F)(F)F)C1([H])[H]


 30 32  0  0  0  0  0  0  0  0999 V2000
  155.4459  137.8820  186.5287 C   0  0  0  0  0  0  0  0  0  0  0  0
  155.1362  136.5965  186.4077 C   0  0  0  0  0  0  0  0  0  0  0  0
  154.7972  135.8366  187.6771 C   0  0  0  0  0  0  0  0  0  0  0  0
  155.8083  136.0899  188.6013 N   0  0  0  0  0  0  0  0  0  0  0  0
  156.2045  137.5323  188.8062 C   0  0  0  0  0  0  0  0  0  0  0  0
  155.4254  138.4427  187.9196 C   0  0  0  0  0  0  0  0  0  0  0  0
  156.6143  135.2977  189.4729 C   0  0  0  0  0  0  0  0  0  0  0  0
  156.3342  135.3330  190.8181 N   0  0  0  0  0  0  0  0  0  0  0  0
  156.9361  134.5615  191.7118 C   0  0  0  0  0  0  0  0  0  0  0  0
  157.9053  133.6626  191.2997 C   0  0  0  0  0  0  0  0  0  0  0  0
  158.2368  133.5744  189.9767 C   0  0  0  0  0  0  0  0  0  0  0  0
  157.5745  134.4143  189.0530 C   0  0  0  0  0  0  0  0  0  0  0  0
  157.9658  134.4075  187.6237 C   0  0  0  0  0  0  0  0  0  0  0  0
  157.0759  133.8590  186.7747 F   0  0  0  0  0  0  0  0  0  0  0  0
  159.1543  133.6542  187.5609 F   0  0  0  0  0  0  0  0  0  0  0  0
  158.3857  135.6987  187.2541 F   0  0  0  0  0  0  0  0  0  0  0  0
  157.0146  139.3326  185.2090 N   0  0  0  0  0  0  0  0  0  0  0  0
  155.7941  138.6508  185.3741 C   0  0  0  0  0  0  0  0  0  0  0  0
  154.9504  138.7302  184.4099 O   0  0  0  0  0  0  0  0  0  0  0  0
  157.7346  139.2943  185.9435 H   0  0  0  0  0  0  0  0  0  0  0  0
  157.8727  141.5426  181.6871 C   0  0  0  0  0  0  0  0  0  0  0  0
  158.3435  140.2532  181.8412 C   0  0  0  0  0  0  0  0  0  0  0  0
  158.0656  139.5588  182.9824 C   0  0  0  0  0  0  0  0  0  0  0  0
  157.3321  140.0678  184.0121 C   0  0  0  0  0  0  0  0  0  0  0  0
  156.8545  141.3721  183.8673 C   0  0  0  0  0  0  0  0  0  0  0  0
  157.1252  142.1141  182.7062 C   0  0  0  0  0  0  0  0  0  0  0  0
  159.5672  142.4885  180.4344 F   0  0  0  0  0  0  0  0  0  0  0  0
  158.1865  142.3232  180.4883 C   0  0  0  0  0  0  0  0  0  0  0  0
  157.6325  143.5530  180.5305 F   0  0  0  0  0  0  0  0  0  0  0  0
  157.7792  141.6402  179.3330 F   0  0  0  0  0  0  0  0  0  0  0  0
 27 28  1  0  0  0
 28 29  1  0  0  0
 28 30  1  0  0  0
 28 21  1  0  0  0
 21 22  2  0  0  0
 22 23  1  0  0  0
 23 24  2  0  0  0
 24 17  1  0  0  0
 17 18  1  0  0  0
 18 19  2  0  0  0
 18  1  1  0  0  0
  1  2  2  0  0  0
  2  3  1  0  0  0
  3  4  1  0  0  0
  4  5  1  0  0  0
  5  6  1  0  0  0
  4  7  1  0  0  0
  7  8  2  0  0  0
  8  9  1  0  0  0
  9 10  2  0  0  0
 10 11  1  0  0  0
 11 12  2  0  0  0
 12 13  1  0  0  0
 13 14  1  0  0  0
 13 15  1  0  0  0
 13 16  1  0  0  0
 24 25  1  0  0  0
 25 26  2  0  0  0
 26 21  1  0  0  0
  6  1  1  0  0  0
 12  7  1  0  0  0
 17 20  1  0  0  0
M  END
> <minimizedAffinity>
-7.41441

> <CNNscore>
0.2535971701

> <CNNaffinity>
5.6450228691

> <CNN_VS>
1.4315618277

> <CNNaffinity_variance>
0.0574331470

$$$$
[H]C1=C(C(=O)N([H])c2c([H])c([H])c(C(F)(F)F)c([H])c2[H])C([H])([H])C([H])([H])N(c2nc([H])c([H])c([H])c2C(F)(F)F)C1([H])[H]


 30 32  0  0  0  0  0  0  0  0999 V2000
  153.1552  137.5401  185.4814 C   0  0  0  0  0  0  0  0  0  0  0  0
  152.6559  136.5833  184.7078 C   0  0  0  0  0  0  0  0  0  0  0  0
  152.9787  136.6428  183.2261 C   0  0  0  0  0  0  0  0  0  0  0  0
  152.6932  137.9330  182.7850 N   0  0  0  0  0  0  0  0  0  0  0  0
  153.2424  139.0753  183.6052 C   0  0  0  0  0  0  0  0  0  0  0  0
  153.9899  138.5809  184.7963 C   0  0  0  0  0  0  0  0  0  0  0  0
  151.9831  138.5001  181.6845 C   0  0  0  0  0  0  0  0  0  0  0  0
  152.6936  139.2491  180.7771 N   0  0  0  0  0  0  0  0  0  0  0  0
  152.1719  139.7337  179.6595 C   0  0  0  0  0  0  0  0  0  0  0  0
  150.8413  139.4914  179.3626 C   0  0  0  0  0  0  0  0  0  0  0  0
  150.0731  138.7556  180.2207 C   0  0  0  0  0  0  0  0  0  0  0  0
  150.6639  138.2564  181.4035 C   0  0  0  0  0  0  0  0  0  0  0  0
  149.8425  137.5268  182.3981 C   0  0  0  0  0  0  0  0  0  0  0  0
  150.0402  137.8683  183.6856 F   0  0  0  0  0  0  0  0  0  0  0  0
  150.1839  136.1686  182.2467 F   0  0  0  0  0  0  0  0  0  0  0  0
  148.4937  137.5637  181.9987 F   0  0  0  0  0  0  0  0  0  0  0  0
  153.0062  136.4397  187.7339 N   0  0  0  0  0  0  0  0  0  0  0  0
  152.8729  137.5535  186.8834 C   0  0  0  0  0  0  0  0  0  0  0  0
  152.4757  138.6495  187.4210 O   0  0  0  0  0  0  0  0  0  0  0  0
  153.3329  135.5376  187.3612 H   0  0  0  0  0  0  0  0  0  0  0  0
  152.3083  136.6351  191.9171 C   0  0  0  0  0  0  0  0  0  0  0  0
  151.3228  136.1870  191.0592 C   0  0  0  0  0  0  0  0  0  0  0  0
  151.5599  136.1374  189.7164 C   0  0  0  0  0  0  0  0  0  0  0  0
  152.7404  136.5118  189.1474 C   0  0  0  0  0  0  0  0  0  0  0  0
  153.7420  136.9696  190.0061 C   0  0  0  0  0  0  0  0  0  0  0  0
  153.5284  137.0350  191.3926 C   0  0  0  0  0  0  0  0  0  0  0  0
  150.7516  136.3515  193.5997 F   0  0  0  0  0  0  0  0  0  0  0  0
  152.0681  136.7325  193.3585 C   0  0  0  0  0  0  0  0  0  0  0  0
  152.2127  137.9970  193.8074 F   0  0  0  0  0  0  0  0  0  0  0  0
  152.9143  135.8621  194.0607 F   0  0  0  0  0  0  0  0  0  0  0  0
 27 28  1  0  0  0
 28 29  1  0  0  0
 28 30  1  0  0  0
 28 21  1  0  0  0
 21 22  2  0  0  0
 22 23  1  0  0  0
 23 24  2  0  0  0
 24 17  1  0  0  0
 17 18  1  0  0  0
 18 19  2  0  0  0
 18  1  1  0  0  0
  1  2  2  0  0  0
  2  3  1  0  0  0
  3  4  1  0  0  0
  4  5  1  0  0  0
  5  6  1  0  0  0
  4  7  1  0  0  0
  7  8  2  0  0  0
  8  9  1  0  0  0
  9 10  2  0  0  0
 10 11  1  0  0  0
 11 12  2  0  0  0
 12 13  1  0  0  0
 13 14  1  0  0  0
 13 15  1  0  0  0
 13 16  1  0  0  0
 24 25  1  0  0  0
 25 26  2  0  0  0
 26 21  1  0  0  0
  6  1  1  0  0  0
 12  7  1  0  0  0
 17 20  1  0  0  0
M  END
> <minimizedAffinity>
-6.76187

> <CNNscore>
0.2498957962

> <CNNaffinity>
5.2375850677

> <CNN_VS>
1.3088505268

> <CNNaffinity_variance>
0.0527861044

$$$$
[H]C1=C(C(=O)N([H])c2c([H])c([H])c(C(F)(F)F)c([H])c2[H])C([H])([H])C([H])([H])N(c2nc([H])c([H])c([H])c2C(F)(F)F)C1([H])[H]


 30 32  0  0  0  0  0  0  0  0999 V2000
  153.1646  138.3168  183.1837 C   0  0  0  0  0  0  0  0  0  0  0  0
  152.8508  137.1091  182.7297 C   0  0  0  0  0  0  0  0  0  0  0  0
  152.3211  137.0116  181.3107 C   0  0  0  0  0  0  0  0  0  0  0  0
  151.2988  137.9486  181.1783 N   0  0  0  0  0  0  0  0  0  0  0  0
  151.5874  139.3508  181.6580 C   0  0  0  0  0  0  0  0  0  0  0  0
  152.9582  139.4585  182.2333 C   0  0  0  0  0  0  0  0  0  0  0  0
  149.9673  137.9385  180.6646 C   0  0  0  0  0  0  0  0  0  0  0  0
  149.7567  138.4627  179.4116 N   0  0  0  0  0  0  0  0  0  0  0  0
  148.5914  138.4112  178.7827 C   0  0  0  0  0  0  0  0  0  0  0  0
  147.5077  137.8052  179.3957 C   0  0  0  0  0  0  0  0  0  0  0  0
  147.6434  137.2638  180.6432 C   0  0  0  0  0  0  0  0  0  0  0  0
  148.9012  137.3389  181.2832 C   0  0  0  0  0  0  0  0  0  0  0  0
  149.0652  136.8389  182.6685 C   0  0  0  0  0  0  0  0  0  0  0  0
  149.7200  137.6575  183.5139 F   0  0  0  0  0  0  0  0  0  0  0  0
  149.8032  135.6446  182.5542 F   0  0  0  0  0  0  0  0  0  0  0  0
  147.8186  136.3994  183.1511 F   0  0  0  0  0  0  0  0  0  0  0  0
  153.5517  137.5044  185.5283 N   0  0  0  0  0  0  0  0  0  0  0  0
  153.6508  138.4805  184.5187 C   0  0  0  0  0  0  0  0  0  0  0  0
  154.2252  139.5844  184.8337 O   0  0  0  0  0  0  0  0  0  0  0  0
  153.1123  136.5950  185.3303 H   0  0  0  0  0  0  0  0  0  0  0  0
  155.0861  138.1727  189.4300 C   0  0  0  0  0  0  0  0  0  0  0  0
  155.8157  137.4588  188.4993 C   0  0  0  0  0  0  0  0  0  0  0  0
  155.3054  137.2460  187.2519 C   0  0  0  0  0  0  0  0  0  0  0  0
  154.0864  137.7046  186.8503 C   0  0  0  0  0  0  0  0  0  0  0  0
  153.3396  138.4245  187.7852 C   0  0  0  0  0  0  0  0  0  0  0  0
  153.8356  138.6585  189.0780 C   0  0  0  0  0  0  0  0  0  0  0  0
  155.1450  137.3344  191.5815 F   0  0  0  0  0  0  0  0  0  0  0  0
  155.5944  138.3848  190.7870 C   0  0  0  0  0  0  0  0  0  0  0  0
  155.1253  139.5297  191.3257 F   0  0  0  0  0  0  0  0  0  0  0  0
  156.9968  138.3757  190.7967 F   0  0  0  0  0  0  0  0  0  0  0  0
 27 28  1  0  0  0
 28 29  1  0  0  0
 28 30  1  0  0  0
 28 21  1  0  0  0
 21 22  2  0  0  0
 22 23  1  0  0  0
 23 24  2  0  0  0
 24 17  1  0  0  0
 17 18  1  0  0  0
 18 19  2  0  0  0
 18  1  1  0  0  0
  1  2  2  0  0  0
  2  3  1  0  0  0
  3  4  1  0  0  0
  4  5  1  0  0  0
  5  6  1  0  0  0
  4  7  1  0  0  0
  7  8  2  0  0  0
  8  9  1  0  0  0
  9 10  2  0  0  0
 10 11  1  0  0  0
 11 12  2  0  0  0
 12 13  1  0  0  0
 13 14  1  0  0  0
 13 15  1  0  0  0
 13 16  1  0  0  0
 24 25  1  0  0  0
 25 26  2  0  0  0
 26 21  1  0  0  0
  6  1  1  0  0  0
 12  7  1  0  0  0
 17 20  1  0  0  0
M  END
> <minimizedAffinity>
-7.11200

> <CNNscore>
0.2431205511

> <CNNaffinity>
5.2936782837

> <CNN_VS>
1.2870019674

> <CNNaffinity_variance>
0.0240814891

$$$$
[H]c1nc(N2C([H])([H])C([H])([H])c3nc(N4C([H])([H])C([H])([H])C([H])([H])C4([H])[H])nc(N([H])c4c([H])c([H])c(C(F)(F)F)c(Cl)c4[H])c3C([H])([H])C2([H])[H])c(C(F)(F)F)c([H])c1[H]


 39 43  0  0  0  0  0  0  0  0999 V2000
  153.7895  138.3806  184.1759 C   0  0  0  0  0  0  0  0  0  0  0  0
  152.6683  138.2050  183.4103 N   0  0  0  0  0  0  0  0  0  0  0  0
  152.2812  139.0366  182.4395 C   0  0  0  0  0  0  0  0  0  0  0  0
  153.0396  140.1250  182.1890 N   0  0  0  0  0  0  0  0  0  0  0  0
  154.1517  140.3944  182.8738 C   0  0  0  0  0  0  0  0  0  0  0  0
  154.8825  141.6221  182.4640 C   0  0  0  0  0  0  0  0  0  0  0  0
  156.3035  141.2546  182.0402 C   0  0  0  0  0  0  0  0  0  0  0  0
  157.1293  140.8047  183.1152 N   0  0  0  0  0  0  0  0  0  0  0  0
  156.9737  139.5787  183.8988 C   0  0  0  0  0  0  0  0  0  0  0  0
  155.6987  139.6743  184.7295 C   0  0  0  0  0  0  0  0  0  0  0  0
  154.5228  139.4856  183.8949 C   0  0  0  0  0  0  0  0  0  0  0  0
  158.2214  141.6432  183.4441 C   0  0  0  0  0  0  0  0  0  0  0  0
  158.5291  141.8683  184.7593 N   0  0  0  0  0  0  0  0  0  0  0  0
  159.5406  142.6683  185.1336 C   0  0  0  0  0  0  0  0  0  0  0  0
  160.3176  143.3017  184.1870 C   0  0  0  0  0  0  0  0  0  0  0  0
  160.0329  143.0943  182.8742 C   0  0  0  0  0  0  0  0  0  0  0  0
  158.9706  142.2537  182.4784 C   0  0  0  0  0  0  0  0  0  0  0  0
  158.7325  142.0587  181.0492 C   0  0  0  0  0  0  0  0  0  0  0  0
  159.8174  142.6262  180.3392 F   0  0  0  0  0  0  0  0  0  0  0  0
  157.6441  142.7581  180.5408 F   0  0  0  0  0  0  0  0  0  0  0  0
  158.7161  140.7308  180.6637 F   0  0  0  0  0  0  0  0  0  0  0  0
  151.0947  138.8039  181.6665 N   0  0  0  0  0  0  0  0  0  0  0  0
  149.7589  138.6296  182.1799 C   0  0  0  0  0  0  0  0  0  0  0  0
  148.8425  138.8552  181.0150 C   0  0  0  0  0  0  0  0  0  0  0  0
  149.7205  139.3038  179.8637 C   0  0  0  0  0  0  0  0  0  0  0  0
  151.0527  138.7071  180.2423 C   0  0  0  0  0  0  0  0  0  0  0  0
  154.1788  137.4374  185.1424 N   0  0  0  0  0  0  0  0  0  0  0  0
  154.3128  136.4550  184.8278 H   0  0  0  0  0  0  0  0  0  0  0  0
  155.0781  137.8313  189.2275 C   0  0  0  0  0  0  0  0  0  0  0  0
  154.0145  138.5354  188.6895 C   0  0  0  0  0  0  0  0  0  0  0  0
  153.6842  138.4484  187.3544 C   0  0  0  0  0  0  0  0  0  0  0  0
  154.4073  137.6564  186.5257 C   0  0  0  0  0  0  0  0  0  0  0  0
  155.4838  136.9481  187.0851 C   0  0  0  0  0  0  0  0  0  0  0  0
  155.8323  137.0176  188.4073 C   0  0  0  0  0  0  0  0  0  0  0  0
  157.1714  136.1340  189.0938 Cl  0  0  0  0  0  0  0  0  0  0  0  0
  156.7849  138.2279  190.7245 F   0  0  0  0  0  0  0  0  0  0  0  0
  155.4322  137.9240  190.6566 C   0  0  0  0  0  0  0  0  0  0  0  0
  154.6739  138.9176  191.2366 F   0  0  0  0  0  0  0  0  0  0  0  0
  155.2027  136.6924  191.2303 F   0  0  0  0  0  0  0  0  0  0  0  0
 36 37  1  0  0  0
 37 38  1  0  0  0
 37 39  1  0  0  0
 37 29  1  0  0  0
 29 30  2  0  0  0
 30 31  1  0  0  0
 31 32  2  0  0  0
 32 27  1  0  0  0
 27  1  1  0  0  0
  1  2  2  0  0  0
  2  3  1  0  0  0
  3  4  2  0  0  0
  4  5  1  0  0  0
  5  6  1  0  0  0
  6  7  1  0  0  0
  7  8  1  0  0  0
  8  9  1  0  0  0
  9 10  1  0  0  0
 10 11  1  0  0  0
  8 12  1  0  0  0
 12 13  2  0  0  0
 13 14  1  0  0  0
 14 15  2  0  0  0
 15 16  1  0  0  0
 16 17  2  0  0  0
 17 18  1  0  0  0
 18 19  1  0  0  0
 18 20  1  0  0  0
 18 21  1  0  0  0
  3 22  1  0  0  0
 22 23  1  0  0  0
 23 24  1  0  0  0
 24 25  1  0  0  0
 25 26  1  0  0  0
 32 33  1  0  0  0
 33 34  2  0  0  0
 34 35  1  0  0  0
 34 29  1  0  0  0
 11  1  1  0  0  0
 17 12  1  0  0  0
 26 22  1  0  0  0
 11  5  2  0  0  0
 27 28  1  0  0  0
M  END
> <minimizedAffinity>
-10.42883

> <CNNscore>
0.6090072393

> <CNNaffinity>
7.5790262222

> <CNN_VS>
4.6156816483

> <CNNaffinity_variance>
0.0816389471

$$$$
[H]c1nc(N2C([H])([H])C([H])([H])c3nc(N4C([H])([H])C([H])([H])C([H])([H])C4([H])[H])nc(N([H])c4c([H])c([H])c(C(F)(F)F)c(Cl)c4[H])c3C([H])([H])C2([H])[H])c(C(F)(F)F)c([H])c1[H]


 39 43  0  0  0  0  0  0  0  0999 V2000
  153.9731  138.3575  184.6230 C   0  0  0  0  0  0  0  0  0  0  0  0
  154.9002  139.3644  184.6496 N   0  0  0  0  0  0  0  0  0  0  0  0
  155.1163  140.2162  183.6438 C   0  0  0  0  0  0  0  0  0  0  0  0
  154.3760  140.0835  182.5227 N   0  0  0  0  0  0  0  0  0  0  0  0
  153.4456  139.1378  182.3881 C   0  0  0  0  0  0  0  0  0  0  0  0
  152.7058  139.1367  181.0989 C   0  0  0  0  0  0  0  0  0  0  0  0
  151.2115  139.3096  181.3659 C   0  0  0  0  0  0  0  0  0  0  0  0
  150.6071  138.1905  182.0157 N   0  0  0  0  0  0  0  0  0  0  0  0
  150.8631  137.7103  183.3741 C   0  0  0  0  0  0  0  0  0  0  0  0
  152.2863  137.1690  183.4536 C   0  0  0  0  0  0  0  0  0  0  0  0
  153.2519  138.2562  183.4797 C   0  0  0  0  0  0  0  0  0  0  0  0
  149.6496  137.4799  181.2527 C   0  0  0  0  0  0  0  0  0  0  0  0
  149.9303  136.2081  180.8300 N   0  0  0  0  0  0  0  0  0  0  0  0
  149.0706  135.4915  180.0880 C   0  0  0  0  0  0  0  0  0  0  0  0
  147.8530  136.0237  179.7204 C   0  0  0  0  0  0  0  0  0  0  0  0
  147.5500  137.2845  180.1278 C   0  0  0  0  0  0  0  0  0  0  0  0
  148.4518  138.0394  180.9079 C   0  0  0  0  0  0  0  0  0  0  0  0
  148.0536  139.3816  181.3290 C   0  0  0  0  0  0  0  0  0  0  0  0
  148.9585  140.3095  180.7605 F   0  0  0  0  0  0  0  0  0  0  0  0
  148.1892  139.6275  182.6904 F   0  0  0  0  0  0  0  0  0  0  0  0
  146.8121  139.7674  180.8579 F   0  0  0  0  0  0  0  0  0  0  0  0
  156.1029  141.2551  183.7253 N   0  0  0  0  0  0  0  0  0  0  0  0
  157.4043  141.1540  184.3374 C   0  0  0  0  0  0  0  0  0  0  0  0
  158.1990  142.3043  183.7964 C   0  0  0  0  0  0  0  0  0  0  0  0
  157.3285  142.9666  182.7471 C   0  0  0  0  0  0  0  0  0  0  0  0
  155.9454  142.5748  183.2028 C   0  0  0  0  0  0  0  0  0  0  0  0
  153.7486  137.5309  185.7373 N   0  0  0  0  0  0  0  0  0  0  0  0
  153.0868  136.7368  185.6203 H   0  0  0  0  0  0  0  0  0  0  0  0
  155.1076  137.8532  189.6997 C   0  0  0  0  0  0  0  0  0  0  0  0
  155.9789  138.1065  188.6542 C   0  0  0  0  0  0  0  0  0  0  0  0
  155.5855  138.0053  187.3374 C   0  0  0  0  0  0  0  0  0  0  0  0
  154.3134  137.6497  187.0335 C   0  0  0  0  0  0  0  0  0  0  0  0
  153.4403  137.3955  188.1043 C   0  0  0  0  0  0  0  0  0  0  0  0
  153.8066  137.4887  189.4203 C   0  0  0  0  0  0  0  0  0  0  0  0
  152.7151  137.1710  190.7442 Cl  0  0  0  0  0  0  0  0  0  0  0  0
  154.9043  139.0832  191.6380 F   0  0  0  0  0  0  0  0  0  0  0  0
  155.5282  137.9614  191.1096 C   0  0  0  0  0  0  0  0  0  0  0  0
  155.1381  136.8203  191.7762 F   0  0  0  0  0  0  0  0  0  0  0  0
  156.8949  138.1354  191.1315 F   0  0  0  0  0  0  0  0  0  0  0  0
 36 37  1  0  0  0
 37 38  1  0  0  0
 37 39  1  0  0  0
 37 29  1  0  0  0
 29 30  2  0  0  0
 30 31  1  0  0  0
 31 32  2  0  0  0
 32 27  1  0  0  0
 27  1  1  0  0  0
  1  2  2  0  0  0
  2  3  1  0  0  0
  3  4  2  0  0  0
  4  5  1  0  0  0
  5  6  1  0  0  0
  6  7  1  0  0  0
  7  8  1  0  0  0
  8  9  1  0  0  0
  9 10  1  0  0  0
 10 11  1  0  0  0
  8 12  1  0  0  0
 12 13  2  0  0  0
 13 14  1  0  0  0
 14 15  2  0  0  0
 15 16  1  0  0  0
 16 17  2  0  0  0
 17 18  1  0  0  0
 18 19  1  0  0  0
 18 20  1  0  0  0
 18 21  1  0  0  0
  3 22  1  0  0  0
 22 23  1  0  0  0
 23 24  1  0  0  0
 24 25  1  0  0  0
 25 26  1  0  0  0
 32 33  1  0  0  0
 33 34  2  0  0  0
 34 35  1  0  0  0
 34 29  1  0  0  0
 11  1  1  0  0  0
 17 12  1  0  0  0
 26 22  1  0  0  0
 11  5  2  0  0  0
 27 28  1  0  0  0
M  END
> <minimizedAffinity>
-8.91891

> <CNNscore>
0.5108963251

> <CNNaffinity>
6.9823331833

> <CNN_VS>
3.5672483444

> <CNNaffinity_variance>
0.0264059510

$$$$
[H]c1nc(N2C([H])([H])C([H])([H])c3nc(N4C([H])([H])C([H])([H])C([H])([H])C4([H])[H])nc(N([H])c4c([H])c([H])c(C(F)(F)F)c(Cl)c4[H])c3C([H])([H])C2([H])[H])c(C(F)(F)F)c([H])c1[H]


 39 43  0  0  0  0  0  0  0  0999 V2000
  153.8442  137.4571  184.4671 C   0  0  0  0  0  0  0  0  0  0  0  0
  153.9404  136.5627  183.4352 N   0  0  0  0  0  0  0  0  0  0  0  0
  154.0547  135.2412  183.5918 C   0  0  0  0  0  0  0  0  0  0  0  0
  154.0774  134.7452  184.8472 N   0  0  0  0  0  0  0  0  0  0  0  0
  153.9912  135.5249  185.9256 C   0  0  0  0  0  0  0  0  0  0  0  0
  154.0134  134.8225  187.2353 C   0  0  0  0  0  0  0  0  0  0  0  0
  152.7343  135.1396  188.0082 C   0  0  0  0  0  0  0  0  0  0  0  0
  152.6418  136.4977  188.4408 N   0  0  0  0  0  0  0  0  0  0  0  0
  152.5094  137.6882  187.6002 C   0  0  0  0  0  0  0  0  0  0  0  0
  153.7930  137.8810  186.8001 C   0  0  0  0  0  0  0  0  0  0  0  0
  153.8727  136.9200  185.7115 C   0  0  0  0  0  0  0  0  0  0  0  0
  152.6750  136.7004  189.8414 C   0  0  0  0  0  0  0  0  0  0  0  0
  151.5439  136.4859  190.5828 N   0  0  0  0  0  0  0  0  0  0  0  0
  151.5083  136.6793  191.9111 C   0  0  0  0  0  0  0  0  0  0  0  0
  152.6318  137.1086  192.5851 C   0  0  0  0  0  0  0  0  0  0  0  0
  153.7679  137.3284  191.8719 C   0  0  0  0  0  0  0  0  0  0  0  0
  153.8078  137.1255  190.4759 C   0  0  0  0  0  0  0  0  0  0  0  0
  155.0683  137.3612  189.7738 C   0  0  0  0  0  0  0  0  0  0  0  0
  154.9457  138.5639  189.0378 F   0  0  0  0  0  0  0  0  0  0  0  0
  155.3636  136.4328  188.7823 F   0  0  0  0  0  0  0  0  0  0  0  0
  156.1438  137.5730  190.6168 F   0  0  0  0  0  0  0  0  0  0  0  0
  154.1524  134.3480  182.4729 N   0  0  0  0  0  0  0  0  0  0  0  0
  155.3669  133.8264  181.8972 C   0  0  0  0  0  0  0  0  0  0  0  0
  154.9525  132.6417  181.0772 C   0  0  0  0  0  0  0  0  0  0  0  0
  153.4726  132.4411  181.3371 C   0  0  0  0  0  0  0  0  0  0  0  0
  153.0408  133.8279  181.7425 C   0  0  0  0  0  0  0  0  0  0  0  0
  153.6635  138.8319  184.2382 N   0  0  0  0  0  0  0  0  0  0  0  0
  152.7645  139.2556  184.5455 H   0  0  0  0  0  0  0  0  0  0  0  0
  156.5807  141.3697  182.5947 C   0  0  0  0  0  0  0  0  0  0  0  0
  155.2437  141.5890  182.3106 C   0  0  0  0  0  0  0  0  0  0  0  0
  154.2493  140.7801  182.8166 C   0  0  0  0  0  0  0  0  0  0  0  0
  154.5662  139.7342  183.6181 C   0  0  0  0  0  0  0  0  0  0  0  0
  155.9267  139.5233  183.8977 C   0  0  0  0  0  0  0  0  0  0  0  0
  156.9330  140.3119  183.4074 C   0  0  0  0  0  0  0  0  0  0  0  0
  158.6206  140.0425  183.7600 Cl  0  0  0  0  0  0  0  0  0  0  0  0
  158.2973  142.8087  183.1366 F   0  0  0  0  0  0  0  0  0  0  0  0
  157.6456  142.2353  182.0533 C   0  0  0  0  0  0  0  0  0  0  0  0
  158.5104  141.4609  181.3110 F   0  0  0  0  0  0  0  0  0  0  0  0
  157.0475  143.2191  181.2962 F   0  0  0  0  0  0  0  0  0  0  0  0
 36 37  1  0  0  0
 37 38  1  0  0  0
 37 39  1  0  0  0
 37 29  1  0  0  0
 29 30  2  0  0  0
 30 31  1  0  0  0
 31 32  2  0  0  0
 32 27  1  0  0  0
 27  1  1  0  0  0
  1  2  2  0  0  0
  2  3  1  0  0  0
  3  4  2  0  0  0
  4  5  1  0  0  0
  5  6  1  0  0  0
  6  7  1  0  0  0
  7  8  1  0  0  0
  8  9  1  0  0  0
  9 10  1  0  0  0
 10 11  1  0  0  0
  8 12  1  0  0  0
 12 13  2  0  0  0
 13 14  1  0  0  0
 14 15  2  0  0  0
 15 16  1  0  0  0
 16 17  2  0  0  0
 17 18  1  0  0  0
 18 19  1  0  0  0
 18 20  1  0  0  0
 18 21  1  0  0  0
  3 22  1  0  0  0
 22 23  1  0  0  0
 23 24  1  0  0  0
 24 25  1  0  0  0
 25 26  1  0  0  0
 32 33  1  0  0  0
 33 34  2  0  0  0
 34 35  1  0  0  0
 34 29  1  0  0  0
 11  1  1  0  0  0
 17 12  1  0  0  0
 26 22  1  0  0  0
 11  5  2  0  0  0
 27 28  1  0  0  0
M  END
> <minimizedAffinity>
-8.02587

> <CNNscore>
0.4730039537

> <CNNaffinity>
7.0399971008

> <CNN_VS>
3.3299465179

> <CNNaffinity_variance>
0.1070853919

$$$$
[H]c1nc(N2C([H])([H])C([H])([H])c3nc(N4C([H])([H])C([H])([H])C([H])([H])C4([H])[H])nc(N([H])c4c([H])c([H])c(C(F)(F)F)c(Cl)c4[H])c3C([H])([H])C2([H])[H])c(C(F)(F)F)c([H])c1[H]


 39 43  0  0  0  0  0  0  0  0999 V2000
  154.6086  139.4051  183.7959 C   0  0  0  0  0  0  0  0  0  0  0  0
  153.5002  139.1473  183.0349 N   0  0  0  0  0  0  0  0  0  0  0  0
  153.0211  139.9706  182.0988 C   0  0  0  0  0  0  0  0  0  0  0  0
  153.6660  141.1365  181.8810 N   0  0  0  0  0  0  0  0  0  0  0  0
  154.7551  141.4895  182.5648 C   0  0  0  0  0  0  0  0  0  0  0  0
  155.3568  142.7968  182.1931 C   0  0  0  0  0  0  0  0  0  0  0  0
  156.8014  142.5860  181.7428 C   0  0  0  0  0  0  0  0  0  0  0  0
  157.6811  142.1817  182.7929 N   0  0  0  0  0  0  0  0  0  0  0  0
  157.6563  140.9194  183.5328 C   0  0  0  0  0  0  0  0  0  0  0  0
  156.3890  140.8599  184.3783 C   0  0  0  0  0  0  0  0  0  0  0  0
  155.2265  140.5861  183.5485 C   0  0  0  0  0  0  0  0  0  0  0  0
  158.6900  143.1114  183.1419 C   0  0  0  0  0  0  0  0  0  0  0  0
  158.5134  144.4393  182.8583 N   0  0  0  0  0  0  0  0  0  0  0  0
  159.4418  145.3654  183.1476 C   0  0  0  0  0  0  0  0  0  0  0  0
  160.6266  145.0019  183.7517 C   0  0  0  0  0  0  0  0  0  0  0  0
  160.8263  143.6896  184.0441 C   0  0  0  0  0  0  0  0  0  0  0  0
  159.8518  142.7146  183.7413 C   0  0  0  0  0  0  0  0  0  0  0  0
  160.1228  141.3240  184.1018 C   0  0  0  0  0  0  0  0  0  0  0  0
  161.5111  141.1930  184.3440 F   0  0  0  0  0  0  0  0  0  0  0  0
  159.9101  140.4067  183.0793 F   0  0  0  0  0  0  0  0  0  0  0  0
  159.5210  140.9274  185.2819 F   0  0  0  0  0  0  0  0  0  0  0  0
  151.8531  139.6500  181.3290 N   0  0  0  0  0  0  0  0  0  0  0  0
  151.5853  140.0531  179.9710 C   0  0  0  0  0  0  0  0  0  0  0  0
  150.5017  139.1400  179.4816 C   0  0  0  0  0  0  0  0  0  0  0  0
  150.2785  138.1183  180.5788 C   0  0  0  0  0  0  0  0  0  0  0  0
  150.7545  138.8673  181.7980 C   0  0  0  0  0  0  0  0  0  0  0  0
  155.1008  138.4712  184.7237 N   0  0  0  0  0  0  0  0  0  0  0  0
  155.8021  137.7817  184.3848 H   0  0  0  0  0  0  0  0  0  0  0  0
  154.3714  137.9709  188.8310 C   0  0  0  0  0  0  0  0  0  0  0  0
  153.3159  138.2356  187.9753 C   0  0  0  0  0  0  0  0  0  0  0  0
  153.5031  138.4173  186.6221 C   0  0  0  0  0  0  0  0  0  0  0  0
  154.7478  138.3385  186.0916 C   0  0  0  0  0  0  0  0  0  0  0  0
  155.8094  138.0697  186.9716 C   0  0  0  0  0  0  0  0  0  0  0  0
  155.6498  137.8857  188.3189 C   0  0  0  0  0  0  0  0  0  0  0  0
  156.9745  137.5521  189.4047 Cl  0  0  0  0  0  0  0  0  0  0  0  0
  154.8510  136.6190  190.6347 F   0  0  0  0  0  0  0  0  0  0  0  0
  154.1716  137.7763  190.2796 C   0  0  0  0  0  0  0  0  0  0  0  0
  154.6785  138.8701  190.9468 F   0  0  0  0  0  0  0  0  0  0  0  0
  152.8220  137.6103  190.5022 F   0  0  0  0  0  0  0  0  0  0  0  0
 36 37  1  0  0  0
 37 38  1  0  0  0
 37 39  1  0  0  0
 37 29  1  0  0  0
 29 30  2  0  0  0
 30 31  1  0  0  0
 31 32  2  0  0  0
 32 27  1  0  0  0
 27  1  1  0  0  0
  1  2  2  0  0  0
  2  3  1  0  0  0
  3  4  2  0  0  0
  4  5  1  0  0  0
  5  6  1  0  0  0
  6  7  1  0  0  0
  7  8  1  0  0  0
  8  9  1  0  0  0
  9 10  1  0  0  0
 10 11  1  0  0  0
  8 12  1  0  0  0
 12 13  2  0  0  0
 13 14  1  0  0  0
 14 15  2  0  0  0
 15 16  1  0  0  0
 16 17  2  0  0  0
 17 18  1  0  0  0
 18 19  1  0  0  0
 18 20  1  0  0  0
 18 21  1  0  0  0
  3 22  1  0  0  0
 22 23  1  0  0  0
 23 24  1  0  0  0
 24 25  1  0  0  0
 25 26  1  0  0  0
 32 33  1  0  0  0
 33 34  2  0  0  0
 34 35  1  0  0  0
 34 29  1  0  0  0
 11  1  1  0  0  0
 17 12  1  0  0  0
 26 22  1  0  0  0
 11  5  2  0  0  0
 27 28  1  0  0  0
M  END
> <minimizedAffinity>
-10.79060

> <CNNscore>
0.3711929619

> <CNNaffinity>
7.5094132423

> <CNN_VS>
2.7874412537

> <CNNaffinity_variance>
0.1305218637

$$$$
[H]c1nc(N2C([H])([H])C([H])([H])c3nc(N4C([H])([H])C([H])([H])C([H])([H])C4([H])[H])nc(N([H])c4c([H])c([H])c(C(F)(F)F)c(Cl)c4[H])c3C([H])([H])C2([H])[H])c(C(F)(F)F)c([H])c1[H]


 39 43  0  0  0  0  0  0  0  0999 V2000
  155.3587  139.1995  184.5632 C   0  0  0  0  0  0  0  0  0  0  0  0
  154.4220  139.4609  183.5998 N   0  0  0  0  0  0  0  0  0  0  0  0
  153.3078  138.7470  183.4190 C   0  0  0  0  0  0  0  0  0  0  0  0
  153.0815  137.6961  184.2357 N   0  0  0  0  0  0  0  0  0  0  0  0
  153.9271  137.3508  185.2073 C   0  0  0  0  0  0  0  0  0  0  0  0
  153.5244  136.1800  186.0297 C   0  0  0  0  0  0  0  0  0  0  0  0
  153.4182  136.5964  187.4958 C   0  0  0  0  0  0  0  0  0  0  0  0
  154.6728  136.9199  188.0972 N   0  0  0  0  0  0  0  0  0  0  0  0
  155.5476  138.0465  187.7704 C   0  0  0  0  0  0  0  0  0  0  0  0
  156.1089  137.8532  186.3660 C   0  0  0  0  0  0  0  0  0  0  0  0
  155.0961  138.1356  185.3613 C   0  0  0  0  0  0  0  0  0  0  0  0
  155.1026  136.0505  189.1283 C   0  0  0  0  0  0  0  0  0  0  0  0
  155.9100  134.9873  188.8238 N   0  0  0  0  0  0  0  0  0  0  0  0
  156.3345  134.1178  189.7550 C   0  0  0  0  0  0  0  0  0  0  0  0
  155.9637  134.2703  191.0741 C   0  0  0  0  0  0  0  0  0  0  0  0
  155.1628  135.3183  191.4026 C   0  0  0  0  0  0  0  0  0  0  0  0
  154.7158  136.2336  190.4258 C   0  0  0  0  0  0  0  0  0  0  0  0
  153.8731  137.3499  190.8515 C   0  0  0  0  0  0  0  0  0  0  0  0
  153.6844  137.2522  192.2508 F   0  0  0  0  0  0  0  0  0  0  0  0
  152.5695  137.3102  190.3706 F   0  0  0  0  0  0  0  0  0  0  0  0
  154.4541  138.5901  190.6608 F   0  0  0  0  0  0  0  0  0  0  0  0
  152.3581  139.0659  182.3914 N   0  0  0  0  0  0  0  0  0  0  0  0
  152.4472  140.1553  181.4514 C   0  0  0  0  0  0  0  0  0  0  0  0
  151.4924  139.8181  180.3459 C   0  0  0  0  0  0  0  0  0  0  0  0
  150.9745  138.4245  180.6414 C   0  0  0  0  0  0  0  0  0  0  0  0
  151.1552  138.3398  182.1362 C   0  0  0  0  0  0  0  0  0  0  0  0
  156.4818  140.0248  184.7444 N   0  0  0  0  0  0  0  0  0  0  0  0
  156.8518  140.1265  185.7113 H   0  0  0  0  0  0  0  0  0  0  0  0
  158.3062  142.4276  181.8204 C   0  0  0  0  0  0  0  0  0  0  0  0
  158.8431  141.1873  182.1201 C   0  0  0  0  0  0  0  0  0  0  0  0
  158.2884  140.3655  183.0772 C   0  0  0  0  0  0  0  0  0  0  0  0
  157.1850  140.7621  183.7569 C   0  0  0  0  0  0  0  0  0  0  0  0
  156.6511  142.0230  183.4427 C   0  0  0  0  0  0  0  0  0  0  0  0
  157.1833  142.8579  182.4969 C   0  0  0  0  0  0  0  0  0  0  0  0
  156.5133  144.4228  182.1131 Cl  0  0  0  0  0  0  0  0  0  0  0  0
  157.9367  143.5007  179.8146 F   0  0  0  0  0  0  0  0  0  0  0  0
  158.8994  143.3078  180.7959 C   0  0  0  0  0  0  0  0  0  0  0  0
  159.2471  144.5029  181.3871 F   0  0  0  0  0  0  0  0  0  0  0  0
  159.9884  142.6571  180.2579 F   0  0  0  0  0  0  0  0  0  0  0  0
 36 37  1  0  0  0
 37 38  1  0  0  0
 37 39  1  0  0  0
 37 29  1  0  0  0
 29 30  2  0  0  0
 30 31  1  0  0  0
 31 32  2  0  0  0
 32 27  1  0  0  0
 27  1  1  0  0  0
  1  2  2  0  0  0
  2  3  1  0  0  0
  3  4  2  0  0  0
  4  5  1  0  0  0
  5  6  1  0  0  0
  6  7  1  0  0  0
  7  8  1  0  0  0
  8  9  1  0  0  0
  9 10  1  0  0  0
 10 11  1  0  0  0
  8 12  1  0  0  0
 12 13  2  0  0  0
 13 14  1  0  0  0
 14 15  2  0  0  0
 15 16  1  0  0  0
 16 17  2  0  0  0
 17 18  1  0  0  0
 18 19  1  0  0  0
 18 20  1  0  0  0
 18 21  1  0  0  0
  3 22  1  0  0  0
 22 23  1  0  0  0
 23 24  1  0  0  0
 24 25  1  0  0  0
 25 26  1  0  0  0
 32 33  1  0  0  0
 33 34  2  0  0  0
 34 35  1  0  0  0
 34 29  1  0  0  0
 11  1  1  0  0  0
 17 12  1  0  0  0
 26 22  1  0  0  0
 11  5  2  0  0  0
 27 28  1  0  0  0
M  END
> <minimizedAffinity>
-9.28211

> <CNNscore>
0.3606959283

> <CNNaffinity>
7.0791578293

> <CNN_VS>
2.5534234047

> <CNNaffinity_variance>
0.0759486929

$$$$
[H]c1nc(N2C([H])([H])C([H])([H])c3nc(N4C([H])([H])C([H])([H])C([H])([H])C4([H])[H])nc(N([H])c4c([H])c([H])c(C(F)(F)F)c(Cl)c4[H])c3C([H])([H])C2([H])[H])c(C(F)(F)F)c([H])c1[H]


 39 43  0  0  0  0  0  0  0  0999 V2000
  154.0920  139.7925  183.4157 C   0  0  0  0  0  0  0  0  0  0  0  0
  153.1653  139.6510  182.4181 N   0  0  0  0  0  0  0  0  0  0  0  0
  152.5334  138.5093  182.1333 C   0  0  0  0  0  0  0  0  0  0  0  0
  152.8207  137.4171  182.8730 N   0  0  0  0  0  0  0  0  0  0  0  0
  153.7073  137.4412  183.8688 C   0  0  0  0  0  0  0  0  0  0  0  0
  153.8971  136.1595  184.5973 C   0  0  0  0  0  0  0  0  0  0  0  0
  153.5731  136.3588  186.0769 C   0  0  0  0  0  0  0  0  0  0  0  0
  154.5061  137.1923  186.7659 N   0  0  0  0  0  0  0  0  0  0  0  0
  154.7412  138.6212  186.5555 C   0  0  0  0  0  0  0  0  0  0  0  0
  155.3565  138.8293  185.1759 C   0  0  0  0  0  0  0  0  0  0  0  0
  154.3540  138.6731  184.1341 C   0  0  0  0  0  0  0  0  0  0  0  0
  155.2776  136.5547  187.7670 C   0  0  0  0  0  0  0  0  0  0  0  0
  156.2858  135.7023  187.4034 N   0  0  0  0  0  0  0  0  0  0  0  0
  157.0391  135.0541  188.3065 C   0  0  0  0  0  0  0  0  0  0  0  0
  156.8175  135.2293  189.6560 C   0  0  0  0  0  0  0  0  0  0  0  0
  155.8227  136.0708  190.0431 C   0  0  0  0  0  0  0  0  0  0  0  0
  155.0300  136.7534  189.0957 C   0  0  0  0  0  0  0  0  0  0  0  0
  153.9903  137.6593  189.5813 C   0  0  0  0  0  0  0  0  0  0  0  0
  153.8307  137.4441  190.9711 F   0  0  0  0  0  0  0  0  0  0  0  0
  152.7163  137.3980  189.0903 F   0  0  0  0  0  0  0  0  0  0  0  0
  154.3206  138.9973  189.4683 F   0  0  0  0  0  0  0  0  0  0  0  0
  151.5693  138.4170  181.0743 N   0  0  0  0  0  0  0  0  0  0  0  0
  150.3714  137.6149  181.0745 C   0  0  0  0  0  0  0  0  0  0  0  0
  149.5062  138.1752  179.9858 C   0  0  0  0  0  0  0  0  0  0  0  0
  150.2142  139.4145  179.4753 C   0  0  0  0  0  0  0  0  0  0  0  0
  151.6490  139.1184  179.8329 C   0  0  0  0  0  0  0  0  0  0  0  0
  154.6783  141.0359  183.7080 N   0  0  0  0  0  0  0  0  0  0  0  0
  154.3643  141.5237  184.5715 H   0  0  0  0  0  0  0  0  0  0  0  0
  157.7395  142.8008  181.4350 C   0  0  0  0  0  0  0  0  0  0  0  0
  156.8172  143.6047  182.0828 C   0  0  0  0  0  0  0  0  0  0  0  0
  155.7891  143.0754  182.8325 C   0  0  0  0  0  0  0  0  0  0  0  0
  155.6580  141.7319  182.9534 C   0  0  0  0  0  0  0  0  0  0  0  0
  156.6007  140.9284  182.2906 C   0  0  0  0  0  0  0  0  0  0  0  0
  157.6304  141.4294  181.5399 C   0  0  0  0  0  0  0  0  0  0  0  0
  158.7969  140.4237  180.7198 Cl  0  0  0  0  0  0  0  0  0  0  0  0
  160.0028  142.7090  181.0103 F   0  0  0  0  0  0  0  0  0  0  0  0
  158.8403  143.3668  180.6324 C   0  0  0  0  0  0  0  0  0  0  0  0
  158.5672  143.1583  179.2980 F   0  0  0  0  0  0  0  0  0  0  0  0
  158.9428  144.7062  180.9395 F   0  0  0  0  0  0  0  0  0  0  0  0
 36 37  1  0  0  0
 37 38  1  0  0  0
 37 39  1  0  0  0
 37 29  1  0  0  0
 29 30  2  0  0  0
 30 31  1  0  0  0
 31 32  2  0  0  0
 32 27  1  0  0  0
 27  1  1  0  0  0
  1  2  2  0  0  0
  2  3  1  0  0  0
  3  4  2  0  0  0
  4  5  1  0  0  0
  5  6  1  0  0  0
  6  7  1  0  0  0
  7  8  1  0  0  0
  8  9  1  0  0  0
  9 10  1  0  0  0
 10 11  1  0  0  0
  8 12  1  0  0  0
 12 13  2  0  0  0
 13 14  1  0  0  0
 14 15  2  0  0  0
 15 16  1  0  0  0
 16 17  2  0  0  0
 17 18  1  0  0  0
 18 19  1  0  0  0
 18 20  1  0  0  0
 18 21  1  0  0  0
  3 22  1  0  0  0
 22 23  1  0  0  0
 23 24  1  0  0  0
 24 25  1  0  0  0
 25 26  1  0  0  0
 32 33  1  0  0  0
 33 34  2  0  0  0
 34 35  1  0  0  0
 34 29  1  0  0  0
 11  1  1  0  0  0
 17 12  1  0  0  0
 26 22  1  0  0  0
 11  5  2  0  0  0
 27 28  1  0  0  0
M  END
> <minimizedAffinity>
-9.76257

> <CNNscore>
0.3142210245

> <CNNaffinity>
7.0631303787

> <CNN_VS>
2.2193839550

> <CNNaffinity_variance>
0.1092441455

$$$$
[H]c1nc(N2C([H])([H])C([H])([H])c3nc(N4C([H])([H])C([H])([H])C([H])([H])C4([H])[H])nc(N([H])c4c([H])c([H])c(C(F)(F)F)c(Cl)c4[H])c3C([H])([H])C2([H])[H])c(C(F)(F)F)c([H])c1[H]


 39 43  0  0  0  0  0  0  0  0999 V2000
  153.8909  138.7400  185.1895 C   0  0  0  0  0  0  0  0  0  0  0  0
  154.4570  138.6826  186.4347 N   0  0  0  0  0  0  0  0  0  0  0  0
  154.2500  137.6967  187.3116 C   0  0  0  0  0  0  0  0  0  0  0  0
  153.4298  136.6852  186.9555 N   0  0  0  0  0  0  0  0  0  0  0  0
  152.8249  136.6397  185.7679 C   0  0  0  0  0  0  0  0  0  0  0  0
  151.9677  135.4503  185.5236 C   0  0  0  0  0  0  0  0  0  0  0  0
  152.4724  134.6996  184.2925 C   0  0  0  0  0  0  0  0  0  0  0  0
  152.2899  135.4102  183.0670 N   0  0  0  0  0  0  0  0  0  0  0  0
  152.9422  136.6549  182.6590 C   0  0  0  0  0  0  0  0  0  0  0  0
  152.4589  137.7901  183.5548 C   0  0  0  0  0  0  0  0  0  0  0  0
  153.0728  137.7073  184.8706 C   0  0  0  0  0  0  0  0  0  0  0  0
  151.3799  134.8311  182.1501 C   0  0  0  0  0  0  0  0  0  0  0  0
  150.0454  135.1222  182.2466 N   0  0  0  0  0  0  0  0  0  0  0  0
  149.1322  134.5895  181.4185 C   0  0  0  0  0  0  0  0  0  0  0  0
  149.5165  133.7148  180.4245 C   0  0  0  0  0  0  0  0  0  0  0  0
  150.8359  133.4097  180.3074 C   0  0  0  0  0  0  0  0  0  0  0  0
  151.7974  133.9686  181.1763 C   0  0  0  0  0  0  0  0  0  0  0  0
  153.2020  133.6133  180.9813 C   0  0  0  0  0  0  0  0  0  0  0  0
  153.2760  132.6619  179.9361 F   0  0  0  0  0  0  0  0  0  0  0  0
  153.7825  132.9335  182.0458 F   0  0  0  0  0  0  0  0  0  0  0  0
  153.9886  134.6672  180.5538 F   0  0  0  0  0  0  0  0  0  0  0  0
  154.8701  137.6869  188.6058 N   0  0  0  0  0  0  0  0  0  0  0  0
  156.2779  137.5405  188.8796 C   0  0  0  0  0  0  0  0  0  0  0  0
  156.4713  138.0225  190.2859 C   0  0  0  0  0  0  0  0  0  0  0  0
  155.1335  138.5776  190.7331 C   0  0  0  0  0  0  0  0  0  0  0  0
  154.1754  137.8230  189.8461 C   0  0  0  0  0  0  0  0  0  0  0  0
  154.1959  139.7729  184.2866 N   0  0  0  0  0  0  0  0  0  0  0  0
  153.4004  140.2456  183.8115 H   0  0  0  0  0  0  0  0  0  0  0  0
  157.8403  141.4660  183.0601 C   0  0  0  0  0  0  0  0  0  0  0  0
  157.8263  140.1964  183.6119 C   0  0  0  0  0  0  0  0  0  0  0  0
  156.6593  139.6004  184.0386 C   0  0  0  0  0  0  0  0  0  0  0  0
  155.4794  140.2573  183.9239 C   0  0  0  0  0  0  0  0  0  0  0  0
  155.5085  141.5448  183.3625 C   0  0  0  0  0  0  0  0  0  0  0  0
  156.6540  142.1587  182.9315 C   0  0  0  0  0  0  0  0  0  0  0  0
  156.6808  143.7585  182.2353 Cl  0  0  0  0  0  0  0  0  0  0  0  0
  158.9567  142.3344  181.2405 F   0  0  0  0  0  0  0  0  0  0  0  0
  159.0892  142.1045  182.6031 C   0  0  0  0  0  0  0  0  0  0  0  0
  159.2575  143.2878  183.2888 F   0  0  0  0  0  0  0  0  0  0  0  0
  160.1228  141.2214  182.8276 F   0  0  0  0  0  0  0  0  0  0  0  0
 36 37  1  0  0  0
 37 38  1  0  0  0
 37 39  1  0  0  0
 37 29  1  0  0  0
 29 30  2  0  0  0
 30 31  1  0  0  0
 31 32  2  0  0  0
 32 27  1  0  0  0
 27  1  1  0  0  0
  1  2  2  0  0  0
  2  3  1  0  0  0
  3  4  2  0  0  0
  4  5  1  0  0  0
  5  6  1  0  0  0
  6  7  1  0  0  0
  7  8  1  0  0  0
  8  9  1  0  0  0
  9 10  1  0  0  0
 10 11  1  0  0  0
  8 12  1  0  0  0
 12 13  2  0  0  0
 13 14  1  0  0  0
 14 15  2  0  0  0
 15 16  1  0  0  0
 16 17  2  0  0  0
 17 18  1  0  0  0
 18 19  1  0  0  0
 18 20  1  0  0  0
 18 21  1  0  0  0
  3 22  1  0  0  0
 22 23  1  0  0  0
 23 24  1  0  0  0
 24 25  1  0  0  0
 25 26  1  0  0  0
 32 33  1  0  0  0
 33 34  2  0  0  0
 34 35  1  0  0  0
 34 29  1  0  0  0
 11  1  1  0  0  0
 17 12  1  0  0  0
 26 22  1  0  0  0
 11  5  2  0  0  0
 27 28  1  0  0  0
M  END
> <minimizedAffinity>
-7.74276

> <CNNscore>
0.3031488061

> <CNNaffinity>
6.9693746567

> <CNN_VS>
2.1127576828

> <CNNaffinity_variance>
0.0412077233

$$$$
[H]c1nc(N2C([H])([H])C([H])([H])c3nc(N4C([H])([H])C([H])([H])C([H])([H])C4([H])[H])nc(N([H])c4c([H])c([H])c(C(F)(F)F)c(Cl)c4[H])c3C([H])([H])C2([H])[H])c(C(F)(F)F)c([H])c1[H]


 39 43  0  0  0  0  0  0  0  0999 V2000
  153.2514  137.2751  184.6968 C   0  0  0  0  0  0  0  0  0  0  0  0
  151.9671  137.3553  184.2296 N   0  0  0  0  0  0  0  0  0  0  0  0
  150.8966  136.9020  184.8871 C   0  0  0  0  0  0  0  0  0  0  0  0
  151.0834  136.3251  186.0933 N   0  0  0  0  0  0  0  0  0  0  0  0
  152.2909  136.1938  186.6436 C   0  0  0  0  0  0  0  0  0  0  0  0
  152.3248  135.5521  187.9839 C   0  0  0  0  0  0  0  0  0  0  0  0
  152.9547  136.5095  188.9942 C   0  0  0  0  0  0  0  0  0  0  0  0
  154.3475  136.7418  188.7797 N   0  0  0  0  0  0  0  0  0  0  0  0
  154.9671  137.4254  187.6438 C   0  0  0  0  0  0  0  0  0  0  0  0
  154.7676  136.5871  186.3859 C   0  0  0  0  0  0  0  0  0  0  0  0
  153.3971  136.6877  185.9099 C   0  0  0  0  0  0  0  0  0  0  0  0
  155.2141  136.2593  189.7898 C   0  0  0  0  0  0  0  0  0  0  0  0
  155.7349  134.9970  189.6877 N   0  0  0  0  0  0  0  0  0  0  0  0
  156.5467  134.4771  190.6226 C   0  0  0  0  0  0  0  0  0  0  0  0
  156.8890  135.2120  191.7377 C   0  0  0  0  0  0  0  0  0  0  0  0
  156.3853  136.4684  191.8625 C   0  0  0  0  0  0  0  0  0  0  0  0
  155.5323  137.0170  190.8812 C   0  0  0  0  0  0  0  0  0  0  0  0
  155.0428  138.3818  191.0684 C   0  0  0  0  0  0  0  0  0  0  0  0
  153.7938  138.3161  191.7309 F   0  0  0  0  0  0  0  0  0  0  0  0
  154.7226  139.0506  189.8926 F   0  0  0  0  0  0  0  0  0  0  0  0
  155.8401  139.1504  191.8964 F   0  0  0  0  0  0  0  0  0  0  0  0
  149.5706  137.0121  184.3496 N   0  0  0  0  0  0  0  0  0  0  0  0
  148.3387  136.7373  185.0463 C   0  0  0  0  0  0  0  0  0  0  0  0
  147.2601  137.3991  184.2424 C   0  0  0  0  0  0  0  0  0  0  0  0
  147.9623  138.1751  183.1458 C   0  0  0  0  0  0  0  0  0  0  0  0
  149.2602  137.4183  183.0161 C   0  0  0  0  0  0  0  0  0  0  0  0
  154.3315  137.8262  183.9862 N   0  0  0  0  0  0  0  0  0  0  0  0
  155.1248  137.1951  183.7530 H   0  0  0  0  0  0  0  0  0  0  0  0
  155.0783  141.8045  182.8604 C   0  0  0  0  0  0  0  0  0  0  0  0
  153.8560  141.2266  182.5629 C   0  0  0  0  0  0  0  0  0  0  0  0
  153.5650  139.9229  182.9017 C   0  0  0  0  0  0  0  0  0  0  0  0
  154.4867  139.1661  183.5455 C   0  0  0  0  0  0  0  0  0  0  0  0
  155.7226  139.7653  183.8408 C   0  0  0  0  0  0  0  0  0  0  0  0
  156.0361  141.0576  183.5149 C   0  0  0  0  0  0  0  0  0  0  0  0
  157.5741  141.7939  183.8856 Cl  0  0  0  0  0  0  0  0  0  0  0  0
  156.3880  143.1594  181.5336 F   0  0  0  0  0  0  0  0  0  0  0  0
  155.3904  143.2001  182.4980 C   0  0  0  0  0  0  0  0  0  0  0  0
  154.2499  143.7941  182.0030 F   0  0  0  0  0  0  0  0  0  0  0  0
  155.8601  143.8356  183.6268 F   0  0  0  0  0  0  0  0  0  0  0  0
 36 37  1  0  0  0
 37 38  1  0  0  0
 37 39  1  0  0  0
 37 29  1  0  0  0
 29 30  2  0  0  0
 30 31  1  0  0  0
 31 32  2  0  0  0
 32 27  1  0  0  0
 27  1  1  0  0  0
  1  2  2  0  0  0
  2  3  1  0  0  0
  3  4  2  0  0  0
  4  5  1  0  0  0
  5  6  1  0  0  0
  6  7  1  0  0  0
  7  8  1  0  0  0
  8  9  1  0  0  0
  9 10  1  0  0  0
 10 11  1  0  0  0
  8 12  1  0  0  0
 12 13  2  0  0  0
 13 14  1  0  0  0
 14 15  2  0  0  0
 15 16  1  0  0  0
 16 17  2  0  0  0
 17 18  1  0  0  0
 18 19  1  0  0  0
 18 20  1  0  0  0
 18 21  1  0  0  0
  3 22  1  0  0  0
 22 23  1  0  0  0
 23 24  1  0  0  0
 24 25  1  0  0  0
 25 26  1  0  0  0
 32 33  1  0  0  0
 33 34  2  0  0  0
 34 35  1  0  0  0
 34 29  1  0  0  0
 11  1  1  0  0  0
 17 12  1  0  0  0
 26 22  1  0  0  0
 11  5  2  0  0  0
 27 28  1  0  0  0
M  END
> <minimizedAffinity>
-8.23110

> <CNNscore>
0.2856496572

> <CNNaffinity>
6.7640328407

> <CNN_VS>
1.9321436882

> <CNNaffinity_variance>
0.0994181633

$$$$
[H]c1nc(N2C([H])([H])C([H])([H])c3nc(N4C([H])([H])C([H])([H])C([H])([H])C4([H])[H])nc(N([H])c4c([H])c([H])c(C(F)(F)F)c(Cl)c4[H])c3C([H])([H])C2([H])[H])c(C(F)(F)F)c([H])c1[H]


 39 43  0  0  0  0  0  0  0  0999 V2000
  153.9162  138.3292  185.3405 C   0  0  0  0  0  0  0  0  0  0  0  0
  154.4165  138.3990  186.6129 N   0  0  0  0  0  0  0  0  0  0  0  0
  154.5460  137.3505  187.4300 C   0  0  0  0  0  0  0  0  0  0  0  0
  154.1611  136.1372  186.9802 N   0  0  0  0  0  0  0  0  0  0  0  0
  153.6597  135.9539  185.7583 C   0  0  0  0  0  0  0  0  0  0  0  0
  153.3001  134.5545  185.4096 C   0  0  0  0  0  0  0  0  0  0  0  0
  154.0889  134.1151  184.1772 C   0  0  0  0  0  0  0  0  0  0  0  0
  153.7093  134.7898  182.9770 N   0  0  0  0  0  0  0  0  0  0  0  0
  153.8830  136.2091  182.6656 C   0  0  0  0  0  0  0  0  0  0  0  0
  152.9881  137.0357  183.5825 C   0  0  0  0  0  0  0  0  0  0  0  0
  153.5393  137.0944  184.9270 C   0  0  0  0  0  0  0  0  0  0  0  0
  153.1060  133.9829  181.9825 C   0  0  0  0  0  0  0  0  0  0  0  0
  151.7436  133.8473  181.9563 N   0  0  0  0  0  0  0  0  0  0  0  0
  151.1153  133.0813  181.0499 C   0  0  0  0  0  0  0  0  0  0  0  0
  151.8358  132.3927  180.0972 C   0  0  0  0  0  0  0  0  0  0  0  0
  153.1900  132.5110  180.1015 C   0  0  0  0  0  0  0  0  0  0  0  0
  153.8524  133.3157  181.0529 C   0  0  0  0  0  0  0  0  0  0  0  0
  155.3096  133.4144  180.9876 C   0  0  0  0  0  0  0  0  0  0  0  0
  155.6419  134.6476  180.3778 F   0  0  0  0  0  0  0  0  0  0  0  0
  155.9172  132.4910  180.1447 F   0  0  0  0  0  0  0  0  0  0  0  0
  155.9207  133.4590  182.2272 F   0  0  0  0  0  0  0  0  0  0  0  0
  155.0775  137.4809  188.7567 N   0  0  0  0  0  0  0  0  0  0  0  0
  156.4636  137.3733  189.1382 C   0  0  0  0  0  0  0  0  0  0  0  0
  156.5621  138.0018  190.4957 C   0  0  0  0  0  0  0  0  0  0  0  0
  155.1976  138.5920  190.7912 C   0  0  0  0  0  0  0  0  0  0  0  0
  154.3010  137.7421  189.9264 C   0  0  0  0  0  0  0  0  0  0  0  0
  153.8619  139.4583  184.5054 N   0  0  0  0  0  0  0  0  0  0  0  0
  152.9522  139.9575  184.4317 H   0  0  0  0  0  0  0  0  0  0  0  0
  157.1823  140.9437  182.4029 C   0  0  0  0  0  0  0  0  0  0  0  0
  155.9144  141.4080  182.0972 C   0  0  0  0  0  0  0  0  0  0  0  0
  154.7924  140.9461  182.7504 C   0  0  0  0  0  0  0  0  0  0  0  0
  154.9096  140.0107  183.7241 C   0  0  0  0  0  0  0  0  0  0  0  0
  156.2020  139.5483  184.0237 C   0  0  0  0  0  0  0  0  0  0  0  0
  157.3319  139.9908  183.3895 C   0  0  0  0  0  0  0  0  0  0  0  0
  158.9335  139.4107  183.7682 Cl  0  0  0  0  0  0  0  0  0  0  0  0
  158.9908  140.3410  181.1078 F   0  0  0  0  0  0  0  0  0  0  0  0
  158.3838  141.4378  181.7041 C   0  0  0  0  0  0  0  0  0  0  0  0
  157.9966  142.3618  180.7581 F   0  0  0  0  0  0  0  0  0  0  0  0
  159.2286  141.9814  182.6473 F   0  0  0  0  0  0  0  0  0  0  0  0
 36 37  1  0  0  0
 37 38  1  0  0  0
 37 39  1  0  0  0
 37 29  1  0  0  0
 29 30  2  0  0  0
 30 31  1  0  0  0
 31 32  2  0  0  0
 32 27  1  0  0  0
 27  1  1  0  0  0
  1  2  2  0  0  0
  2  3  1  0  0  0
  3  4  2  0  0  0
  4  5  1  0  0  0
  5  6  1  0  0  0
  6  7  1  0  0  0
  7  8  1  0  0  0
  8  9  1  0  0  0
  9 10  1  0  0  0
 10 11  1  0  0  0
  8 12  1  0  0  0
 12 13  2  0  0  0
 13 14  1  0  0  0
 14 15  2  0  0  0
 15 16  1  0  0  0
 16 17  2  0  0  0
 17 18  1  0  0  0
 18 19  1  0  0  0
 18 20  1  0  0  0
 18 21  1  0  0  0
  3 22  1  0  0  0
 22 23  1  0  0  0
 23 24  1  0  0  0
 24 25  1  0  0  0
 25 26  1  0  0  0
 32 33  1  0  0  0
 33 34  2  0  0  0
 34 35  1  0  0  0
 34 29  1  0  0  0
 11  1  1  0  0  0
 17 12  1  0  0  0
 26 22  1  0  0  0
 11  5  2  0  0  0
 27 28  1  0  0  0
M  END
> <minimizedAffinity>
-7.63977

> <CNNscore>
0.2793792784

> <CNNaffinity>
6.8853998184

> <CNN_VS>
1.9236379862

> <CNNaffinity_variance>
0.0459550023

$$$$
[H]c1nc([H])c2c([H])c([H])c([H])c(N([H])C(=O)N([H])C([H])([H])c3c(N4C([H])([H])C([H])([H])C([H])(C([H])([H])[H])C([H])([H])C4([H])[H])nc(C(F)(F)F)c([H])c3[H])c2c1[H]


 34 37  0  0  0  0  0  0  0  0999 V2000
  155.0090  140.1291  183.2634 C   0  0  0  0  0  0  0  0  0  0  0  0
  154.0454  140.3031  182.2871 N   0  0  0  0  0  0  0  0  0  0  0  0
  153.0677  139.4134  182.1882 C   0  0  0  0  0  0  0  0  0  0  0  0
  152.9382  138.3077  182.9747 C   0  0  0  0  0  0  0  0  0  0  0  0
  153.9059  138.0825  183.9948 C   0  0  0  0  0  0  0  0  0  0  0  0
  154.8708  139.0246  184.0682 C   0  0  0  0  0  0  0  0  0  0  0  0
  157.8773  144.4305  181.9849 C   0  0  0  0  0  0  0  0  0  0  0  0
  157.0101  143.1827  181.7670 C   0  0  0  0  0  0  0  0  0  0  0  0
  155.8650  143.2557  182.7258 C   0  0  0  0  0  0  0  0  0  0  0  0
  156.1466  142.2507  183.9120 C   0  0  0  0  0  0  0  0  0  0  0  0
  156.0645  141.0406  183.2097 N   0  0  0  0  0  0  0  0  0  0  0  0
  157.0248  140.7734  182.1405 C   0  0  0  0  0  0  0  0  0  0  0  0
  157.8719  141.9801  182.0215 C   0  0  0  0  0  0  0  0  0  0  0  0
  152.0418  139.6319  181.0799 C   0  0  0  0  0  0  0  0  0  0  0  0
  152.0537  141.0354  180.9827 F   0  0  0  0  0  0  0  0  0  0  0  0
  152.3931  138.9863  179.9742 F   0  0  0  0  0  0  0  0  0  0  0  0
  150.8414  139.2251  181.6012 F   0  0  0  0  0  0  0  0  0  0  0  0
  155.7720  139.0645  185.2688 C   0  0  0  0  0  0  0  0  0  0  0  0
  155.1968  138.3025  186.2394 N   0  0  0  0  0  0  0  0  0  0  0  0
  154.6517  137.4977  187.1687 C   0  0  0  0  0  0  0  0  0  0  0  0
  154.5577  136.3661  187.3643 O   0  0  0  0  0  0  0  0  0  0  0  0
  154.0161  138.4506  188.2382 N   0  0  0  0  0  0  0  0  0  0  0  0
  156.1628  137.3235  186.0735 H   0  0  0  0  0  0  0  0  0  0  0  0
  153.5136  139.2077  187.8935 H   0  0  0  0  0  0  0  0  0  0  0  0
  154.4176  137.8572  189.4157 C   0  0  0  0  0  0  0  0  0  0  0  0
  155.8423  138.2123  189.6247 C   0  0  0  0  0  0  0  0  0  0  0  0
  156.5242  137.8417  190.6712 C   0  0  0  0  0  0  0  0  0  0  0  0
  155.8671  137.0711  191.6379 C   0  0  0  0  0  0  0  0  0  0  0  0
  154.5853  136.7462  191.4640 C   0  0  0  0  0  0  0  0  0  0  0  0
  153.9523  135.8356  192.3494 C   0  0  0  0  0  0  0  0  0  0  0  0
  152.7367  135.3963  192.0933 N   0  0  0  0  0  0  0  0  0  0  0  0
  152.0105  135.7755  190.9916 C   0  0  0  0  0  0  0  0  0  0  0  0
  152.5790  136.6639  190.1107 C   0  0  0  0  0  0  0  0  0  0  0  0
  153.8525  137.1237  190.3663 C   0  0  0  0  0  0  0  0  0  0  0  0
  7  8  1  0  0  0
  8  9  1  0  0  0
  9 10  1  0  0  0
 10 11  1  0  0  0
 11 12  1  0  0  0
 12 13  1  0  0  0
 11  1  1  0  0  0
  1  2  2  0  0  0
  2  3  1  0  0  0
  3  4  2  0  0  0
  4  5  1  0  0  0
  5  6  2  0  0  0
  6 18  1  0  0  0
 18 19  1  0  0  0
 19 20  1  0  0  0
 20 21  2  0  0  0
 20 22  1  0  0  0
 22 25  1  0  0  0
 25 26  2  0  0  0
 26 27  1  0  0  0
 27 28  2  0  0  0
 28 29  1  0  0  0
 29 30  2  0  0  0
 30 31  1  0  0  0
 31 32  2  0  0  0
 32 33  1  0  0  0
 33 34  2  0  0  0
  3 14  1  0  0  0
 14 15  1  0  0  0
 14 16  1  0  0  0
 14 17  1  0  0  0
 13  8  1  0  0  0
  6  1  1  0  0  0
 34 25  1  0  0  0
 34 29  1  0  0  0
 19 23  1  0  0  0
 22 24  1  0  0  0
M  END
> <minimizedAffinity>
-9.28452

> <CNNscore>
0.4675403833

> <CNNaffinity>
6.4107160568

> <CNN_VS>
2.9972686768

> <CNNaffinity_variance>
0.0653233156

$$$$
[H]c1nc([H])c2c([H])c([H])c([H])c(N([H])C(=O)N([H])C([H])([H])c3c(N4C([H])([H])C([H])([H])C([H])(C([H])([H])[H])C([H])([H])C4([H])[H])nc(C(F)(F)F)c([H])c3[H])c2c1[H]


 34 37  0  0  0  0  0  0  0  0999 V2000
  155.5156  139.9608  184.0083 C   0  0  0  0  0  0  0  0  0  0  0  0
  155.8361  139.2009  185.1181 N   0  0  0  0  0  0  0  0  0  0  0  0
  154.8921  138.4575  185.6781 C   0  0  0  0  0  0  0  0  0  0  0  0
  153.5989  138.3902  185.2527 C   0  0  0  0  0  0  0  0  0  0  0  0
  153.2177  139.1553  184.1137 C   0  0  0  0  0  0  0  0  0  0  0  0
  154.2171  139.8812  183.5677 C   0  0  0  0  0  0  0  0  0  0  0  0
  158.0987  143.6918  181.2207 C   0  0  0  0  0  0  0  0  0  0  0  0
  157.2387  142.4457  181.4736 C   0  0  0  0  0  0  0  0  0  0  0  0
  156.2253  142.8002  182.5143 C   0  0  0  0  0  0  0  0  0  0  0  0
  156.6796  142.1623  183.8866 C   0  0  0  0  0  0  0  0  0  0  0  0
  156.5348  140.8055  183.5662 N   0  0  0  0  0  0  0  0  0  0  0  0
  157.3552  140.2365  182.4986 C   0  0  0  0  0  0  0  0  0  0  0  0
  158.1528  141.3495  181.9391 C   0  0  0  0  0  0  0  0  0  0  0  0
  155.2848  137.6559  186.9157 C   0  0  0  0  0  0  0  0  0  0  0  0
  154.6779  138.4207  187.9287 F   0  0  0  0  0  0  0  0  0  0  0  0
  154.8591  136.4016  186.8234 F   0  0  0  0  0  0  0  0  0  0  0  0
  156.6467  137.7726  187.0156 F   0  0  0  0  0  0  0  0  0  0  0  0
  154.0261  140.4938  182.2099 C   0  0  0  0  0  0  0  0  0  0  0  0
  153.0913  139.7531  181.5532 N   0  0  0  0  0  0  0  0  0  0  0  0
  152.1974  138.9687  180.9255 C   0  0  0  0  0  0  0  0  0  0  0  0
  152.0245  137.8420  180.7578 O   0  0  0  0  0  0  0  0  0  0  0  0
  151.1376  139.9420  180.3048 N   0  0  0  0  0  0  0  0  0  0  0  0
  153.2360  138.7214  182.4661 H   0  0  0  0  0  0  0  0  0  0  0  0
  151.4889  140.7324  179.8615 H   0  0  0  0  0  0  0  0  0  0  0  0
  149.9555  139.3091  180.6239 C   0  0  0  0  0  0  0  0  0  0  0  0
  149.8720  139.2513  182.1036 C   0  0  0  0  0  0  0  0  0  0  0  0
  148.8548  138.7461  182.7419 C   0  0  0  0  0  0  0  0  0  0  0  0
  147.7956  138.2368  181.9811 C   0  0  0  0  0  0  0  0  0  0  0  0
  147.8562  138.2842  180.6497 C   0  0  0  0  0  0  0  0  0  0  0  0
  146.8705  137.6304  179.8656 C   0  0  0  0  0  0  0  0  0  0  0  0
  147.0103  137.5460  178.5580 N   0  0  0  0  0  0  0  0  0  0  0  0
  148.0798  138.0697  177.8750 C   0  0  0  0  0  0  0  0  0  0  0  0
  149.0550  138.7207  178.5915 C   0  0  0  0  0  0  0  0  0  0  0  0
  148.9212  138.8083  179.9601 C   0  0  0  0  0  0  0  0  0  0  0  0
  7  8  1  0  0  0
  8  9  1  0  0  0
  9 10  1  0  0  0
 10 11  1  0  0  0
 11 12  1  0  0  0
 12 13  1  0  0  0
 11  1  1  0  0  0
  1  2  2  0  0  0
  2  3  1  0  0  0
  3  4  2  0  0  0
  4  5  1  0  0  0
  5  6  2  0  0  0
  6 18  1  0  0  0
 18 19  1  0  0  0
 19 20  1  0  0  0
 20 21  2  0  0  0
 20 22  1  0  0  0
 22 25  1  0  0  0
 25 26  2  0  0  0
 26 27  1  0  0  0
 27 28  2  0  0  0
 28 29  1  0  0  0
 29 30  2  0  0  0
 30 31  1  0  0  0
 31 32  2  0  0  0
 32 33  1  0  0  0
 33 34  2  0  0  0
  3 14  1  0  0  0
 14 15  1  0  0  0
 14 16  1  0  0  0
 14 17  1  0  0  0
 13  8  1  0  0  0
  6  1  1  0  0  0
 34 25  1  0  0  0
 34 29  1  0  0  0
 19 23  1  0  0  0
 22 24  1  0  0  0
M  END
> <minimizedAffinity>
-7.58880

> <CNNscore>
0.4580978751

> <CNNaffinity>
6.4521431923

> <CNN_VS>
2.9557130337

> <CNNaffinity_variance>
0.0692798793

$$$$
[H]c1nc([H])c2c([H])c([H])c([H])c(N([H])C(=O)N([H])C([H])([H])c3c(N4C([H])([H])C([H])([H])C([H])(C([H])([H])[H])C([H])([H])C4([H])[H])nc(C(F)(F)F)c([H])c3[H])c2c1[H]


 34 37  0  0  0  0  0  0  0  0999 V2000
  154.3964  140.1109  183.1227 C   0  0  0  0  0  0  0  0  0  0  0  0
  153.5796  140.2371  182.0142 N   0  0  0  0  0  0  0  0  0  0  0  0
  152.7233  139.2638  181.7370 C   0  0  0  0  0  0  0  0  0  0  0  0
  152.5885  138.1158  182.4593 C   0  0  0  0  0  0  0  0  0  0  0  0
  153.4080  137.9369  183.6101 C   0  0  0  0  0  0  0  0  0  0  0  0
  154.2501  138.9623  183.8617 C   0  0  0  0  0  0  0  0  0  0  0  0
  157.1544  144.5793  182.2339 C   0  0  0  0  0  0  0  0  0  0  0  0
  156.4825  143.2358  181.9179 C   0  0  0  0  0  0  0  0  0  0  0  0
  155.1159  143.2607  182.5243 C   0  0  0  0  0  0  0  0  0  0  0  0
  155.1395  142.3812  183.8366 C   0  0  0  0  0  0  0  0  0  0  0  0
  155.3501  141.1202  183.2620 N   0  0  0  0  0  0  0  0  0  0  0  0
  156.5854  140.8753  182.5199 C   0  0  0  0  0  0  0  0  0  0  0  0
  157.3339  142.1511  182.5117 C   0  0  0  0  0  0  0  0  0  0  0  0
  151.8607  139.4344  180.4899 C   0  0  0  0  0  0  0  0  0  0  0  0
  150.9457  140.4068  180.9333 F   0  0  0  0  0  0  0  0  0  0  0  0
  152.6007  139.7897  179.4462 F   0  0  0  0  0  0  0  0  0  0  0  0
  151.2077  138.2408  180.3253 F   0  0  0  0  0  0  0  0  0  0  0  0
  154.9500  139.0326  185.1885 C   0  0  0  0  0  0  0  0  0  0  0  0
  154.3147  138.1747  186.0337 N   0  0  0  0  0  0  0  0  0  0  0  0
  153.7109  137.2786  186.8341 C   0  0  0  0  0  0  0  0  0  0  0  0
  153.5883  136.1343  186.8894 O   0  0  0  0  0  0  0  0  0  0  0  0
  153.0393  138.1130  187.9781 N   0  0  0  0  0  0  0  0  0  0  0  0
  155.2711  137.2006  185.7984 H   0  0  0  0  0  0  0  0  0  0  0  0
  152.5673  138.9166  187.7023 H   0  0  0  0  0  0  0  0  0  0  0  0
  153.3721  137.3762  189.0944 C   0  0  0  0  0  0  0  0  0  0  0  0
  152.2026  136.5266  189.4263 C   0  0  0  0  0  0  0  0  0  0  0  0
  152.1960  135.6747  190.4119 C   0  0  0  0  0  0  0  0  0  0  0  0
  153.3566  135.5661  191.1873 C   0  0  0  0  0  0  0  0  0  0  0  0
  154.4167  136.3223  190.8989 C   0  0  0  0  0  0  0  0  0  0  0  0
  155.5383  136.3422  191.7680 C   0  0  0  0  0  0  0  0  0  0  0  0
  156.5189  137.1993  191.5676 N   0  0  0  0  0  0  0  0  0  0  0  0
  156.5346  138.1049  190.5359 C   0  0  0  0  0  0  0  0  0  0  0  0
  155.4739  138.1160  189.6624 C   0  0  0  0  0  0  0  0  0  0  0  0
  154.4404  137.2281  189.8677 C   0  0  0  0  0  0  0  0  0  0  0  0
  7  8  1  0  0  0
  8  9  1  0  0  0
  9 10  1  0  0  0
 10 11  1  0  0  0
 11 12  1  0  0  0
 12 13  1  0  0  0
 11  1  1  0  0  0
  1  2  2  0  0  0
  2  3  1  0  0  0
  3  4  2  0  0  0
  4  5  1  0  0  0
  5  6  2  0  0  0
  6 18  1  0  0  0
 18 19  1  0  0  0
 19 20  1  0  0  0
 20 21  2  0  0  0
 20 22  1  0  0  0
 22 25  1  0  0  0
 25 26  2  0  0  0
 26 27  1  0  0  0
 27 28  2  0  0  0
 28 29  1  0  0  0
 29 30  2  0  0  0
 30 31  1  0  0  0
 31 32  2  0  0  0
 32 33  1  0  0  0
 33 34  2  0  0  0
  3 14  1  0  0  0
 14 15  1  0  0  0
 14 16  1  0  0  0
 14 17  1  0  0  0
 13  8  1  0  0  0
  6  1  1  0  0  0
 34 25  1  0  0  0
 34 29  1  0  0  0
 19 23  1  0  0  0
 22 24  1  0  0  0
M  END
> <minimizedAffinity>
-8.78479

> <CNNscore>
0.4439288378

> <CNNaffinity>
6.3378367424

> <CNN_VS>
2.8135485649

> <CNNaffinity_variance>
0.0486918315

$$$$
[H]c1nc([H])c2c([H])c([H])c([H])c(N([H])C(=O)N([H])C([H])([H])c3c(N4C([H])([H])C([H])([H])C([H])(C([H])([H])[H])C([H])([H])C4([H])[H])nc(C(F)(F)F)c([H])c3[H])c2c1[H]


 34 37  0  0  0  0  0  0  0  0999 V2000
  153.1050  139.2911  182.5577 C   0  0  0  0  0  0  0  0  0  0  0  0
  153.3324  140.6383  182.3447 N   0  0  0  0  0  0  0  0  0  0  0  0
  154.1634  141.2818  183.1525 C   0  0  0  0  0  0  0  0  0  0  0  0
  154.8147  140.7188  184.2092 C   0  0  0  0  0  0  0  0  0  0  0  0
  154.6132  139.3338  184.4718 C   0  0  0  0  0  0  0  0  0  0  0  0
  153.7735  138.7179  183.6118 C   0  0  0  0  0  0  0  0  0  0  0  0
  149.3368  138.8192  178.8238 C   0  0  0  0  0  0  0  0  0  0  0  0
  150.0695  139.4039  180.0394 C   0  0  0  0  0  0  0  0  0  0  0  0
  151.5193  139.5040  179.6875 C   0  0  0  0  0  0  0  0  0  0  0  0
  152.2872  138.3266  180.4089 C   0  0  0  0  0  0  0  0  0  0  0  0
  152.1223  138.7296  181.7412 N   0  0  0  0  0  0  0  0  0  0  0  0
  150.7727  138.8093  182.2970 C   0  0  0  0  0  0  0  0  0  0  0  0
  149.8418  138.4755  181.1971 C   0  0  0  0  0  0  0  0  0  0  0  0
  154.3637  142.7726  182.8954 C   0  0  0  0  0  0  0  0  0  0  0  0
  154.6132  143.2339  184.2009 F   0  0  0  0  0  0  0  0  0  0  0  0
  155.3472  142.9763  182.0269 F   0  0  0  0  0  0  0  0  0  0  0  0
  153.1470  143.2425  182.4746 F   0  0  0  0  0  0  0  0  0  0  0  0
  153.7035  137.2179  183.5972 C   0  0  0  0  0  0  0  0  0  0  0  0
  153.4701  136.8054  184.8735 N   0  0  0  0  0  0  0  0  0  0  0  0
  153.2702  136.3433  186.1205 C   0  0  0  0  0  0  0  0  0  0  0  0
  153.4810  135.3784  186.7139 O   0  0  0  0  0  0  0  0  0  0  0  0
  152.5772  137.5114  186.9021 N   0  0  0  0  0  0  0  0  0  0  0  0
  154.6118  136.0212  184.8518 H   0  0  0  0  0  0  0  0  0  0  0  0
  151.8635  137.9766  186.4342 H   0  0  0  0  0  0  0  0  0  0  0  0
  153.2694  137.5002  188.0939 C   0  0  0  0  0  0  0  0  0  0  0  0
  154.5908  138.1248  187.8420 C   0  0  0  0  0  0  0  0  0  0  0  0
  155.4833  138.3072  188.7733 C   0  0  0  0  0  0  0  0  0  0  0  0
  155.1661  137.8885  190.0711 C   0  0  0  0  0  0  0  0  0  0  0  0
  153.9806  137.3271  190.3126 C   0  0  0  0  0  0  0  0  0  0  0  0
  153.7067  136.7532  191.5812 C   0  0  0  0  0  0  0  0  0  0  0  0
  152.5990  136.0661  191.7743 N   0  0  0  0  0  0  0  0  0  0  0  0
  151.6539  135.8629  190.7995 C   0  0  0  0  0  0  0  0  0  0  0  0
  151.8713  136.4085  189.5572 C   0  0  0  0  0  0  0  0  0  0  0  0
  153.0300  137.1229  189.3436 C   0  0  0  0  0  0  0  0  0  0  0  0
  7  8  1  0  0  0
  8  9  1  0  0  0
  9 10  1  0  0  0
 10 11  1  0  0  0
 11 12  1  0  0  0
 12 13  1  0  0  0
 11  1  1  0  0  0
  1  2  2  0  0  0
  2  3  1  0  0  0
  3  4  2  0  0  0
  4  5  1  0  0  0
  5  6  2  0  0  0
  6 18  1  0  0  0
 18 19  1  0  0  0
 19 20  1  0  0  0
 20 21  2  0  0  0
 20 22  1  0  0  0
 22 25  1  0  0  0
 25 26  2  0  0  0
 26 27  1  0  0  0
 27 28  2  0  0  0
 28 29  1  0  0  0
 29 30  2  0  0  0
 30 31  1  0  0  0
 31 32  2  0  0  0
 32 33  1  0  0  0
 33 34  2  0  0  0
  3 14  1  0  0  0
 14 15  1  0  0  0
 14 16  1  0  0  0
 14 17  1  0  0  0
 13  8  1  0  0  0
  6  1  1  0  0  0
 34 25  1  0  0  0
 34 29  1  0  0  0
 19 23  1  0  0  0
 22 24  1  0  0  0
M  END
> <minimizedAffinity>
-8.40086

> <CNNscore>
0.3468757272

> <CNNaffinity>
6.0337800980

> <CNN_VS>
2.0929718018

> <CNNaffinity_variance>
0.1476322114

$$$$
[H]c1nc([H])c2c([H])c([H])c([H])c(N([H])C(=O)N([H])C([H])([H])c3c(N4C([H])([H])C([H])([H])C([H])(C([H])([H])[H])C([H])([H])C4([H])[H])nc(C(F)(F)F)c([H])c3[H])c2c1[H]


 34 37  0  0  0  0  0  0  0  0999 V2000
  152.0931  138.2450  182.3272 C   0  0  0  0  0  0  0  0  0  0  0  0
  151.0734  138.0082  181.4238 N   0  0  0  0  0  0  0  0  0  0  0  0
  150.7644  138.9529  180.5467 C   0  0  0  0  0  0  0  0  0  0  0  0
  151.3695  140.1718  180.4691 C   0  0  0  0  0  0  0  0  0  0  0  0
  152.4254  140.4653  181.3785 C   0  0  0  0  0  0  0  0  0  0  0  0
  152.7157  139.4662  182.2395 C   0  0  0  0  0  0  0  0  0  0  0  0
  151.9219  133.4964  184.7325 C   0  0  0  0  0  0  0  0  0  0  0  0
  151.4028  134.7283  183.9780 C   0  0  0  0  0  0  0  0  0  0  0  0
  152.3621  135.0149  182.8674 C   0  0  0  0  0  0  0  0  0  0  0  0
  153.2486  136.2542  183.2852 C   0  0  0  0  0  0  0  0  0  0  0  0
  152.2615  137.2491  183.2904 N   0  0  0  0  0  0  0  0  0  0  0  0
  151.1481  137.1399  184.2312 C   0  0  0  0  0  0  0  0  0  0  0  0
  151.3313  135.8642  184.9571 C   0  0  0  0  0  0  0  0  0  0  0  0
  149.6157  138.6577  179.5866 C   0  0  0  0  0  0  0  0  0  0  0  0
  149.9980  139.4283  178.4733 F   0  0  0  0  0  0  0  0  0  0  0  0
  149.5092  137.3536  179.3610 F   0  0  0  0  0  0  0  0  0  0  0  0
  148.5018  139.2134  180.1600 F   0  0  0  0  0  0  0  0  0  0  0  0
  153.9819  139.5315  183.0441 C   0  0  0  0  0  0  0  0  0  0  0  0
  154.6819  140.6198  182.6205 N   0  0  0  0  0  0  0  0  0  0  0  0
  155.3327  141.7316  182.2350 C   0  0  0  0  0  0  0  0  0  0  0  0
  155.2188  142.8711  182.3623 O   0  0  0  0  0  0  0  0  0  0  0  0
  156.5738  141.2370  181.4159 N   0  0  0  0  0  0  0  0  0  0  0  0
  154.3244  141.3206  183.7606 H   0  0  0  0  0  0  0  0  0  0  0  0
  156.4096  140.5222  180.7782 H   0  0  0  0  0  0  0  0  0  0  0  0
  157.5768  142.0398  181.9152 C   0  0  0  0  0  0  0  0  0  0  0  0
  157.8565  143.0806  180.8963 C   0  0  0  0  0  0  0  0  0  0  0  0
  158.7314  144.0306  181.0678 C   0  0  0  0  0  0  0  0  0  0  0  0
  159.4345  144.0583  182.2782 C   0  0  0  0  0  0  0  0  0  0  0  0
  159.1916  143.1299  183.2044 C   0  0  0  0  0  0  0  0  0  0  0  0
  160.0050  143.0475  184.3643 C   0  0  0  0  0  0  0  0  0  0  0  0
  159.8652  142.0413  185.2036 N   0  0  0  0  0  0  0  0  0  0  0  0
  158.9507  141.0321  185.0309 C   0  0  0  0  0  0  0  0  0  0  0  0
  158.1340  141.0748  183.9266 C   0  0  0  0  0  0  0  0  0  0  0  0
  158.2772  142.1194  183.0395 C   0  0  0  0  0  0  0  0  0  0  0  0
  7  8  1  0  0  0
  8  9  1  0  0  0
  9 10  1  0  0  0
 10 11  1  0  0  0
 11 12  1  0  0  0
 12 13  1  0  0  0
 11  1  1  0  0  0
  1  2  2  0  0  0
  2  3  1  0  0  0
  3  4  2  0  0  0
  4  5  1  0  0  0
  5  6  2  0  0  0
  6 18  1  0  0  0
 18 19  1  0  0  0
 19 20  1  0  0  0
 20 21  2  0  0  0
 20 22  1  0  0  0
 22 25  1  0  0  0
 25 26  2  0  0  0
 26 27  1  0  0  0
 27 28  2  0  0  0
 28 29  1  0  0  0
 29 30  2  0  0  0
 30 31  1  0  0  0
 31 32  2  0  0  0
 32 33  1  0  0  0
 33 34  2  0  0  0
  3 14  1  0  0  0
 14 15  1  0  0  0
 14 16  1  0  0  0
 14 17  1  0  0  0
 13  8  1  0  0  0
  6  1  1  0  0  0
 34 25  1  0  0  0
 34 29  1  0  0  0
 19 23  1  0  0  0
 22 24  1  0  0  0
M  END
> <minimizedAffinity>
-8.75113

> <CNNscore>
0.3406853974

> <CNNaffinity>
6.4543929100

> <CNN_VS>
2.1989173889

> <CNNaffinity_variance>
0.0455483980

$$$$
[H]c1nc([H])c2c([H])c([H])c([H])c(N([H])C(=O)N([H])C([H])([H])c3c(N4C([H])([H])C([H])([H])C([H])(C([H])([H])[H])C([H])([H])C4([H])[H])nc(C(F)(F)F)c([H])c3[H])c2c1[H]


 34 37  0  0  0  0  0  0  0  0999 V2000
  156.8028  141.1872  184.1989 C   0  0  0  0  0  0  0  0  0  0  0  0
  156.1406  142.2695  183.6494 N   0  0  0  0  0  0  0  0  0  0  0  0
  154.8430  142.1653  183.3994 C   0  0  0  0  0  0  0  0  0  0  0  0
  154.0927  141.0506  183.6281 C   0  0  0  0  0  0  0  0  0  0  0  0
  154.7282  139.9078  184.1923 C   0  0  0  0  0  0  0  0  0  0  0  0
  156.0449  140.0686  184.4460 C   0  0  0  0  0  0  0  0  0  0  0  0
  161.5544  142.8107  185.9738 C   0  0  0  0  0  0  0  0  0  0  0  0
  160.1038  142.9246  185.4845 C   0  0  0  0  0  0  0  0  0  0  0  0
  159.2993  141.8970  186.2142 C   0  0  0  0  0  0  0  0  0  0  0  0
  159.0195  140.6944  185.2283 C   0  0  0  0  0  0  0  0  0  0  0  0
  158.1853  141.3436  184.3080 N   0  0  0  0  0  0  0  0  0  0  0  0
  158.7185  142.4620  183.5322 C   0  0  0  0  0  0  0  0  0  0  0  0
  160.1034  142.6812  184.0031 C   0  0  0  0  0  0  0  0  0  0  0  0
  154.1596  143.3754  182.7691 C   0  0  0  0  0  0  0  0  0  0  0  0
  153.6371  144.0080  183.9120 F   0  0  0  0  0  0  0  0  0  0  0  0
  155.0260  144.0987  182.0697 F   0  0  0  0  0  0  0  0  0  0  0  0
  153.1285  142.8701  182.0208 F   0  0  0  0  0  0  0  0  0  0  0  0
  156.7596  139.0598  185.2985 C   0  0  0  0  0  0  0  0  0  0  0  0
  155.8135  138.2956  185.9107 N   0  0  0  0  0  0  0  0  0  0  0  0
  154.9068  137.4891  186.4900 C   0  0  0  0  0  0  0  0  0  0  0  0
  154.6574  136.3643  186.5078 O   0  0  0  0  0  0  0  0  0  0  0  0
  154.0075  138.4220  187.3714 N   0  0  0  0  0  0  0  0  0  0  0  0
  156.6917  137.2268  185.9819 H   0  0  0  0  0  0  0  0  0  0  0  0
  153.7261  139.2575  186.9624 H   0  0  0  0  0  0  0  0  0  0  0  0
  153.9079  137.6943  188.5377 C   0  0  0  0  0  0  0  0  0  0  0  0
  152.5718  137.0506  188.5428 C   0  0  0  0  0  0  0  0  0  0  0  0
  152.1661  136.2555  189.4919 C   0  0  0  0  0  0  0  0  0  0  0  0
  153.0450  136.0052  190.5525 C   0  0  0  0  0  0  0  0  0  0  0  0
  154.2505  136.5756  190.5599 C   0  0  0  0  0  0  0  0  0  0  0  0
  155.0879  136.4624  191.7000 C   0  0  0  0  0  0  0  0  0  0  0  0
  156.2107  137.1485  191.7704 N   0  0  0  0  0  0  0  0  0  0  0  0
  156.6459  137.9930  190.7794 C   0  0  0  0  0  0  0  0  0  0  0  0
  155.8725  138.1273  189.6515 C   0  0  0  0  0  0  0  0  0  0  0  0
  154.6932  137.4191  189.5715 C   0  0  0  0  0  0  0  0  0  0  0  0
  7  8  1  0  0  0
  8  9  1  0  0  0
  9 10  1  0  0  0
 10 11  1  0  0  0
 11 12  1  0  0  0
 12 13  1  0  0  0
 11  1  1  0  0  0
  1  2  2  0  0  0
  2  3  1  0  0  0
  3  4  2  0  0  0
  4  5  1  0  0  0
  5  6  2  0  0  0
  6 18  1  0  0  0
 18 19  1  0  0  0
 19 20  1  0  0  0
 20 21  2  0  0  0
 20 22  1  0  0  0
 22 25  1  0  0  0
 25 26  2  0  0  0
 26 27  1  0  0  0
 27 28  2  0  0  0
 28 29  1  0  0  0
 29 30  2  0  0  0
 30 31  1  0  0  0
 31 32  2  0  0  0
 32 33  1  0  0  0
 33 34  2  0  0  0
  3 14  1  0  0  0
 14 15  1  0  0  0
 14 16  1  0  0  0
 14 17  1  0  0  0
 13  8  1  0  0  0
  6  1  1  0  0  0
 34 25  1  0  0  0
 34 29  1  0  0  0
 19 23  1  0  0  0
 22 24  1  0  0  0
M  END
> <minimizedAffinity>
-9.43632

> <CNNscore>
0.3361065388

> <CNNaffinity>
6.6164979935

> <CNN_VS>
2.2238483429

> <CNNaffinity_variance>
0.0522101596

$$$$
[H]c1nc([H])c2c([H])c([H])c([H])c(N([H])C(=O)N([H])C([H])([H])c3c(N4C([H])([H])C([H])([H])C([H])(C([H])([H])[H])C([H])([H])C4([H])[H])nc(C(F)(F)F)c([H])c3[H])c2c1[H]


 34 37  0  0  0  0  0  0  0  0999 V2000
  152.8917  137.6943  184.3849 C   0  0  0  0  0  0  0  0  0  0  0  0
  151.9412  136.9570  183.7030 N   0  0  0  0  0  0  0  0  0  0  0  0
  151.6301  137.3065  182.4627 C   0  0  0  0  0  0  0  0  0  0  0  0
  152.1680  138.3652  181.7935 C   0  0  0  0  0  0  0  0  0  0  0  0
  153.1509  139.1572  182.4528 C   0  0  0  0  0  0  0  0  0  0  0  0
  153.4474  138.7513  183.7063 C   0  0  0  0  0  0  0  0  0  0  0  0
  154.2031  137.9661  189.5395 C   0  0  0  0  0  0  0  0  0  0  0  0
  154.3832  138.0692  188.0186 C   0  0  0  0  0  0  0  0  0  0  0  0
  153.1904  138.7849  187.4702 C   0  0  0  0  0  0  0  0  0  0  0  0
  152.2413  137.7195  186.7917 C   0  0  0  0  0  0  0  0  0  0  0  0
  153.0605  137.3328  185.7223 N   0  0  0  0  0  0  0  0  0  0  0  0
  154.3440  136.6932  186.0061 C   0  0  0  0  0  0  0  0  0  0  0  0
  154.4900  136.6727  187.4779 C   0  0  0  0  0  0  0  0  0  0  0  0
  150.5577  136.4803  181.7585 C   0  0  0  0  0  0  0  0  0  0  0  0
  150.1050  137.4012  180.7961 F   0  0  0  0  0  0  0  0  0  0  0  0
  151.0695  135.3572  181.2687 F   0  0  0  0  0  0  0  0  0  0  0  0
  149.5732  136.2799  182.6907 F   0  0  0  0  0  0  0  0  0  0  0  0
  154.6591  139.3107  184.3947 C   0  0  0  0  0  0  0  0  0  0  0  0
  155.1596  140.3005  183.6051 N   0  0  0  0  0  0  0  0  0  0  0  0
  155.6096  141.3176  182.8492 C   0  0  0  0  0  0  0  0  0  0  0  0
  155.3239  142.4145  182.6421 O   0  0  0  0  0  0  0  0  0  0  0  0
  156.8746  140.7687  182.1049 N   0  0  0  0  0  0  0  0  0  0  0  0
  154.7484  141.2624  184.5131 H   0  0  0  0  0  0  0  0  0  0  0  0
  156.7961  139.8771  181.7260 H   0  0  0  0  0  0  0  0  0  0  0  0
  157.7606  141.8145  182.2498 C   0  0  0  0  0  0  0  0  0  0  0  0
  157.7576  142.5743  180.9761 C   0  0  0  0  0  0  0  0  0  0  0  0
  158.4622  143.6538  180.7872 C   0  0  0  0  0  0  0  0  0  0  0  0
  159.2563  144.1075  181.8472 C   0  0  0  0  0  0  0  0  0  0  0  0
  159.2670  143.4354  182.9991 C   0  0  0  0  0  0  0  0  0  0  0  0
  160.1841  143.7872  184.0233 C   0  0  0  0  0  0  0  0  0  0  0  0
  160.3017  143.0329  185.0974 N   0  0  0  0  0  0  0  0  0  0  0  0
  159.5687  141.8909  185.3053 C   0  0  0  0  0  0  0  0  0  0  0  0
  158.6604  141.5158  184.3447 C   0  0  0  0  0  0  0  0  0  0  0  0
  158.5351  142.2943  183.2148 C   0  0  0  0  0  0  0  0  0  0  0  0
  7  8  1  0  0  0
  8  9  1  0  0  0
  9 10  1  0  0  0
 10 11  1  0  0  0
 11 12  1  0  0  0
 12 13  1  0  0  0
 11  1  1  0  0  0
  1  2  2  0  0  0
  2  3  1  0  0  0
  3  4  2  0  0  0
  4  5  1  0  0  0
  5  6  2  0  0  0
  6 18  1  0  0  0
 18 19  1  0  0  0
 19 20  1  0  0  0
 20 21  2  0  0  0
 20 22  1  0  0  0
 22 25  1  0  0  0
 25 26  2  0  0  0
 26 27  1  0  0  0
 27 28  2  0  0  0
 28 29  1  0  0  0
 29 30  2  0  0  0
 30 31  1  0  0  0
 31 32  2  0  0  0
 32 33  1  0  0  0
 33 34  2  0  0  0
  3 14  1  0  0  0
 14 15  1  0  0  0
 14 16  1  0  0  0
 14 17  1  0  0  0
 13  8  1  0  0  0
  6  1  1  0  0  0
 34 25  1  0  0  0
 34 29  1  0  0  0
 19 23  1  0  0  0
 22 24  1  0  0  0
M  END
> <minimizedAffinity>
-8.59080

> <CNNscore>
0.3285917342

> <CNNaffinity>
6.7452874184

> <CNN_VS>
2.2164456844

> <CNNaffinity_variance>
0.1946319342

$$$$
[H]c1nc([H])c2c([H])c([H])c([H])c(N([H])C(=O)N([H])C([H])([H])c3c(N4C([H])([H])C([H])([H])C([H])(C([H])([H])[H])C([H])([H])C4([H])[H])nc(C(F)(F)F)c([H])c3[H])c2c1[H]


 34 37  0  0  0  0  0  0  0  0999 V2000
  159.0882  141.8104  183.3708 C   0  0  0  0  0  0  0  0  0  0  0  0
  159.0001  142.5692  182.2182 N   0  0  0  0  0  0  0  0  0  0  0  0
  158.6579  141.9728  181.0849 C   0  0  0  0  0  0  0  0  0  0  0  0
  158.3957  140.6417  180.9534 C   0  0  0  0  0  0  0  0  0  0  0  0
  158.4739  139.8163  182.1112 C   0  0  0  0  0  0  0  0  0  0  0  0
  158.8076  140.4718  183.2438 C   0  0  0  0  0  0  0  0  0  0  0  0
  162.3222  143.3246  187.3219 C   0  0  0  0  0  0  0  0  0  0  0  0
  161.5162  142.3699  186.4302 C   0  0  0  0  0  0  0  0  0  0  0  0
  161.7769  142.7519  185.0083 C   0  0  0  0  0  0  0  0  0  0  0  0
  160.5166  143.5355  184.4661 C   0  0  0  0  0  0  0  0  0  0  0  0
  159.5769  142.4957  184.4839 N   0  0  0  0  0  0  0  0  0  0  0  0
  159.2232  141.8801  185.7617 C   0  0  0  0  0  0  0  0  0  0  0  0
  160.0672  142.5260  186.7905 C   0  0  0  0  0  0  0  0  0  0  0  0
  158.5987  142.8446  179.8338 C   0  0  0  0  0  0  0  0  0  0  0  0
  157.6612  143.8148  180.2327 F   0  0  0  0  0  0  0  0  0  0  0  0
  159.8017  143.3147  179.5258 F   0  0  0  0  0  0  0  0  0  0  0  0
  158.0460  142.0558  178.8588 F   0  0  0  0  0  0  0  0  0  0  0  0
  158.6409  139.7853  184.5689 C   0  0  0  0  0  0  0  0  0  0  0  0
  157.3272  139.4505  184.6954 N   0  0  0  0  0  0  0  0  0  0  0  0
  156.0283  139.1079  184.7575 C   0  0  0  0  0  0  0  0  0  0  0  0
  155.1961  138.7923  184.0257 O   0  0  0  0  0  0  0  0  0  0  0  0
  155.6443  139.1648  186.2757 N   0  0  0  0  0  0  0  0  0  0  0  0
  157.4208  138.5876  183.6158 H   0  0  0  0  0  0  0  0  0  0  0  0
  155.9699  139.9344  186.7719 H   0  0  0  0  0  0  0  0  0  0  0  0
  154.9159  138.0041  186.4239 C   0  0  0  0  0  0  0  0  0  0  0  0
  153.5181  138.3079  186.0320 C   0  0  0  0  0  0  0  0  0  0  0  0
  152.5699  137.4145  186.0199 C   0  0  0  0  0  0  0  0  0  0  0  0
  152.9010  136.1077  186.3975 C   0  0  0  0  0  0  0  0  0  0  0  0
  154.1545  135.8196  186.7502 C   0  0  0  0  0  0  0  0  0  0  0  0
  154.4709  134.5449  187.2876 C   0  0  0  0  0  0  0  0  0  0  0  0
  155.6716  134.3096  187.7769 N   0  0  0  0  0  0  0  0  0  0  0  0
  156.6769  135.2442  187.7997 C   0  0  0  0  0  0  0  0  0  0  0  0
  156.4199  136.4905  187.2809 C   0  0  0  0  0  0  0  0  0  0  0  0
  155.1652  136.7483  186.7732 C   0  0  0  0  0  0  0  0  0  0  0  0
  7  8  1  0  0  0
  8  9  1  0  0  0
  9 10  1  0  0  0
 10 11  1  0  0  0
 11 12  1  0  0  0
 12 13  1  0  0  0
 11  1  1  0  0  0
  1  2  2  0  0  0
  2  3  1  0  0  0
  3  4  2  0  0  0
  4  5  1  0  0  0
  5  6  2  0  0  0
  6 18  1  0  0  0
 18 19  1  0  0  0
 19 20  1  0  0  0
 20 21  2  0  0  0
 20 22  1  0  0  0
 22 25  1  0  0  0
 25 26  2  0  0  0
 26 27  1  0  0  0
 27 28  2  0  0  0
 28 29  1  0  0  0
 29 30  2  0  0  0
 30 31  1  0  0  0
 31 32  2  0  0  0
 32 33  1  0  0  0
 33 34  2  0  0  0
  3 14  1  0  0  0
 14 15  1  0  0  0
 14 16  1  0  0  0
 14 17  1  0  0  0
 13  8  1  0  0  0
  6  1  1  0  0  0
 34 25  1  0  0  0
 34 29  1  0  0  0
 19 23  1  0  0  0
 22 24  1  0  0  0
M  END
> <minimizedAffinity>
-9.26655

> <CNNscore>
0.3260492682

> <CNNaffinity>
6.8221144676

> <CNN_VS>
2.2243454456

> <CNNaffinity_variance>
0.0206075814

$$$$
[H]c1nc([H])c2c([H])c([H])c([H])c(N([H])C(=O)N([H])C([H])([H])c3c(N4C([H])([H])C([H])([H])C([H])(C([H])([H])[H])C([H])([H])C4([H])[H])nc(C(F)(F)F)c([H])c3[H])c2c1[H]


 34 37  0  0  0  0  0  0  0  0999 V2000
  153.1507  139.2684  182.6360 C   0  0  0  0  0  0  0  0  0  0  0  0
  153.4413  140.5992  182.3984 N   0  0  0  0  0  0  0  0  0  0  0  0
  154.2871  141.2229  183.2065 C   0  0  0  0  0  0  0  0  0  0  0  0
  154.8956  140.6549  184.2858 C   0  0  0  0  0  0  0  0  0  0  0  0
  154.6284  139.2862  184.5742 C   0  0  0  0  0  0  0  0  0  0  0  0
  153.7761  138.6894  183.7132 C   0  0  0  0  0  0  0  0  0  0  0  0
  149.4205  138.8840  178.8543 C   0  0  0  0  0  0  0  0  0  0  0  0
  150.1595  139.4604  180.0701 C   0  0  0  0  0  0  0  0  0  0  0  0
  151.6172  139.4931  179.7386 C   0  0  0  0  0  0  0  0  0  0  0  0
  152.3243  138.2985  180.4930 C   0  0  0  0  0  0  0  0  0  0  0  0
  152.1572  138.7331  181.8150 N   0  0  0  0  0  0  0  0  0  0  0  0
  150.8042  138.8797  182.3486 C   0  0  0  0  0  0  0  0  0  0  0  0
  149.8761  138.5644  181.2409 C   0  0  0  0  0  0  0  0  0  0  0  0
  154.5578  142.6973  182.9214 C   0  0  0  0  0  0  0  0  0  0  0  0
  153.2888  143.1185  182.4835 F   0  0  0  0  0  0  0  0  0  0  0  0
  155.0146  143.3140  184.0050 F   0  0  0  0  0  0  0  0  0  0  0  0
  155.4299  142.7160  181.8644 F   0  0  0  0  0  0  0  0  0  0  0  0
  153.6395  137.1940  183.7291 C   0  0  0  0  0  0  0  0  0  0  0  0
  152.9597  136.8558  184.8593 N   0  0  0  0  0  0  0  0  0  0  0  0
  152.3214  136.5667  186.0070 C   0  0  0  0  0  0  0  0  0  0  0  0
  152.3571  136.9038  187.1082 O   0  0  0  0  0  0  0  0  0  0  0  0
  151.2482  135.4861  185.6376 N   0  0  0  0  0  0  0  0  0  0  0  0
  153.1011  138.1415  185.3550 H   0  0  0  0  0  0  0  0  0  0  0  0
  151.5446  134.7703  185.0508 H   0  0  0  0  0  0  0  0  0  0  0  0
  150.1411  135.9474  186.3169 C   0  0  0  0  0  0  0  0  0  0  0  0
  149.5952  137.0903  185.5453 C   0  0  0  0  0  0  0  0  0  0  0  0
  148.5191  137.7372  185.8928 C   0  0  0  0  0  0  0  0  0  0  0  0
  147.8556  137.3223  187.0537 C   0  0  0  0  0  0  0  0  0  0  0  0
  148.3340  136.2945  187.7562 C   0  0  0  0  0  0  0  0  0  0  0  0
  147.7692  135.9651  189.0157 C   0  0  0  0  0  0  0  0  0  0  0  0
  148.3345  135.0515  189.7787 N   0  0  0  0  0  0  0  0  0  0  0  0
  149.4710  134.3670  189.4256 C   0  0  0  0  0  0  0  0  0  0  0  0
  150.0481  134.6454  188.2100 C   0  0  0  0  0  0  0  0  0  0  0  0
  149.4682  135.6042  187.4080 C   0  0  0  0  0  0  0  0  0  0  0  0
  7  8  1  0  0  0
  8  9  1  0  0  0
  9 10  1  0  0  0
 10 11  1  0  0  0
 11 12  1  0  0  0
 12 13  1  0  0  0
 11  1  1  0  0  0
  1  2  2  0  0  0
  2  3  1  0  0  0
  3  4  2  0  0  0
  4  5  1  0  0  0
  5  6  2  0  0  0
  6 18  1  0  0  0
 18 19  1  0  0  0
 19 20  1  0  0  0
 20 21  2  0  0  0
 20 22  1  0  0  0
 22 25  1  0  0  0
 25 26  2  0  0  0
 26 27  1  0  0  0
 27 28  2  0  0  0
 28 29  1  0  0  0
 29 30  2  0  0  0
 30 31  1  0  0  0
 31 32  2  0  0  0
 32 33  1  0  0  0
 33 34  2  0  0  0
  3 14  1  0  0  0
 14 15  1  0  0  0
 14 16  1  0  0  0
 14 17  1  0  0  0
 13  8  1  0  0  0
  6  1  1  0  0  0
 34 25  1  0  0  0
 34 29  1  0  0  0
 19 23  1  0  0  0
 22 24  1  0  0  0
M  END
> <minimizedAffinity>
-7.13528

> <CNNscore>
0.3216714859

> <CNNaffinity>
6.1083335876

> <CNN_VS>
1.9648767710

> <CNNaffinity_variance>
0.0474984609

$$$$
