[H]c1nc(N2C([H])([H])C([H])([H])c3nc(N4C([H])([H])C([H])([H])OC([H])([H])C4([H])[H])nc(N([H])c4c([H])c([H])c(C(F)(F)F)c([H])c4[H])c3C([H])([H])C2([H])[H])c(C(F)(F)F)c([H])c1[H]


 39 43  0  0  0  0  0  0  0  0999 V2000
  155.6109  139.1550  184.6490 C   0  0  0  0  0  0  0  0  0  0  0  0
  156.7765  139.7699  184.3584 N   0  0  0  0  0  0  0  0  0  0  0  0
  156.8531  140.7799  183.4631 C   0  0  0  0  0  0  0  0  0  0  0  0
  155.7517  141.2187  182.8154 N   0  0  0  0  0  0  0  0  0  0  0  0
  154.5325  140.6574  183.0435 C   0  0  0  0  0  0  0  0  0  0  0  0
  153.4476  141.3209  182.2947 C   0  0  0  0  0  0  0  0  0  0  0  0
  152.5555  140.4451  181.4948 C   0  0  0  0  0  0  0  0  0  0  0  0
  152.0307  139.2844  182.0815 N   0  0  0  0  0  0  0  0  0  0  0  0
  152.6322  138.3306  182.9525 C   0  0  0  0  0  0  0  0  0  0  0  0
  153.3051  138.7904  184.2029 C   0  0  0  0  0  0  0  0  0  0  0  0
  154.5021  139.6384  183.9509 C   0  0  0  0  0  0  0  0  0  0  0  0
  150.7276  138.8739  181.7008 C   0  0  0  0  0  0  0  0  0  0  0  0
  150.0427  138.2358  182.7492 N   0  0  0  0  0  0  0  0  0  0  0  0
  148.8303  137.7652  182.6083 C   0  0  0  0  0  0  0  0  0  0  0  0
  148.1346  137.8609  181.4369 C   0  0  0  0  0  0  0  0  0  0  0  0
  148.7719  138.4806  180.3873 C   0  0  0  0  0  0  0  0  0  0  0  0
  150.0771  138.9846  180.5394 C   0  0  0  0  0  0  0  0  0  0  0  0
  150.7166  139.6987  179.3899 C   0  0  0  0  0  0  0  0  0  0  0  0
  150.6284  141.0527  179.4560 F   0  0  0  0  0  0  0  0  0  0  0  0
  149.9150  139.3495  178.2491 F   0  0  0  0  0  0  0  0  0  0  0  0
  151.9673  139.2311  179.0828 F   0  0  0  0  0  0  0  0  0  0  0  0
  158.0343  141.4694  183.1307 N   0  0  0  0  0  0  0  0  0  0  0  0
  159.3886  140.9595  183.1538 C   0  0  0  0  0  0  0  0  0  0  0  0
  160.2329  141.8215  184.0932 C   0  0  0  0  0  0  0  0  0  0  0  0
  159.9684  143.1712  183.9835 O   0  0  0  0  0  0  0  0  0  0  0  0
  159.3158  143.4592  182.7982 C   0  0  0  0  0  0  0  0  0  0  0  0
  157.9266  142.8627  182.6933 C   0  0  0  0  0  0  0  0  0  0  0  0
  155.3867  138.1989  185.6567 N   0  0  0  0  0  0  0  0  0  0  0  0
  155.2079  137.1964  185.2185 H   0  0  0  0  0  0  0  0  0  0  0  0
  155.0706  138.1714  189.7828 C   0  0  0  0  0  0  0  0  0  0  0  0
  153.9353  138.4157  189.0619 C   0  0  0  0  0  0  0  0  0  0  0  0
  154.0189  138.4171  187.6517 C   0  0  0  0  0  0  0  0  0  0  0  0
  155.2164  138.1742  187.0270 C   0  0  0  0  0  0  0  0  0  0  0  0
  156.3420  137.9307  187.8118 C   0  0  0  0  0  0  0  0  0  0  0  0
  156.2595  137.9310  189.1614 C   0  0  0  0  0  0  0  0  0  0  0  0
  156.1821  137.5836  191.8346 F   0  0  0  0  0  0  0  0  0  0  0  0
  155.0932  138.1386  191.2929 C   0  0  0  0  0  0  0  0  0  0  0  0
  153.9833  137.3933  191.6579 F   0  0  0  0  0  0  0  0  0  0  0  0
  154.8730  139.4388  191.7952 F   0  0  0  0  0  0  0  0  0  0  0  0
 36 37  1  0  0  0
 37 38  1  0  0  0
 37 39  1  0  0  0
 37 30  1  0  0  0
 30 31  2  0  0  0
 31 32  1  0  0  0
 32 33  2  0  0  0
 33 28  1  0  0  0
 28  1  1  0  0  0
  1  2  2  0  0  0
  2  3  1  0  0  0
  3  4  2  0  0  0
  4  5  1  0  0  0
  5  6  1  0  0  0
  6  7  1  0  0  0
  7  8  1  0  0  0
  8  9  1  0  0  0
  9 10  1  0  0  0
 10 11  1  0  0  0
  8 12  1  0  0  0
 12 13  2  0  0  0
 13 14  1  0  0  0
 14 15  2  0  0  0
 15 16  1  0  0  0
 16 17  2  0  0  0
 17 18  1  0  0  0
 18 19  1  0  0  0
 18 20  1  0  0  0
 18 21  1  0  0  0
  3 22  1  0  0  0
 22 23  1  0  0  0
 23 24  1  0  0  0
 24 25  1  0  0  0
 25 26  1  0  0  0
 26 27  1  0  0  0
 33 34  1  0  0  0
 34 35  2  0  0  0
 35 30  1  0  0  0
 11  1  1  0  0  0
 17 12  1  0  0  0
 27 22  1  0  0  0
 11  5  2  0  0  0
 28 29  1  0  0  0
M  END
> <minimizedAffinity>
-10.95286

> <CNNscore>
0.5256037116

> <CNNaffinity>
7.0404038429

> <CNN_VS>
3.7004623413

> <CNNaffinity_variance>
0.0662699640

$$$$
[H]c1nc(N2C([H])([H])C([H])([H])c3nc(N4C([H])([H])C([H])([H])OC([H])([H])C4([H])[H])nc(N([H])c4c([H])c([H])c(C(F)(F)F)c([H])c4[H])c3C([H])([H])C2([H])[H])c(C(F)(F)F)c([H])c1[H]


 39 43  0  0  0  0  0  0  0  0999 V2000
  154.7812  138.7982  184.3702 C   0  0  0  0  0  0  0  0  0  0  0  0
  155.8616  139.5271  184.0199 N   0  0  0  0  0  0  0  0  0  0  0  0
  155.8488  140.3696  182.9628 C   0  0  0  0  0  0  0  0  0  0  0  0
  154.7398  140.5165  182.2054 N   0  0  0  0  0  0  0  0  0  0  0  0
  153.6027  139.8209  182.4826 C   0  0  0  0  0  0  0  0  0  0  0  0
  152.4840  140.1719  181.5864 C   0  0  0  0  0  0  0  0  0  0  0  0
  151.7824  139.0459  180.9213 C   0  0  0  0  0  0  0  0  0  0  0  0
  151.3946  137.9350  181.6846 N   0  0  0  0  0  0  0  0  0  0  0  0
  152.0703  137.2477  182.7339 C   0  0  0  0  0  0  0  0  0  0  0  0
  152.5867  138.0117  183.9075 C   0  0  0  0  0  0  0  0  0  0  0  0
  153.6617  138.9789  183.5549 C   0  0  0  0  0  0  0  0  0  0  0  0
  150.1925  137.2696  181.3331 C   0  0  0  0  0  0  0  0  0  0  0  0
  150.4129  135.9318  180.9628 N   0  0  0  0  0  0  0  0  0  0  0  0
  149.4410  135.1406  180.5879 C   0  0  0  0  0  0  0  0  0  0  0  0
  148.1389  135.5491  180.5318 C   0  0  0  0  0  0  0  0  0  0  0  0
  147.8831  136.8527  180.8883 C   0  0  0  0  0  0  0  0  0  0  0  0
  148.9299  137.7036  181.2894 C   0  0  0  0  0  0  0  0  0  0  0  0
  148.6043  139.0996  181.7198 C   0  0  0  0  0  0  0  0  0  0  0  0
  148.9507  139.3827  183.0025 F   0  0  0  0  0  0  0  0  0  0  0  0
  147.1682  139.1574  181.7225 F   0  0  0  0  0  0  0  0  0  0  0  0
  148.9813  140.0540  180.8119 F   0  0  0  0  0  0  0  0  0  0  0  0
  156.9365  141.1664  182.5588 N   0  0  0  0  0  0  0  0  0  0  0  0
  158.1301  140.7397  181.8604 C   0  0  0  0  0  0  0  0  0  0  0  0
  159.3570  141.0965  182.7005 C   0  0  0  0  0  0  0  0  0  0  0  0
  159.2705  142.3382  183.2959 O   0  0  0  0  0  0  0  0  0  0  0  0
  158.3067  143.1206  182.6853 C   0  0  0  0  0  0  0  0  0  0  0  0
  156.8920  142.6015  182.8464 C   0  0  0  0  0  0  0  0  0  0  0  0
  154.6331  138.0046  185.5226 N   0  0  0  0  0  0  0  0  0  0  0  0
  154.1201  137.0512  185.2834 H   0  0  0  0  0  0  0  0  0  0  0  0
  155.0702  138.3237  189.6253 C   0  0  0  0  0  0  0  0  0  0  0  0
  156.1661  137.9512  188.8983 C   0  0  0  0  0  0  0  0  0  0  0  0
  156.0416  137.8485  187.4949 C   0  0  0  0  0  0  0  0  0  0  0  0
  154.8444  138.1218  186.8823 C   0  0  0  0  0  0  0  0  0  0  0  0
  153.7600  138.4978  187.6728 C   0  0  0  0  0  0  0  0  0  0  0  0
  153.8816  138.5943  189.0161 C   0  0  0  0  0  0  0  0  0  0  0  0
  154.9681  139.7245  191.5794 F   0  0  0  0  0  0  0  0  0  0  0  0
  155.0938  138.4722  191.1284 C   0  0  0  0  0  0  0  0  0  0  0  0
  156.3259  137.9764  191.5244 F   0  0  0  0  0  0  0  0  0  0  0  0
  154.1270  137.6186  191.7009 F   0  0  0  0  0  0  0  0  0  0  0  0
 36 37  1  0  0  0
 37 38  1  0  0  0
 37 39  1  0  0  0
 37 30  1  0  0  0
 30 31  2  0  0  0
 31 32  1  0  0  0
 32 33  2  0  0  0
 33 28  1  0  0  0
 28  1  1  0  0  0
  1  2  2  0  0  0
  2  3  1  0  0  0
  3  4  2  0  0  0
  4  5  1  0  0  0
  5  6  1  0  0  0
  6  7  1  0  0  0
  7  8  1  0  0  0
  8  9  1  0  0  0
  9 10  1  0  0  0
 10 11  1  0  0  0
  8 12  1  0  0  0
 12 13  2  0  0  0
 13 14  1  0  0  0
 14 15  2  0  0  0
 15 16  1  0  0  0
 16 17  2  0  0  0
 17 18  1  0  0  0
 18 19  1  0  0  0
 18 20  1  0  0  0
 18 21  1  0  0  0
  3 22  1  0  0  0
 22 23  1  0  0  0
 23 24  1  0  0  0
 24 25  1  0  0  0
 25 26  1  0  0  0
 26 27  1  0  0  0
 33 34  1  0  0  0
 34 35  2  0  0  0
 35 30  1  0  0  0
 11  1  1  0  0  0
 17 12  1  0  0  0
 27 22  1  0  0  0
 11  5  2  0  0  0
 28 29  1  0  0  0
M  END
> <minimizedAffinity>
-10.24296

> <CNNscore>
0.4876005948

> <CNNaffinity>
6.8058776855

> <CNN_VS>
3.3185501099

> <CNNaffinity_variance>
0.0492795184

$$$$
[H]c1nc(N2C([H])([H])C([H])([H])c3nc(N4C([H])([H])C([H])([H])OC([H])([H])C4([H])[H])nc(N([H])c4c([H])c([H])c(C(F)(F)F)c([H])c4[H])c3C([H])([H])C2([H])[H])c(C(F)(F)F)c([H])c1[H]


 39 43  0  0  0  0  0  0  0  0999 V2000
  154.8933  138.6759  184.3925 C   0  0  0  0  0  0  0  0  0  0  0  0
  153.9167  138.5025  183.4774 N   0  0  0  0  0  0  0  0  0  0  0  0
  152.7103  137.9862  183.8022 C   0  0  0  0  0  0  0  0  0  0  0  0
  152.4314  137.6184  185.0718 N   0  0  0  0  0  0  0  0  0  0  0  0
  153.3559  137.7554  186.0619 C   0  0  0  0  0  0  0  0  0  0  0  0
  152.8374  137.3649  187.3873 C   0  0  0  0  0  0  0  0  0  0  0  0
  153.6552  136.4031  188.1675 C   0  0  0  0  0  0  0  0  0  0  0  0
  155.0357  136.6190  188.2881 N   0  0  0  0  0  0  0  0  0  0  0  0
  155.9918  137.0713  187.3334 C   0  0  0  0  0  0  0  0  0  0  0  0
  155.7480  138.3391  186.5845 C   0  0  0  0  0  0  0  0  0  0  0  0
  154.5609  138.2760  185.6888 C   0  0  0  0  0  0  0  0  0  0  0  0
  155.6677  136.2405  189.5000 C   0  0  0  0  0  0  0  0  0  0  0  0
  156.3429  135.0129  189.3877 N   0  0  0  0  0  0  0  0  0  0  0  0
  156.9817  134.4715  190.3927 C   0  0  0  0  0  0  0  0  0  0  0  0
  157.0473  135.0569  191.6250 C   0  0  0  0  0  0  0  0  0  0  0  0
  156.3992  136.2610  191.7737 C   0  0  0  0  0  0  0  0  0  0  0  0
  155.7104  136.8414  190.6922 C   0  0  0  0  0  0  0  0  0  0  0  0
  155.0622  138.1773  190.8793 C   0  0  0  0  0  0  0  0  0  0  0  0
  154.8611  138.8660  189.7256 F   0  0  0  0  0  0  0  0  0  0  0  0
  156.0343  138.9607  191.5914 F   0  0  0  0  0  0  0  0  0  0  0  0
  153.9746  138.1460  191.7121 F   0  0  0  0  0  0  0  0  0  0  0  0
  151.6489  137.7968  182.8973 N   0  0  0  0  0  0  0  0  0  0  0  0
  151.6304  138.1055  181.4835 C   0  0  0  0  0  0  0  0  0  0  0  0
  150.4922  139.0863  181.1993 C   0  0  0  0  0  0  0  0  0  0  0  0
  149.3351  138.7980  181.8933 O   0  0  0  0  0  0  0  0  0  0  0  0
  149.3404  137.4946  182.3570 C   0  0  0  0  0  0  0  0  0  0  0  0
  150.4043  137.2102  183.3983 C   0  0  0  0  0  0  0  0  0  0  0  0
  156.1252  139.3286  184.2023 N   0  0  0  0  0  0  0  0  0  0  0  0
  156.6983  139.3765  185.1502 H   0  0  0  0  0  0  0  0  0  0  0  0
  157.9657  141.5709  181.2511 C   0  0  0  0  0  0  0  0  0  0  0  0
  158.6305  140.4722  181.7195 C   0  0  0  0  0  0  0  0  0  0  0  0
  158.0141  139.6859  182.7182 C   0  0  0  0  0  0  0  0  0  0  0  0
  156.7739  140.0222  183.1997 C   0  0  0  0  0  0  0  0  0  0  0  0
  156.1417  141.1528  182.6855 C   0  0  0  0  0  0  0  0  0  0  0  0
  156.7343  141.9044  181.7303 C   0  0  0  0  0  0  0  0  0  0  0  0
  159.8561  142.6252  180.1995 F   0  0  0  0  0  0  0  0  0  0  0  0
  158.5278  142.4758  180.1800 C   0  0  0  0  0  0  0  0  0  0  0  0
  157.9362  143.7100  180.3983 F   0  0  0  0  0  0  0  0  0  0  0  0
  158.0759  142.0445  178.9147 F   0  0  0  0  0  0  0  0  0  0  0  0
 36 37  1  0  0  0
 37 38  1  0  0  0
 37 39  1  0  0  0
 37 30  1  0  0  0
 30 31  2  0  0  0
 31 32  1  0  0  0
 32 33  2  0  0  0
 33 28  1  0  0  0
 28  1  1  0  0  0
  1  2  2  0  0  0
  2  3  1  0  0  0
  3  4  2  0  0  0
  4  5  1  0  0  0
  5  6  1  0  0  0
  6  7  1  0  0  0
  7  8  1  0  0  0
  8  9  1  0  0  0
  9 10  1  0  0  0
 10 11  1  0  0  0
  8 12  1  0  0  0
 12 13  2  0  0  0
 13 14  1  0  0  0
 14 15  2  0  0  0
 15 16  1  0  0  0
 16 17  2  0  0  0
 17 18  1  0  0  0
 18 19  1  0  0  0
 18 20  1  0  0  0
 18 21  1  0  0  0
  3 22  1  0  0  0
 22 23  1  0  0  0
 23 24  1  0  0  0
 24 25  1  0  0  0
 25 26  1  0  0  0
 26 27  1  0  0  0
 33 34  1  0  0  0
 34 35  2  0  0  0
 35 30  1  0  0  0
 11  1  1  0  0  0
 17 12  1  0  0  0
 27 22  1  0  0  0
 11  5  2  0  0  0
 28 29  1  0  0  0
M  END
> <minimizedAffinity>
-9.79795

> <CNNscore>
0.4687476158

> <CNNaffinity>
6.8134269714

> <CNN_VS>
3.1937775612

> <CNNaffinity_variance>
0.1220425144

$$$$
[H]c1nc(N2C([H])([H])C([H])([H])c3nc(N4C([H])([H])C([H])([H])OC([H])([H])C4([H])[H])nc(N([H])c4c([H])c([H])c(C(F)(F)F)c([H])c4[H])c3C([H])([H])C2([H])[H])c(C(F)(F)F)c([H])c1[H]


 39 43  0  0  0  0  0  0  0  0999 V2000
  155.0525  138.7479  184.7631 C   0  0  0  0  0  0  0  0  0  0  0  0
  155.3065  138.3742  186.0347 N   0  0  0  0  0  0  0  0  0  0  0  0
  154.5469  137.4621  186.6817 C   0  0  0  0  0  0  0  0  0  0  0  0
  153.4896  136.8818  186.0730 N   0  0  0  0  0  0  0  0  0  0  0  0
  153.1566  137.1979  184.7912 C   0  0  0  0  0  0  0  0  0  0  0  0
  152.0183  136.4073  184.2839 C   0  0  0  0  0  0  0  0  0  0  0  0
  150.8987  137.1654  183.6720 C   0  0  0  0  0  0  0  0  0  0  0  0
  151.1834  138.1677  182.7332 N   0  0  0  0  0  0  0  0  0  0  0  0
  152.2173  139.1476  182.7058 C   0  0  0  0  0  0  0  0  0  0  0  0
  153.6417  138.7258  182.8506 C   0  0  0  0  0  0  0  0  0  0  0  0
  153.9471  138.1261  184.1782 C   0  0  0  0  0  0  0  0  0  0  0  0
  150.2678  138.3652  181.6683 C   0  0  0  0  0  0  0  0  0  0  0  0
  148.9933  137.8489  181.9590 N   0  0  0  0  0  0  0  0  0  0  0  0
  148.0023  137.9117  181.1074 C   0  0  0  0  0  0  0  0  0  0  0  0
  148.1259  138.4868  179.8748 C   0  0  0  0  0  0  0  0  0  0  0  0
  149.3590  139.0049  179.5541 C   0  0  0  0  0  0  0  0  0  0  0  0
  150.4251  138.9347  180.4703 C   0  0  0  0  0  0  0  0  0  0  0  0
  151.7365  139.5564  180.1048 C   0  0  0  0  0  0  0  0  0  0  0  0
  152.0860  140.6168  180.8790 F   0  0  0  0  0  0  0  0  0  0  0  0
  151.5223  140.1270  178.8031 F   0  0  0  0  0  0  0  0  0  0  0  0
  152.7407  138.6438  179.9151 F   0  0  0  0  0  0  0  0  0  0  0  0
  154.7711  137.0210  187.9994 N   0  0  0  0  0  0  0  0  0  0  0  0
  153.9585  136.1068  188.7730 C   0  0  0  0  0  0  0  0  0  0  0  0
  153.5018  136.8040  190.0550 C   0  0  0  0  0  0  0  0  0  0  0  0
  154.4869  137.5718  190.6413 O   0  0  0  0  0  0  0  0  0  0  0  0
  155.7408  137.2196  190.1748 C   0  0  0  0  0  0  0  0  0  0  0  0
  155.9594  137.5079  188.7031 C   0  0  0  0  0  0  0  0  0  0  0  0
  155.8497  139.5725  183.9480 N   0  0  0  0  0  0  0  0  0  0  0  0
  155.3782  139.7231  182.9559 H   0  0  0  0  0  0  0  0  0  0  0  0
  159.5579  141.3819  184.2650 C   0  0  0  0  0  0  0  0  0  0  0  0
  159.4325  140.3434  183.3849 C   0  0  0  0  0  0  0  0  0  0  0  0
  158.1718  139.7200  183.2523 C   0  0  0  0  0  0  0  0  0  0  0  0
  157.1008  140.1555  183.9916 C   0  0  0  0  0  0  0  0  0  0  0  0
  157.2857  141.2189  184.8732 C   0  0  0  0  0  0  0  0  0  0  0  0
  158.4938  141.8132  184.9991 C   0  0  0  0  0  0  0  0  0  0  0  0
  160.8527  143.4026  184.0891 F   0  0  0  0  0  0  0  0  0  0  0  0
  160.8560  142.1241  184.4796 C   0  0  0  0  0  0  0  0  0  0  0  0
  161.7987  141.4322  183.7356 F   0  0  0  0  0  0  0  0  0  0  0  0
  161.2530  141.9977  185.8277 F   0  0  0  0  0  0  0  0  0  0  0  0
 36 37  1  0  0  0
 37 38  1  0  0  0
 37 39  1  0  0  0
 37 30  1  0  0  0
 30 31  2  0  0  0
 31 32  1  0  0  0
 32 33  2  0  0  0
 33 28  1  0  0  0
 28  1  1  0  0  0
  1  2  2  0  0  0
  2  3  1  0  0  0
  3  4  2  0  0  0
  4  5  1  0  0  0
  5  6  1  0  0  0
  6  7  1  0  0  0
  7  8  1  0  0  0
  8  9  1  0  0  0
  9 10  1  0  0  0
 10 11  1  0  0  0
  8 12  1  0  0  0
 12 13  2  0  0  0
 13 14  1  0  0  0
 14 15  2  0  0  0
 15 16  1  0  0  0
 16 17  2  0  0  0
 17 18  1  0  0  0
 18 19  1  0  0  0
 18 20  1  0  0  0
 18 21  1  0  0  0
  3 22  1  0  0  0
 22 23  1  0  0  0
 23 24  1  0  0  0
 24 25  1  0  0  0
 25 26  1  0  0  0
 26 27  1  0  0  0
 33 34  1  0  0  0
 34 35  2  0  0  0
 35 30  1  0  0  0
 11  1  1  0  0  0
 17 12  1  0  0  0
 27 22  1  0  0  0
 11  5  2  0  0  0
 28 29  1  0  0  0
M  END
> <minimizedAffinity>
-9.14443

> <CNNscore>
0.4072133005

> <CNNaffinity>
6.7596001625

> <CNN_VS>
2.7525990009

> <CNNaffinity_variance>
0.0533787608

$$$$
[H]c1nc(N2C([H])([H])C([H])([H])c3nc(N4C([H])([H])C([H])([H])OC([H])([H])C4([H])[H])nc(N([H])c4c([H])c([H])c(C(F)(F)F)c([H])c4[H])c3C([H])([H])C2([H])[H])c(C(F)(F)F)c([H])c1[H]


 39 43  0  0  0  0  0  0  0  0999 V2000
  154.6959  138.8942  184.3772 C   0  0  0  0  0  0  0  0  0  0  0  0
  153.5076  138.8723  183.7379 N   0  0  0  0  0  0  0  0  0  0  0  0
  153.2909  139.5670  182.5986 C   0  0  0  0  0  0  0  0  0  0  0  0
  154.2679  140.3205  182.0484 N   0  0  0  0  0  0  0  0  0  0  0  0
  155.4989  140.4040  182.6241 C   0  0  0  0  0  0  0  0  0  0  0  0
  156.4455  141.2170  181.8360 C   0  0  0  0  0  0  0  0  0  0  0  0
  157.1680  142.2914  182.5615 C   0  0  0  0  0  0  0  0  0  0  0  0
  157.7689  141.9997  183.7947 N   0  0  0  0  0  0  0  0  0  0  0  0
  157.3147  141.2000  184.8829 C   0  0  0  0  0  0  0  0  0  0  0  0
  156.8805  139.7932  184.6375 C   0  0  0  0  0  0  0  0  0  0  0  0
  155.6720  139.6910  183.7747 C   0  0  0  0  0  0  0  0  0  0  0  0
  158.9774  142.6653  184.1230 C   0  0  0  0  0  0  0  0  0  0  0  0
  159.6325  142.0715  185.2156 N   0  0  0  0  0  0  0  0  0  0  0  0
  160.7581  142.5365  185.6931 C   0  0  0  0  0  0  0  0  0  0  0  0
  161.3863  143.6289  185.1663 C   0  0  0  0  0  0  0  0  0  0  0  0
  160.7757  144.2370  184.0943 C   0  0  0  0  0  0  0  0  0  0  0  0
  159.5635  143.7371  183.5827 C   0  0  0  0  0  0  0  0  0  0  0  0
  158.9576  144.3948  182.3827 C   0  0  0  0  0  0  0  0  0  0  0  0
  159.0648  143.6724  181.2372 F   0  0  0  0  0  0  0  0  0  0  0  0
  159.7758  145.5525  182.1461 F   0  0  0  0  0  0  0  0  0  0  0  0
  157.7061  144.9038  182.6112 F   0  0  0  0  0  0  0  0  0  0  0  0
  152.0811  139.5709  181.8791 N   0  0  0  0  0  0  0  0  0  0  0  0
  150.8545  138.8797  182.2139 C   0  0  0  0  0  0  0  0  0  0  0  0
  150.4770  137.9435  181.0652 C   0  0  0  0  0  0  0  0  0  0  0  0
  150.6792  138.4981  179.8181 O   0  0  0  0  0  0  0  0  0  0  0  0
  150.7862  139.8753  179.8935 C   0  0  0  0  0  0  0  0  0  0  0  0
  152.0056  140.3630  180.6499 C   0  0  0  0  0  0  0  0  0  0  0  0
  155.0785  138.1079  185.4795 N   0  0  0  0  0  0  0  0  0  0  0  0
  155.4979  137.1370  185.1466 H   0  0  0  0  0  0  0  0  0  0  0  0
  154.9779  138.2787  189.6130 C   0  0  0  0  0  0  0  0  0  0  0  0
  153.8297  138.5855  188.9379 C   0  0  0  0  0  0  0  0  0  0  0  0
  153.8391  138.5211  187.5267 C   0  0  0  0  0  0  0  0  0  0  0  0
  154.9788  138.1545  186.8561 C   0  0  0  0  0  0  0  0  0  0  0  0
  156.1208  137.8519  187.5953 C   0  0  0  0  0  0  0  0  0  0  0  0
  156.1095  137.9153  188.9460 C   0  0  0  0  0  0  0  0  0  0  0  0
  154.1436  137.6008  191.7659 F   0  0  0  0  0  0  0  0  0  0  0  0
  155.0769  138.3072  191.1201 C   0  0  0  0  0  0  0  0  0  0  0  0
  154.9474  139.6423  191.4686 F   0  0  0  0  0  0  0  0  0  0  0  0
  156.3770  137.9251  191.5137 F   0  0  0  0  0  0  0  0  0  0  0  0
 36 37  1  0  0  0
 37 38  1  0  0  0
 37 39  1  0  0  0
 37 30  1  0  0  0
 30 31  2  0  0  0
 31 32  1  0  0  0
 32 33  2  0  0  0
 33 28  1  0  0  0
 28  1  1  0  0  0
  1  2  2  0  0  0
  2  3  1  0  0  0
  3  4  2  0  0  0
  4  5  1  0  0  0
  5  6  1  0  0  0
  6  7  1  0  0  0
  7  8  1  0  0  0
  8  9  1  0  0  0
  9 10  1  0  0  0
 10 11  1  0  0  0
  8 12  1  0  0  0
 12 13  2  0  0  0
 13 14  1  0  0  0
 14 15  2  0  0  0
 15 16  1  0  0  0
 16 17  2  0  0  0
 17 18  1  0  0  0
 18 19  1  0  0  0
 18 20  1  0  0  0
 18 21  1  0  0  0
  3 22  1  0  0  0
 22 23  1  0  0  0
 23 24  1  0  0  0
 24 25  1  0  0  0
 25 26  1  0  0  0
 26 27  1  0  0  0
 33 34  1  0  0  0
 34 35  2  0  0  0
 35 30  1  0  0  0
 11  1  1  0  0  0
 17 12  1  0  0  0
 27 22  1  0  0  0
 11  5  2  0  0  0
 28 29  1  0  0  0
M  END
> <minimizedAffinity>
-11.38293

> <CNNscore>
0.3826715648

> <CNNaffinity>
7.3459572792

> <CNN_VS>
2.8110890388

> <CNNaffinity_variance>
0.0129677923

$$$$
[H]c1nc(N2C([H])([H])C([H])([H])c3nc(N4C([H])([H])C([H])([H])OC([H])([H])C4([H])[H])nc(N([H])c4c([H])c([H])c(C(F)(F)F)c([H])c4[H])c3C([H])([H])C2([H])[H])c(C(F)(F)F)c([H])c1[H]


 39 43  0  0  0  0  0  0  0  0999 V2000
  153.3681  138.0203  184.6313 C   0  0  0  0  0  0  0  0  0  0  0  0
  152.0816  137.6687  184.4247 N   0  0  0  0  0  0  0  0  0  0  0  0
  151.3813  138.1010  183.3522 C   0  0  0  0  0  0  0  0  0  0  0  0
  151.9489  138.9128  182.4335 N   0  0  0  0  0  0  0  0  0  0  0  0
  153.2417  139.3206  182.5598 C   0  0  0  0  0  0  0  0  0  0  0  0
  153.6965  140.1425  181.4216 C   0  0  0  0  0  0  0  0  0  0  0  0
  154.3351  141.4416  181.7489 C   0  0  0  0  0  0  0  0  0  0  0  0
  155.3268  141.4861  182.7397 N   0  0  0  0  0  0  0  0  0  0  0  0
  155.4146  140.8200  183.9961 C   0  0  0  0  0  0  0  0  0  0  0  0
  155.2627  139.3366  184.0603 C   0  0  0  0  0  0  0  0  0  0  0  0
  153.9093  138.8645  183.6592 C   0  0  0  0  0  0  0  0  0  0  0  0
  156.3912  142.4094  182.5786 C   0  0  0  0  0  0  0  0  0  0  0  0
  155.9384  143.7385  182.5159 N   0  0  0  0  0  0  0  0  0  0  0  0
  156.7542  144.7484  182.3547 C   0  0  0  0  0  0  0  0  0  0  0  0
  158.1062  144.5921  182.2404 C   0  0  0  0  0  0  0  0  0  0  0  0
  158.5877  143.3049  182.2984 C   0  0  0  0  0  0  0  0  0  0  0  0
  157.7088  142.2190  182.4696 C   0  0  0  0  0  0  0  0  0  0  0  0
  158.2760  140.8385  182.5804 C   0  0  0  0  0  0  0  0  0  0  0  0
  158.4292  140.3993  183.8569 F   0  0  0  0  0  0  0  0  0  0  0  0
  159.6202  140.9529  182.0844 F   0  0  0  0  0  0  0  0  0  0  0  0
  157.6801  139.9332  181.7422 F   0  0  0  0  0  0  0  0  0  0  0  0
  150.0450  137.7565  183.0747 N   0  0  0  0  0  0  0  0  0  0  0  0
  149.1503  138.3885  182.1289 C   0  0  0  0  0  0  0  0  0  0  0  0
  147.9098  138.8891  182.8698 C   0  0  0  0  0  0  0  0  0  0  0  0
  147.4491  138.0062  183.8248 O   0  0  0  0  0  0  0  0  0  0  0  0
  147.9534  136.7349  183.6167 C   0  0  0  0  0  0  0  0  0  0  0  0
  149.4547  136.6258  183.7937 C   0  0  0  0  0  0  0  0  0  0  0  0
  154.2322  137.5233  185.6243 N   0  0  0  0  0  0  0  0  0  0  0  0
  154.8879  136.7278  185.2164 H   0  0  0  0  0  0  0  0  0  0  0  0
  154.9651  138.0485  189.6631 C   0  0  0  0  0  0  0  0  0  0  0  0
  153.6672  137.8722  189.2722 C   0  0  0  0  0  0  0  0  0  0  0  0
  153.3966  137.6786  187.8993 C   0  0  0  0  0  0  0  0  0  0  0  0
  154.4198  137.6657  186.9851 C   0  0  0  0  0  0  0  0  0  0  0  0
  155.7243  137.8499  187.4397 C   0  0  0  0  0  0  0  0  0  0  0  0
  155.9806  138.0361  188.7543 C   0  0  0  0  0  0  0  0  0  0  0  0
  156.6127  137.8749  191.4085 F   0  0  0  0  0  0  0  0  0  0  0  0
  155.3677  138.2554  191.1043 C   0  0  0  0  0  0  0  0  0  0  0  0
  154.4751  137.4964  191.8446 F   0  0  0  0  0  0  0  0  0  0  0  0
  155.1352  139.5984  191.4698 F   0  0  0  0  0  0  0  0  0  0  0  0
 36 37  1  0  0  0
 37 38  1  0  0  0
 37 39  1  0  0  0
 37 30  1  0  0  0
 30 31  2  0  0  0
 31 32  1  0  0  0
 32 33  2  0  0  0
 33 28  1  0  0  0
 28  1  1  0  0  0
  1  2  2  0  0  0
  2  3  1  0  0  0
  3  4  2  0  0  0
  4  5  1  0  0  0
  5  6  1  0  0  0
  6  7  1  0  0  0
  7  8  1  0  0  0
  8  9  1  0  0  0
  9 10  1  0  0  0
 10 11  1  0  0  0
  8 12  1  0  0  0
 12 13  2  0  0  0
 13 14  1  0  0  0
 14 15  2  0  0  0
 15 16  1  0  0  0
 16 17  2  0  0  0
 17 18  1  0  0  0
 18 19  1  0  0  0
 18 20  1  0  0  0
 18 21  1  0  0  0
  3 22  1  0  0  0
 22 23  1  0  0  0
 23 24  1  0  0  0
 24 25  1  0  0  0
 25 26  1  0  0  0
 26 27  1  0  0  0
 33 34  1  0  0  0
 34 35  2  0  0  0
 35 30  1  0  0  0
 11  1  1  0  0  0
 17 12  1  0  0  0
 27 22  1  0  0  0
 11  5  2  0  0  0
 28 29  1  0  0  0
M  END
> <minimizedAffinity>
-9.05976

> <CNNscore>
0.3333359659

> <CNNaffinity>
6.9355177879

> <CNN_VS>
2.3118574619

> <CNNaffinity_variance>
0.0492534041

$$$$
[H]c1nc(N2C([H])([H])C([H])([H])c3nc(N4C([H])([H])C([H])([H])OC([H])([H])C4([H])[H])nc(N([H])c4c([H])c([H])c(C(F)(F)F)c([H])c4[H])c3C([H])([H])C2([H])[H])c(C(F)(F)F)c([H])c1[H]


 39 43  0  0  0  0  0  0  0  0999 V2000
  155.1884  138.9090  184.4369 C   0  0  0  0  0  0  0  0  0  0  0  0
  156.3534  139.4977  184.0942 N   0  0  0  0  0  0  0  0  0  0  0  0
  156.4303  140.4214  183.1102 C   0  0  0  0  0  0  0  0  0  0  0  0
  155.3297  140.7961  182.4221 N   0  0  0  0  0  0  0  0  0  0  0  0
  154.1111  140.2551  182.6975 C   0  0  0  0  0  0  0  0  0  0  0  0
  153.0269  140.8443  181.8881 C   0  0  0  0  0  0  0  0  0  0  0  0
  152.1392  139.8966  181.1695 C   0  0  0  0  0  0  0  0  0  0  0  0
  151.6153  138.7933  181.8588 N   0  0  0  0  0  0  0  0  0  0  0  0
  152.2165  137.9250  182.8152 C   0  0  0  0  0  0  0  0  0  0  0  0
  152.8847  138.4992  184.0199 C   0  0  0  0  0  0  0  0  0  0  0  0
  154.0804  139.3236  183.6944 C   0  0  0  0  0  0  0  0  0  0  0  0
  150.3143  138.3462  181.5139 C   0  0  0  0  0  0  0  0  0  0  0  0
  149.4088  139.4102  181.3604 N   0  0  0  0  0  0  0  0  0  0  0  0
  148.1507  139.2196  181.0571 C   0  0  0  0  0  0  0  0  0  0  0  0
  147.6205  137.9762  180.8611 C   0  0  0  0  0  0  0  0  0  0  0  0
  148.4767  136.9089  181.0016 C   0  0  0  0  0  0  0  0  0  0  0  0
  149.8297  137.1151  181.3301 C   0  0  0  0  0  0  0  0  0  0  0  0
  150.7412  135.9317  181.4225 C   0  0  0  0  0  0  0  0  0  0  0  0
  151.9640  136.1247  180.8630 F   0  0  0  0  0  0  0  0  0  0  0  0
  150.1288  134.9308  180.5924 F   0  0  0  0  0  0  0  0  0  0  0  0
  150.7766  135.3643  182.6692 F   0  0  0  0  0  0  0  0  0  0  0  0
  157.6109  141.0806  182.7191 N   0  0  0  0  0  0  0  0  0  0  0  0
  158.9056  140.4888  182.4586 C   0  0  0  0  0  0  0  0  0  0  0  0
  159.9426  141.1231  183.3864 C   0  0  0  0  0  0  0  0  0  0  0  0
  159.7849  142.4859  183.5331 O   0  0  0  0  0  0  0  0  0  0  0  0
  159.0043  143.0121  182.5194 C   0  0  0  0  0  0  0  0  0  0  0  0
  157.5669  142.5319  182.5295 C   0  0  0  0  0  0  0  0  0  0  0  0
  154.9634  138.0489  185.5275 N   0  0  0  0  0  0  0  0  0  0  0  0
  154.6461  137.0448  185.1808 H   0  0  0  0  0  0  0  0  0  0  0  0
  155.0244  138.3326  189.6556 C   0  0  0  0  0  0  0  0  0  0  0  0
  153.8384  138.5757  189.0211 C   0  0  0  0  0  0  0  0  0  0  0  0
  153.7930  138.4719  187.6129 C   0  0  0  0  0  0  0  0  0  0  0  0
  154.9181  138.1306  186.9053 C   0  0  0  0  0  0  0  0  0  0  0  0
  156.1003  137.8931  187.6040 C   0  0  0  0  0  0  0  0  0  0  0  0
  156.1414  137.9942  188.9518 C   0  0  0  0  0  0  0  0  0  0  0  0
  156.3094  137.8709  191.6372 F   0  0  0  0  0  0  0  0  0  0  0  0
  155.1834  138.4075  191.1559 C   0  0  0  0  0  0  0  0  0  0  0  0
  154.1012  137.7125  191.6722 F   0  0  0  0  0  0  0  0  0  0  0  0
  155.0272  139.7443  191.5796 F   0  0  0  0  0  0  0  0  0  0  0  0
 36 37  1  0  0  0
 37 38  1  0  0  0
 37 39  1  0  0  0
 37 30  1  0  0  0
 30 31  2  0  0  0
 31 32  1  0  0  0
 32 33  2  0  0  0
 33 28  1  0  0  0
 28  1  1  0  0  0
  1  2  2  0  0  0
  2  3  1  0  0  0
  3  4  2  0  0  0
  4  5  1  0  0  0
  5  6  1  0  0  0
  6  7  1  0  0  0
  7  8  1  0  0  0
  8  9  1  0  0  0
  9 10  1  0  0  0
 10 11  1  0  0  0
  8 12  1  0  0  0
 12 13  2  0  0  0
 13 14  1  0  0  0
 14 15  2  0  0  0
 15 16  1  0  0  0
 16 17  2  0  0  0
 17 18  1  0  0  0
 18 19  1  0  0  0
 18 20  1  0  0  0
 18 21  1  0  0  0
  3 22  1  0  0  0
 22 23  1  0  0  0
 23 24  1  0  0  0
 24 25  1  0  0  0
 25 26  1  0  0  0
 26 27  1  0  0  0
 33 34  1  0  0  0
 34 35  2  0  0  0
 35 30  1  0  0  0
 11  1  1  0  0  0
 17 12  1  0  0  0
 27 22  1  0  0  0
 11  5  2  0  0  0
 28 29  1  0  0  0
M  END
> <minimizedAffinity>
-10.06906

> <CNNscore>
0.3311087489

> <CNNaffinity>
6.7114496231

> <CNN_VS>
2.2222197056

> <CNNaffinity_variance>
0.0426490046

$$$$
[H]c1nc(N2C([H])([H])C([H])([H])c3nc(N4C([H])([H])C([H])([H])OC([H])([H])C4([H])[H])nc(N([H])c4c([H])c([H])c(C(F)(F)F)c([H])c4[H])c3C([H])([H])C2([H])[H])c(C(F)(F)F)c([H])c1[H]


 39 43  0  0  0  0  0  0  0  0999 V2000
  154.8770  138.9917  184.9621 C   0  0  0  0  0  0  0  0  0  0  0  0
  156.0047  139.6868  184.7047 N   0  0  0  0  0  0  0  0  0  0  0  0
  156.1632  140.4060  183.5710 C   0  0  0  0  0  0  0  0  0  0  0  0
  155.1866  140.4574  182.6390 N   0  0  0  0  0  0  0  0  0  0  0  0
  154.0145  139.7866  182.8122 C   0  0  0  0  0  0  0  0  0  0  0  0
  153.0515  140.0253  181.7197 C   0  0  0  0  0  0  0  0  0  0  0  0
  152.4524  138.8256  181.0836 C   0  0  0  0  0  0  0  0  0  0  0  0
  151.9415  137.8033  181.8965 N   0  0  0  0  0  0  0  0  0  0  0  0
  152.4403  137.2436  183.1081 C   0  0  0  0  0  0  0  0  0  0  0  0
  152.7745  138.1384  184.2549 C   0  0  0  0  0  0  0  0  0  0  0  0
  153.8992  139.0700  183.9679 C   0  0  0  0  0  0  0  0  0  0  0  0
  150.8031  137.0919  181.4391 C   0  0  0  0  0  0  0  0  0  0  0  0
  151.0361  135.7081  181.3601 N   0  0  0  0  0  0  0  0  0  0  0  0
  150.1228  134.8675  180.9473 C   0  0  0  0  0  0  0  0  0  0  0  0
  148.8731  135.2661  180.5666 C   0  0  0  0  0  0  0  0  0  0  0  0
  148.6067  136.6139  180.6313 C   0  0  0  0  0  0  0  0  0  0  0  0
  149.5909  137.5176  181.0736 C   0  0  0  0  0  0  0  0  0  0  0  0
  149.2455  138.9700  181.1798 C   0  0  0  0  0  0  0  0  0  0  0  0
  149.3704  139.4828  182.4316 F   0  0  0  0  0  0  0  0  0  0  0  0
  147.8345  139.0323  180.9135 F   0  0  0  0  0  0  0  0  0  0  0  0
  149.8112  139.7401  180.1979 F   0  0  0  0  0  0  0  0  0  0  0  0
  157.3071  141.1627  183.2544 N   0  0  0  0  0  0  0  0  0  0  0  0
  157.3637  142.5595  182.8796 C   0  0  0  0  0  0  0  0  0  0  0  0
  158.0196  142.6832  181.5038 C   0  0  0  0  0  0  0  0  0  0  0  0
  159.1012  141.8432  181.3355 O   0  0  0  0  0  0  0  0  0  0  0  0
  159.5801  141.3929  182.5528 C   0  0  0  0  0  0  0  0  0  0  0  0
  158.6138  140.5044  183.3101 C   0  0  0  0  0  0  0  0  0  0  0  0
  154.5451  138.3302  186.1588 N   0  0  0  0  0  0  0  0  0  0  0  0
  153.5142  138.5837  186.4785 H   0  0  0  0  0  0  0  0  0  0  0  0
  156.4707  135.8431  188.8480 C   0  0  0  0  0  0  0  0  0  0  0  0
  156.4063  137.1746  189.1503 C   0  0  0  0  0  0  0  0  0  0  0  0
  155.7423  138.0390  188.2516 C   0  0  0  0  0  0  0  0  0  0  0  0
  155.1742  137.5446  187.1045 C   0  0  0  0  0  0  0  0  0  0  0  0
  155.2696  136.1783  186.8469 C   0  0  0  0  0  0  0  0  0  0  0  0
  155.9066  135.3532  187.7082 C   0  0  0  0  0  0  0  0  0  0  0  0
  157.2683  135.1905  191.0226 F   0  0  0  0  0  0  0  0  0  0  0  0
  157.1483  134.8303  189.7407 C   0  0  0  0  0  0  0  0  0  0  0  0
  158.4147  134.6608  189.2039 F   0  0  0  0  0  0  0  0  0  0  0  0
  156.5003  133.5832  189.6141 F   0  0  0  0  0  0  0  0  0  0  0  0
 36 37  1  0  0  0
 37 38  1  0  0  0
 37 39  1  0  0  0
 37 30  1  0  0  0
 30 31  2  0  0  0
 31 32  1  0  0  0
 32 33  2  0  0  0
 33 28  1  0  0  0
 28  1  1  0  0  0
  1  2  2  0  0  0
  2  3  1  0  0  0
  3  4  2  0  0  0
  4  5  1  0  0  0
  5  6  1  0  0  0
  6  7  1  0  0  0
  7  8  1  0  0  0
  8  9  1  0  0  0
  9 10  1  0  0  0
 10 11  1  0  0  0
  8 12  1  0  0  0
 12 13  2  0  0  0
 13 14  1  0  0  0
 14 15  2  0  0  0
 15 16  1  0  0  0
 16 17  2  0  0  0
 17 18  1  0  0  0
 18 19  1  0  0  0
 18 20  1  0  0  0
 18 21  1  0  0  0
  3 22  1  0  0  0
 22 23  1  0  0  0
 23 24  1  0  0  0
 24 25  1  0  0  0
 25 26  1  0  0  0
 26 27  1  0  0  0
 33 34  1  0  0  0
 34 35  2  0  0  0
 35 30  1  0  0  0
 11  1  1  0  0  0
 17 12  1  0  0  0
 27 22  1  0  0  0
 11  5  2  0  0  0
 28 29  1  0  0  0
M  END
> <minimizedAffinity>
-8.33501

> <CNNscore>
0.3025138080

> <CNNaffinity>
6.5350174904

> <CNN_VS>
1.9769330025

> <CNNaffinity_variance>
0.0432915650

$$$$
[H]c1nc(N2C([H])([H])C([H])([H])c3nc(N4C([H])([H])C([H])([H])OC([H])([H])C4([H])[H])nc(N([H])c4c([H])c([H])c(C(F)(F)F)c([H])c4[H])c3C([H])([H])C2([H])[H])c(C(F)(F)F)c([H])c1[H]


 39 43  0  0  0  0  0  0  0  0999 V2000
  153.8352  138.9357  183.8943 C   0  0  0  0  0  0  0  0  0  0  0  0
  154.5279  139.9198  183.2835 N   0  0  0  0  0  0  0  0  0  0  0  0
  155.7599  140.2943  183.6951 C   0  0  0  0  0  0  0  0  0  0  0  0
  156.3536  139.6909  184.7479 N   0  0  0  0  0  0  0  0  0  0  0  0
  155.7299  138.6887  185.4264 C   0  0  0  0  0  0  0  0  0  0  0  0
  156.5685  138.1129  186.4955 C   0  0  0  0  0  0  0  0  0  0  0  0
  155.9563  138.0130  187.8438 C   0  0  0  0  0  0  0  0  0  0  0  0
  154.6651  137.4807  187.9712 N   0  0  0  0  0  0  0  0  0  0  0  0
  153.5051  137.6543  187.1623 C   0  0  0  0  0  0  0  0  0  0  0  0
  153.5824  137.4030  185.6931 C   0  0  0  0  0  0  0  0  0  0  0  0
  154.4865  138.3462  184.9802 C   0  0  0  0  0  0  0  0  0  0  0  0
  154.3653  136.7259  189.1339 C   0  0  0  0  0  0  0  0  0  0  0  0
  153.9482  135.4191  188.8275 N   0  0  0  0  0  0  0  0  0  0  0  0
  153.6086  134.5584  189.7523 C   0  0  0  0  0  0  0  0  0  0  0  0
  153.6375  134.8589  191.0844 C   0  0  0  0  0  0  0  0  0  0  0  0
  154.0420  136.1290  191.4239 C   0  0  0  0  0  0  0  0  0  0  0  0
  154.4050  137.0548  190.4279 C   0  0  0  0  0  0  0  0  0  0  0  0
  154.8896  138.4095  190.8401 C   0  0  0  0  0  0  0  0  0  0  0  0
  156.2257  138.4754  191.0771 F   0  0  0  0  0  0  0  0  0  0  0  0
  154.2926  138.6370  192.1275 F   0  0  0  0  0  0  0  0  0  0  0  0
  154.4068  139.4249  190.0571 F   0  0  0  0  0  0  0  0  0  0  0  0
  156.5364  141.3004  183.0899 N   0  0  0  0  0  0  0  0  0  0  0  0
  156.4084  141.8244  181.7470 C   0  0  0  0  0  0  0  0  0  0  0  0
  157.7306  141.6287  181.0043 C   0  0  0  0  0  0  0  0  0  0  0  0
  158.8395  141.8915  181.7821 O   0  0  0  0  0  0  0  0  0  0  0  0
  158.5046  142.6422  182.8948 C   0  0  0  0  0  0  0  0  0  0  0  0
  157.6003  141.9261  183.8778 C   0  0  0  0  0  0  0  0  0  0  0  0
  152.6188  138.3689  183.4716 N   0  0  0  0  0  0  0  0  0  0  0  0
  152.2903  137.5715  184.1684 H   0  0  0  0  0  0  0  0  0  0  0  0
  149.9897  138.4462  180.2767 C   0  0  0  0  0  0  0  0  0  0  0  0
  150.6511  139.6030  180.5814 C   0  0  0  0  0  0  0  0  0  0  0  0
  151.5626  139.5948  181.6606 C   0  0  0  0  0  0  0  0  0  0  0  0
  151.7763  138.4459  182.3800 C   0  0  0  0  0  0  0  0  0  0  0  0
  151.0750  137.2952  182.0250 C   0  0  0  0  0  0  0  0  0  0  0  0
  150.2022  137.3060  180.9923 C   0  0  0  0  0  0  0  0  0  0  0  0
  149.3622  138.9588  178.0108 F   0  0  0  0  0  0  0  0  0  0  0  0
  149.0006  138.3410  179.1399 C   0  0  0  0  0  0  0  0  0  0  0  0
  147.8362  138.9236  179.6147 F   0  0  0  0  0  0  0  0  0  0  0  0
  148.6919  136.9836  178.9088 F   0  0  0  0  0  0  0  0  0  0  0  0
 36 37  1  0  0  0
 37 38  1  0  0  0
 37 39  1  0  0  0
 37 30  1  0  0  0
 30 31  2  0  0  0
 31 32  1  0  0  0
 32 33  2  0  0  0
 33 28  1  0  0  0
 28  1  1  0  0  0
  1  2  2  0  0  0
  2  3  1  0  0  0
  3  4  2  0  0  0
  4  5  1  0  0  0
  5  6  1  0  0  0
  6  7  1  0  0  0
  7  8  1  0  0  0
  8  9  1  0  0  0
  9 10  1  0  0  0
 10 11  1  0  0  0
  8 12  1  0  0  0
 12 13  2  0  0  0
 13 14  1  0  0  0
 14 15  2  0  0  0
 15 16  1  0  0  0
 16 17  2  0  0  0
 17 18  1  0  0  0
 18 19  1  0  0  0
 18 20  1  0  0  0
 18 21  1  0  0  0
  3 22  1  0  0  0
 22 23  1  0  0  0
 23 24  1  0  0  0
 24 25  1  0  0  0
 25 26  1  0  0  0
 26 27  1  0  0  0
 33 34  1  0  0  0
 34 35  2  0  0  0
 35 30  1  0  0  0
 11  1  1  0  0  0
 17 12  1  0  0  0
 27 22  1  0  0  0
 11  5  2  0  0  0
 28 29  1  0  0  0
M  END
> <minimizedAffinity>
-8.84401

> <CNNscore>
0.3016816080

> <CNNaffinity>
6.6273574829

> <CNN_VS>
1.9993518591

> <CNNaffinity_variance>
0.0384664945

$$$$
[H]c1nc(N2C([H])([H])C([H])([H])c3nc(N4C([H])([H])C([H])([H])C([H])([H])C([H])([H])C4([H])[H])nc(N([H])c4c([H])c([H])c(C(F)(F)F)c([H])c4[H])c3C([H])([H])C2([H])[H])c(C(F)(F)F)c([H])c1[H]


 39 43  0  0  0  0  0  0  0  0999 V2000
  154.1125  136.5425  184.5337 C   0  0  0  0  0  0  0  0  0  0  0  0
  154.3017  135.5375  183.6479 N   0  0  0  0  0  0  0  0  0  0  0  0
  154.6782  134.2787  184.0010 C   0  0  0  0  0  0  0  0  0  0  0  0
  154.8790  133.9830  185.2956 N   0  0  0  0  0  0  0  0  0  0  0  0
  154.7183  134.9111  186.2339 C   0  0  0  0  0  0  0  0  0  0  0  0
  154.8997  134.4776  187.6434 C   0  0  0  0  0  0  0  0  0  0  0  0
  153.5762  134.8064  188.3771 C   0  0  0  0  0  0  0  0  0  0  0  0
  153.3356  136.1681  188.6489 N   0  0  0  0  0  0  0  0  0  0  0  0
  153.3092  137.3673  187.8153 C   0  0  0  0  0  0  0  0  0  0  0  0
  154.3261  137.3398  186.7406 C   0  0  0  0  0  0  0  0  0  0  0  0
  154.3421  136.1828  185.8484 C   0  0  0  0  0  0  0  0  0  0  0  0
  153.0738  136.5277  189.9793 C   0  0  0  0  0  0  0  0  0  0  0  0
  151.7947  136.1825  190.4240 N   0  0  0  0  0  0  0  0  0  0  0  0
  151.4446  136.4796  191.7059 C   0  0  0  0  0  0  0  0  0  0  0  0
  152.2982  137.1033  192.5795 C   0  0  0  0  0  0  0  0  0  0  0  0
  153.5521  137.4291  192.1038 C   0  0  0  0  0  0  0  0  0  0  0  0
  153.9500  137.1386  190.7943 C   0  0  0  0  0  0  0  0  0  0  0  0
  155.3004  137.4819  190.3924 C   0  0  0  0  0  0  0  0  0  0  0  0
  156.0572  136.4420  189.8869 F   0  0  0  0  0  0  0  0  0  0  0  0
  156.0352  137.7900  191.5910 F   0  0  0  0  0  0  0  0  0  0  0  0
  155.4496  138.6426  189.6783 F   0  0  0  0  0  0  0  0  0  0  0  0
  154.9448  133.2836  183.0221 N   0  0  0  0  0  0  0  0  0  0  0  0
  156.2189  132.6367  182.9669 C   0  0  0  0  0  0  0  0  0  0  0  0
  156.6794  132.2745  181.6012 C   0  0  0  0  0  0  0  0  0  0  0  0
  155.5805  131.7748  180.7199 C   0  0  0  0  0  0  0  0  0  0  0  0
  154.4743  132.8065  180.6853 C   0  0  0  0  0  0  0  0  0  0  0  0
  153.8789  133.0018  182.0661 C   0  0  0  0  0  0  0  0  0  0  0  0
  153.5372  137.7952  184.2860 N   0  0  0  0  0  0  0  0  0  0  0  0
  153.5452  138.4321  185.1991 H   0  0  0  0  0  0  0  0  0  0  0  0
  151.4747  139.5219  181.0657 C   0  0  0  0  0  0  0  0  0  0  0  0
  151.0107  138.3753  181.6960 C   0  0  0  0  0  0  0  0  0  0  0  0
  151.7231  137.8718  182.7346 C   0  0  0  0  0  0  0  0  0  0  0  0
  152.8980  138.4152  183.2420 C   0  0  0  0  0  0  0  0  0  0  0  0
  153.3217  139.5457  182.5915 C   0  0  0  0  0  0  0  0  0  0  0  0
  152.6294  140.1129  181.5080 C   0  0  0  0  0  0  0  0  0  0  0  0
  149.5813  139.2826  179.6257 F   0  0  0  0  0  0  0  0  0  0  0  0
  150.6819  140.0343  179.8947 C   0  0  0  0  0  0  0  0  0  0  0  0
  151.4805  140.0538  178.7687 F   0  0  0  0  0  0  0  0  0  0  0  0
  150.3019  141.3496  180.1051 F   0  0  0  0  0  0  0  0  0  0  0  0
 36 37  1  0  0  0
 37 38  1  0  0  0
 37 39  1  0  0  0
 37 30  1  0  0  0
 30 31  2  0  0  0
 31 32  1  0  0  0
 32 33  2  0  0  0
 33 28  1  0  0  0
 28  1  1  0  0  0
  1  2  2  0  0  0
  2  3  1  0  0  0
  3  4  2  0  0  0
  4  5  1  0  0  0
  5  6  1  0  0  0
  6  7  1  0  0  0
  7  8  1  0  0  0
  8  9  1  0  0  0
  9 10  1  0  0  0
 10 11  1  0  0  0
  8 12  1  0  0  0
 12 13  2  0  0  0
 13 14  1  0  0  0
 14 15  2  0  0  0
 15 16  1  0  0  0
 16 17  2  0  0  0
 17 18  1  0  0  0
 18 19  1  0  0  0
 18 20  1  0  0  0
 18 21  1  0  0  0
  3 22  1  0  0  0
 22 23  1  0  0  0
 23 24  1  0  0  0
 24 25  1  0  0  0
 25 26  1  0  0  0
 26 27  1  0  0  0
 33 34  1  0  0  0
 34 35  2  0  0  0
 35 30  1  0  0  0
 11  1  1  0  0  0
 17 12  1  0  0  0
 27 22  1  0  0  0
 11  5  2  0  0  0
 28 29  1  0  0  0
M  END
> <minimizedAffinity>
-7.78561

> <CNNscore>
0.4503832459

> <CNNaffinity>
6.5020089149

> <CNN_VS>
2.9283959866

> <CNNaffinity_variance>
0.0733419508

$$$$
[H]c1nc(N2C([H])([H])C([H])([H])c3nc(N4C([H])([H])C([H])([H])C([H])([H])C([H])([H])C4([H])[H])nc(N([H])c4c([H])c([H])c(C(F)(F)F)c([H])c4[H])c3C([H])([H])C2([H])[H])c(C(F)(F)F)c([H])c1[H]


 39 43  0  0  0  0  0  0  0  0999 V2000
  154.8664  138.7242  184.3974 C   0  0  0  0  0  0  0  0  0  0  0  0
  153.9995  139.0837  183.4230 N   0  0  0  0  0  0  0  0  0  0  0  0
  152.7347  138.5937  183.3171 C   0  0  0  0  0  0  0  0  0  0  0  0
  152.2892  137.7022  184.2175 N   0  0  0  0  0  0  0  0  0  0  0  0
  153.0752  137.2909  185.2076 C   0  0  0  0  0  0  0  0  0  0  0  0
  152.4773  136.3529  186.1925 C   0  0  0  0  0  0  0  0  0  0  0  0
  152.6167  137.0263  187.5800 C   0  0  0  0  0  0  0  0  0  0  0  0
  153.9121  137.0500  188.1344 N   0  0  0  0  0  0  0  0  0  0  0  0
  155.2040  137.5229  187.6436 C   0  0  0  0  0  0  0  0  0  0  0  0
  155.3855  137.2901  186.1935 C   0  0  0  0  0  0  0  0  0  0  0  0
  154.3571  137.7987  185.2888 C   0  0  0  0  0  0  0  0  0  0  0  0
  154.0783  136.5099  189.4183 C   0  0  0  0  0  0  0  0  0  0  0  0
  153.7435  135.1567  189.5174 N   0  0  0  0  0  0  0  0  0  0  0  0
  153.8792  134.5348  190.7212 C   0  0  0  0  0  0  0  0  0  0  0  0
  154.3332  135.1833  191.8410 C   0  0  0  0  0  0  0  0  0  0  0  0
  154.6531  136.5189  191.7041 C   0  0  0  0  0  0  0  0  0  0  0  0
  154.5294  137.1924  190.4840 C   0  0  0  0  0  0  0  0  0  0  0  0
  154.9262  138.5860  190.4232 C   0  0  0  0  0  0  0  0  0  0  0  0
  156.2823  138.8171  190.2912 F   0  0  0  0  0  0  0  0  0  0  0  0
  154.6830  139.1543  191.7229 F   0  0  0  0  0  0  0  0  0  0  0  0
  154.1686  139.4034  189.6248 F   0  0  0  0  0  0  0  0  0  0  0  0
  151.8948  138.9416  182.2248 N   0  0  0  0  0  0  0  0  0  0  0  0
  150.6407  138.2829  182.0295 C   0  0  0  0  0  0  0  0  0  0  0  0
  150.2441  138.0981  180.6093 C   0  0  0  0  0  0  0  0  0  0  0  0
  150.5845  139.2679  179.7434 C   0  0  0  0  0  0  0  0  0  0  0  0
  152.0618  139.5643  179.8809 C   0  0  0  0  0  0  0  0  0  0  0  0
  152.4004  139.9563  181.3059 C   0  0  0  0  0  0  0  0  0  0  0  0
  156.0979  139.3189  184.6997 N   0  0  0  0  0  0  0  0  0  0  0  0
  156.5542  138.8657  185.6085 H   0  0  0  0  0  0  0  0  0  0  0  0
  158.2350  142.5801  183.1497 C   0  0  0  0  0  0  0  0  0  0  0  0
  156.8488  142.5875  183.2232 C   0  0  0  0  0  0  0  0  0  0  0  0
  156.2202  141.5025  183.7401 C   0  0  0  0  0  0  0  0  0  0  0  0
  156.8517  140.3608  184.2208 C   0  0  0  0  0  0  0  0  0  0  0  0
  158.2196  140.3939  184.1297 C   0  0  0  0  0  0  0  0  0  0  0  0
  158.9274  141.4869  183.6011 C   0  0  0  0  0  0  0  0  0  0  0  0
  159.3936  143.5445  181.2940 F   0  0  0  0  0  0  0  0  0  0  0  0
  158.8999  143.7828  182.5383 C   0  0  0  0  0  0  0  0  0  0  0  0
  159.9398  144.1970  183.3464 F   0  0  0  0  0  0  0  0  0  0  0  0
  158.0188  144.8504  182.4881 F   0  0  0  0  0  0  0  0  0  0  0  0
 36 37  1  0  0  0
 37 38  1  0  0  0
 37 39  1  0  0  0
 37 30  1  0  0  0
 30 31  2  0  0  0
 31 32  1  0  0  0
 32 33  2  0  0  0
 33 28  1  0  0  0
 28  1  1  0  0  0
  1  2  2  0  0  0
  2  3  1  0  0  0
  3  4  2  0  0  0
  4  5  1  0  0  0
  5  6  1  0  0  0
  6  7  1  0  0  0
  7  8  1  0  0  0
  8  9  1  0  0  0
  9 10  1  0  0  0
 10 11  1  0  0  0
  8 12  1  0  0  0
 12 13  2  0  0  0
 13 14  1  0  0  0
 14 15  2  0  0  0
 15 16  1  0  0  0
 16 17  2  0  0  0
 17 18  1  0  0  0
 18 19  1  0  0  0
 18 20  1  0  0  0
 18 21  1  0  0  0
  3 22  1  0  0  0
 22 23  1  0  0  0
 23 24  1  0  0  0
 24 25  1  0  0  0
 25 26  1  0  0  0
 26 27  1  0  0  0
 33 34  1  0  0  0
 34 35  2  0  0  0
 35 30  1  0  0  0
 11  1  1  0  0  0
 17 12  1  0  0  0
 27 22  1  0  0  0
 11  5  2  0  0  0
 28 29  1  0  0  0
M  END
> <minimizedAffinity>
-9.57730

> <CNNscore>
0.4228626490

> <CNNaffinity>
7.0209183693

> <CNN_VS>
2.9688842297

> <CNNaffinity_variance>
0.1419189870

$$$$
[H]c1nc(N2C([H])([H])C([H])([H])c3nc(N4C([H])([H])C([H])([H])C([H])([H])C([H])([H])C4([H])[H])nc(N([H])c4c([H])c([H])c(C(F)(F)F)c([H])c4[H])c3C([H])([H])C2([H])[H])c(C(F)(F)F)c([H])c1[H]


 39 43  0  0  0  0  0  0  0  0999 V2000
  153.5351  138.3268  184.1780 C   0  0  0  0  0  0  0  0  0  0  0  0
  152.4596  137.9653  183.4411 N   0  0  0  0  0  0  0  0  0  0  0  0
  152.0052  138.6699  182.3696 C   0  0  0  0  0  0  0  0  0  0  0  0
  152.6403  139.7921  181.9937 N   0  0  0  0  0  0  0  0  0  0  0  0
  153.7052  140.2228  182.6629 C   0  0  0  0  0  0  0  0  0  0  0  0
  154.3811  141.4370  182.1373 C   0  0  0  0  0  0  0  0  0  0  0  0
  155.8507  141.0354  181.8596 C   0  0  0  0  0  0  0  0  0  0  0  0
  156.6735  140.8602  182.9903 N   0  0  0  0  0  0  0  0  0  0  0  0
  156.5562  140.0493  184.1994 C   0  0  0  0  0  0  0  0  0  0  0  0
  155.1635  139.9510  184.6899 C   0  0  0  0  0  0  0  0  0  0  0  0
  154.1422  139.4928  183.7509 C   0  0  0  0  0  0  0  0  0  0  0  0
  157.8658  141.5972  183.0454 C   0  0  0  0  0  0  0  0  0  0  0  0
  159.0025  140.8276  183.3074 N   0  0  0  0  0  0  0  0  0  0  0  0
  160.2130  141.4478  183.3716 C   0  0  0  0  0  0  0  0  0  0  0  0
  160.3619  142.7986  183.1875 C   0  0  0  0  0  0  0  0  0  0  0  0
  159.2168  143.5252  182.9316 C   0  0  0  0  0  0  0  0  0  0  0  0
  157.9556  142.9243  182.8557 C   0  0  0  0  0  0  0  0  0  0  0  0
  156.8122  143.7597  182.5431 C   0  0  0  0  0  0  0  0  0  0  0  0
  156.3929  143.7324  181.2265 F   0  0  0  0  0  0  0  0  0  0  0  0
  157.2416  145.1285  182.6590 F   0  0  0  0  0  0  0  0  0  0  0  0
  155.7695  143.7274  183.4326 F   0  0  0  0  0  0  0  0  0  0  0  0
  150.8204  138.2909  181.6826 N   0  0  0  0  0  0  0  0  0  0  0  0
  150.2743  136.9785  181.8380 C   0  0  0  0  0  0  0  0  0  0  0  0
  149.6189  136.4244  180.6249 C   0  0  0  0  0  0  0  0  0  0  0  0
  148.8378  137.4421  179.8579 C   0  0  0  0  0  0  0  0  0  0  0  0
  149.7455  138.6058  179.5250 C   0  0  0  0  0  0  0  0  0  0  0  0
  150.2335  139.2850  180.7898 C   0  0  0  0  0  0  0  0  0  0  0  0
  154.1872  137.5671  185.1573 N   0  0  0  0  0  0  0  0  0  0  0  0
  154.4512  136.5552  184.7756 H   0  0  0  0  0  0  0  0  0  0  0  0
  155.0417  138.1375  189.2255 C   0  0  0  0  0  0  0  0  0  0  0  0
  153.8319  138.5359  188.6734 C   0  0  0  0  0  0  0  0  0  0  0  0
  153.6178  138.3172  187.3521 C   0  0  0  0  0  0  0  0  0  0  0  0
  154.5163  137.7101  186.4818 C   0  0  0  0  0  0  0  0  0  0  0  0
  155.6979  137.3323  187.0665 C   0  0  0  0  0  0  0  0  0  0  0  0
  155.9796  137.5349  188.4283 C   0  0  0  0  0  0  0  0  0  0  0  0
  154.7457  139.6220  191.0760 F   0  0  0  0  0  0  0  0  0  0  0  0
  155.2627  138.4268  190.6849 C   0  0  0  0  0  0  0  0  0  0  0  0
  156.6163  138.4294  190.9560 F   0  0  0  0  0  0  0  0  0  0  0  0
  154.7280  137.4154  191.4658 F   0  0  0  0  0  0  0  0  0  0  0  0
 36 37  1  0  0  0
 37 38  1  0  0  0
 37 39  1  0  0  0
 37 30  1  0  0  0
 30 31  2  0  0  0
 31 32  1  0  0  0
 32 33  2  0  0  0
 33 28  1  0  0  0
 28  1  1  0  0  0
  1  2  2  0  0  0
  2  3  1  0  0  0
  3  4  2  0  0  0
  4  5  1  0  0  0
  5  6  1  0  0  0
  6  7  1  0  0  0
  7  8  1  0  0  0
  8  9  1  0  0  0
  9 10  1  0  0  0
 10 11  1  0  0  0
  8 12  1  0  0  0
 12 13  2  0  0  0
 13 14  1  0  0  0
 14 15  2  0  0  0
 15 16  1  0  0  0
 16 17  2  0  0  0
 17 18  1  0  0  0
 18 19  1  0  0  0
 18 20  1  0  0  0
 18 21  1  0  0  0
  3 22  1  0  0  0
 22 23  1  0  0  0
 23 24  1  0  0  0
 24 25  1  0  0  0
 25 26  1  0  0  0
 26 27  1  0  0  0
 33 34  1  0  0  0
 34 35  2  0  0  0
 35 30  1  0  0  0
 11  1  1  0  0  0
 17 12  1  0  0  0
 27 22  1  0  0  0
 11  5  2  0  0  0
 28 29  1  0  0  0
M  END
> <minimizedAffinity>
-10.35228

> <CNNscore>
0.4158875346

> <CNNaffinity>
7.2538976669

> <CNN_VS>
3.0168056488

> <CNNaffinity_variance>
0.0671459883

$$$$
[H]c1nc(N2C([H])([H])C([H])([H])c3nc(N4C([H])([H])C([H])([H])C([H])([H])C([H])([H])C4([H])[H])nc(N([H])c4c([H])c([H])c(C(F)(F)F)c([H])c4[H])c3C([H])([H])C2([H])[H])c(C(F)(F)F)c([H])c1[H]


 39 43  0  0  0  0  0  0  0  0999 V2000
  150.8838  135.4920  185.3562 C   0  0  0  0  0  0  0  0  0  0  0  0
  150.8743  134.7427  184.2298 N   0  0  0  0  0  0  0  0  0  0  0  0
  151.9974  134.3806  183.5526 C   0  0  0  0  0  0  0  0  0  0  0  0
  153.2009  134.7709  184.0034 N   0  0  0  0  0  0  0  0  0  0  0  0
  153.3034  135.5121  185.1022 C   0  0  0  0  0  0  0  0  0  0  0  0
  154.6770  135.8429  185.5618 C   0  0  0  0  0  0  0  0  0  0  0  0
  154.7959  135.3072  187.0099 C   0  0  0  0  0  0  0  0  0  0  0  0
  154.1066  136.0330  188.0019 N   0  0  0  0  0  0  0  0  0  0  0  0
  152.7175  136.4603  188.1480 C   0  0  0  0  0  0  0  0  0  0  0  0
  152.0971  136.8409  186.8596 C   0  0  0  0  0  0  0  0  0  0  0  0
  152.1476  135.8716  185.7675 C   0  0  0  0  0  0  0  0  0  0  0  0
  154.8454  136.4874  189.1044 C   0  0  0  0  0  0  0  0  0  0  0  0
  155.2922  137.8065  188.9891 N   0  0  0  0  0  0  0  0  0  0  0  0
  156.0111  138.3463  190.0118 C   0  0  0  0  0  0  0  0  0  0  0  0
  156.3133  137.6472  191.1523 C   0  0  0  0  0  0  0  0  0  0  0  0
  155.8555  136.3475  191.2292 C   0  0  0  0  0  0  0  0  0  0  0  0
  155.1122  135.7582  190.2008 C   0  0  0  0  0  0  0  0  0  0  0  0
  154.6384  134.4000  190.3844 C   0  0  0  0  0  0  0  0  0  0  0  0
  153.2660  134.2380  190.3735 F   0  0  0  0  0  0  0  0  0  0  0  0
  154.9416  134.0236  191.7401 F   0  0  0  0  0  0  0  0  0  0  0  0
  155.2934  133.4231  189.6800 F   0  0  0  0  0  0  0  0  0  0  0  0
  151.9247  133.6637  182.3276 N   0  0  0  0  0  0  0  0  0  0  0  0
  153.1126  133.3340  181.6031 C   0  0  0  0  0  0  0  0  0  0  0  0
  152.9661  133.3368  180.1243 C   0  0  0  0  0  0  0  0  0  0  0  0
  151.6609  132.7769  179.6585 C   0  0  0  0  0  0  0  0  0  0  0  0
  150.5366  133.5287  180.3366 C   0  0  0  0  0  0  0  0  0  0  0  0
  150.5898  133.3334  181.8392 C   0  0  0  0  0  0  0  0  0  0  0  0
  149.8098  135.7389  186.2205 N   0  0  0  0  0  0  0  0  0  0  0  0
  149.2527  136.6555  185.9225 H   0  0  0  0  0  0  0  0  0  0  0  0
  148.3396  133.8997  189.6935 C   0  0  0  0  0  0  0  0  0  0  0  0
  149.2113  133.2428  188.8357 C   0  0  0  0  0  0  0  0  0  0  0  0
  149.6529  133.8970  187.7327 C   0  0  0  0  0  0  0  0  0  0  0  0
  149.3107  135.1972  187.3783 C   0  0  0  0  0  0  0  0  0  0  0  0
  148.4483  135.8096  188.2512 C   0  0  0  0  0  0  0  0  0  0  0  0
  147.9537  135.1833  189.4079 C   0  0  0  0  0  0  0  0  0  0  0  0
  146.8275  133.7657  191.5405 F   0  0  0  0  0  0  0  0  0  0  0  0
  147.8398  133.1345  190.8881 C   0  0  0  0  0  0  0  0  0  0  0  0
  148.8762  132.9398  191.7791 F   0  0  0  0  0  0  0  0  0  0  0  0
  147.4270  131.8665  190.5133 F   0  0  0  0  0  0  0  0  0  0  0  0
 36 37  1  0  0  0
 37 38  1  0  0  0
 37 39  1  0  0  0
 37 30  1  0  0  0
 30 31  2  0  0  0
 31 32  1  0  0  0
 32 33  2  0  0  0
 33 28  1  0  0  0
 28  1  1  0  0  0
  1  2  2  0  0  0
  2  3  1  0  0  0
  3  4  2  0  0  0
  4  5  1  0  0  0
  5  6  1  0  0  0
  6  7  1  0  0  0
  7  8  1  0  0  0
  8  9  1  0  0  0
  9 10  1  0  0  0
 10 11  1  0  0  0
  8 12  1  0  0  0
 12 13  2  0  0  0
 13 14  1  0  0  0
 14 15  2  0  0  0
 15 16  1  0  0  0
 16 17  2  0  0  0
 17 18  1  0  0  0
 18 19  1  0  0  0
 18 20  1  0  0  0
 18 21  1  0  0  0
  3 22  1  0  0  0
 22 23  1  0  0  0
 23 24  1  0  0  0
 24 25  1  0  0  0
 25 26  1  0  0  0
 26 27  1  0  0  0
 33 34  1  0  0  0
 34 35  2  0  0  0
 35 30  1  0  0  0
 11  1  1  0  0  0
 17 12  1  0  0  0
 27 22  1  0  0  0
 11  5  2  0  0  0
 28 29  1  0  0  0
M  END
> <minimizedAffinity>
-4.16378

> <CNNscore>
0.3772867620

> <CNNaffinity>
6.5582990646

> <CNN_VS>
2.4743595123

> <CNNaffinity_variance>
0.8307868838

$$$$
[H]c1nc(N2C([H])([H])C([H])([H])c3nc(N4C([H])([H])C([H])([H])C([H])([H])C([H])([H])C4([H])[H])nc(N([H])c4c([H])c([H])c(C(F)(F)F)c([H])c4[H])c3C([H])([H])C2([H])[H])c(C(F)(F)F)c([H])c1[H]


 39 43  0  0  0  0  0  0  0  0999 V2000
  154.4109  138.9455  184.2105 C   0  0  0  0  0  0  0  0  0  0  0  0
  155.1611  140.0702  184.1581 N   0  0  0  0  0  0  0  0  0  0  0  0
  155.0891  140.9812  183.1503 C   0  0  0  0  0  0  0  0  0  0  0  0
  154.2321  140.7839  182.1351 N   0  0  0  0  0  0  0  0  0  0  0  0
  153.4580  139.7036  182.1042 C   0  0  0  0  0  0  0  0  0  0  0  0
  152.4959  139.6004  180.9767 C   0  0  0  0  0  0  0  0  0  0  0  0
  151.0888  139.4741  181.6110 C   0  0  0  0  0  0  0  0  0  0  0  0
  150.7829  138.2346  182.2078 N   0  0  0  0  0  0  0  0  0  0  0  0
  151.4442  137.4216  183.2253 C   0  0  0  0  0  0  0  0  0  0  0  0
  152.9200  137.4749  183.1305 C   0  0  0  0  0  0  0  0  0  0  0  0
  153.5550  138.7908  183.1363 C   0  0  0  0  0  0  0  0  0  0  0  0
  149.6230  137.5749  181.7751 C   0  0  0  0  0  0  0  0  0  0  0  0
  149.8140  136.7539  180.6605 N   0  0  0  0  0  0  0  0  0  0  0  0
  148.7507  136.0608  180.1675 C   0  0  0  0  0  0  0  0  0  0  0  0
  147.4988  136.1349  180.7225 C   0  0  0  0  0  0  0  0  0  0  0  0
  147.3492  136.9563  181.8214 C   0  0  0  0  0  0  0  0  0  0  0  0
  148.4176  137.6827  182.3586 C   0  0  0  0  0  0  0  0  0  0  0  0
  148.1773  138.4901  183.5389 C   0  0  0  0  0  0  0  0  0  0  0  0
  148.8444  138.0927  184.6821 F   0  0  0  0  0  0  0  0  0  0  0  0
  146.8115  138.2681  183.9350 F   0  0  0  0  0  0  0  0  0  0  0  0
  148.1898  139.8497  183.3630 F   0  0  0  0  0  0  0  0  0  0  0  0
  155.9606  142.1028  183.1022 N   0  0  0  0  0  0  0  0  0  0  0  0
  155.5421  143.3270  182.4932 C   0  0  0  0  0  0  0  0  0  0  0  0
  156.6185  144.0839  181.8027 C   0  0  0  0  0  0  0  0  0  0  0  0
  157.9237  144.0521  182.5304 C   0  0  0  0  0  0  0  0  0  0  0  0
  158.3147  142.6103  182.7703 C   0  0  0  0  0  0  0  0  0  0  0  0
  157.2977  141.9187  183.6571 C   0  0  0  0  0  0  0  0  0  0  0  0
  154.2728  138.0670  185.2925 N   0  0  0  0  0  0  0  0  0  0  0  0
  153.6896  137.1625  185.0077 H   0  0  0  0  0  0  0  0  0  0  0  0
  155.0990  138.1614  189.4052 C   0  0  0  0  0  0  0  0  0  0  0  0
  153.8483  138.4994  188.9064 C   0  0  0  0  0  0  0  0  0  0  0  0
  153.6466  138.4426  187.5664 C   0  0  0  0  0  0  0  0  0  0  0  0
  154.5970  138.0611  186.6259 C   0  0  0  0  0  0  0  0  0  0  0  0
  155.8176  137.7360  187.1596 C   0  0  0  0  0  0  0  0  0  0  0  0
  156.0887  137.7785  188.5379 C   0  0  0  0  0  0  0  0  0  0  0  0
  154.4891  137.4419  191.6021 F   0  0  0  0  0  0  0  0  0  0  0  0
  155.3011  138.2695  190.8917 C   0  0  0  0  0  0  0  0  0  0  0  0
  155.0615  139.5670  191.2978 F   0  0  0  0  0  0  0  0  0  0  0  0
  156.6221  138.0137  191.2210 F   0  0  0  0  0  0  0  0  0  0  0  0
 36 37  1  0  0  0
 37 38  1  0  0  0
 37 39  1  0  0  0
 37 30  1  0  0  0
 30 31  2  0  0  0
 31 32  1  0  0  0
 32 33  2  0  0  0
 33 28  1  0  0  0
 28  1  1  0  0  0
  1  2  2  0  0  0
  2  3  1  0  0  0
  3  4  2  0  0  0
  4  5  1  0  0  0
  5  6  1  0  0  0
  6  7  1  0  0  0
  7  8  1  0  0  0
  8  9  1  0  0  0
  9 10  1  0  0  0
 10 11  1  0  0  0
  8 12  1  0  0  0
 12 13  2  0  0  0
 13 14  1  0  0  0
 14 15  2  0  0  0
 15 16  1  0  0  0
 16 17  2  0  0  0
 17 18  1  0  0  0
 18 19  1  0  0  0
 18 20  1  0  0  0
 18 21  1  0  0  0
  3 22  1  0  0  0
 22 23  1  0  0  0
 23 24  1  0  0  0
 24 25  1  0  0  0
 25 26  1  0  0  0
 26 27  1  0  0  0
 33 34  1  0  0  0
 34 35  2  0  0  0
 35 30  1  0  0  0
 11  1  1  0  0  0
 17 12  1  0  0  0
 27 22  1  0  0  0
 11  5  2  0  0  0
 28 29  1  0  0  0
M  END
> <minimizedAffinity>
-9.72174

> <CNNscore>
0.3669248521

> <CNNaffinity>
6.8879380226

> <CNN_VS>
2.5273556709

> <CNNaffinity_variance>
0.0591155067

$$$$
[H]c1nc(N2C([H])([H])C([H])([H])c3nc(N4C([H])([H])C([H])([H])C([H])([H])C([H])([H])C4([H])[H])nc(N([H])c4c([H])c([H])c(C(F)(F)F)c([H])c4[H])c3C([H])([H])C2([H])[H])c(C(F)(F)F)c([H])c1[H]


 39 43  0  0  0  0  0  0  0  0999 V2000
  154.0628  139.5503  183.5835 C   0  0  0  0  0  0  0  0  0  0  0  0
  153.2398  139.5486  182.5096 N   0  0  0  0  0  0  0  0  0  0  0  0
  152.3789  138.5364  182.2179 C   0  0  0  0  0  0  0  0  0  0  0  0
  152.3158  137.4638  183.0239 N   0  0  0  0  0  0  0  0  0  0  0  0
  153.0911  137.3807  184.1006 C   0  0  0  0  0  0  0  0  0  0  0  0
  152.9078  136.1885  184.9681 C   0  0  0  0  0  0  0  0  0  0  0  0
  152.5604  136.7224  186.3796 C   0  0  0  0  0  0  0  0  0  0  0  0
  153.6211  137.2988  187.1068 N   0  0  0  0  0  0  0  0  0  0  0  0
  154.5781  138.3619  186.8109 C   0  0  0  0  0  0  0  0  0  0  0  0
  155.0034  138.3711  185.3936 C   0  0  0  0  0  0  0  0  0  0  0  0
  153.9610  138.4189  184.3708 C   0  0  0  0  0  0  0  0  0  0  0  0
  153.8843  136.7868  188.3860 C   0  0  0  0  0  0  0  0  0  0  0  0
  152.9819  137.2068  189.3670 N   0  0  0  0  0  0  0  0  0  0  0  0
  153.1445  136.7574  190.6421 C   0  0  0  0  0  0  0  0  0  0  0  0
  154.1583  135.9071  191.0023 C   0  0  0  0  0  0  0  0  0  0  0  0
  155.0297  135.5150  190.0064 C   0  0  0  0  0  0  0  0  0  0  0  0
  154.8946  135.9530  188.6845 C   0  0  0  0  0  0  0  0  0  0  0  0
  155.8330  135.4584  187.6956 C   0  0  0  0  0  0  0  0  0  0  0  0
  155.2732  134.8137  186.6089 F   0  0  0  0  0  0  0  0  0  0  0  0
  156.5602  134.3755  188.3040 F   0  0  0  0  0  0  0  0  0  0  0  0
  156.8528  136.3041  187.3432 F   0  0  0  0  0  0  0  0  0  0  0  0
  151.5978  138.5475  181.0308 N   0  0  0  0  0  0  0  0  0  0  0  0
  151.9491  139.3946  179.9336 C   0  0  0  0  0  0  0  0  0  0  0  0
  150.7978  139.9323  179.1630 C   0  0  0  0  0  0  0  0  0  0  0  0
  149.6933  138.9417  178.9818 C   0  0  0  0  0  0  0  0  0  0  0  0
  149.2700  138.4277  180.3404 C   0  0  0  0  0  0  0  0  0  0  0  0
  150.4126  137.6962  181.0176 C   0  0  0  0  0  0  0  0  0  0  0  0
  154.8237  140.6217  184.0680 N   0  0  0  0  0  0  0  0  0  0  0  0
  154.5844  140.8392  185.1332 H   0  0  0  0  0  0  0  0  0  0  0  0
  157.7222  143.2944  182.6323 C   0  0  0  0  0  0  0  0  0  0  0  0
  158.0717  142.1591  183.3507 C   0  0  0  0  0  0  0  0  0  0  0  0
  157.0852  141.3340  183.7814 C   0  0  0  0  0  0  0  0  0  0  0  0
  155.7258  141.5214  183.5580 C   0  0  0  0  0  0  0  0  0  0  0  0
  155.4236  142.6535  182.8456 C   0  0  0  0  0  0  0  0  0  0  0  0
  156.4001  143.5483  182.3757 C   0  0  0  0  0  0  0  0  0  0  0  0
  159.8434  144.2883  183.1103 F   0  0  0  0  0  0  0  0  0  0  0  0
  158.8365  144.2077  182.2002 C   0  0  0  0  0  0  0  0  0  0  0  0
  158.3381  145.4779  181.9901 F   0  0  0  0  0  0  0  0  0  0  0  0
  159.3498  143.8020  180.9793 F   0  0  0  0  0  0  0  0  0  0  0  0
 36 37  1  0  0  0
 37 38  1  0  0  0
 37 39  1  0  0  0
 37 30  1  0  0  0
 30 31  2  0  0  0
 31 32  1  0  0  0
 32 33  2  0  0  0
 33 28  1  0  0  0
 28  1  1  0  0  0
  1  2  2  0  0  0
  2  3  1  0  0  0
  3  4  2  0  0  0
  4  5  1  0  0  0
  5  6  1  0  0  0
  6  7  1  0  0  0
  7  8  1  0  0  0
  8  9  1  0  0  0
  9 10  1  0  0  0
 10 11  1  0  0  0
  8 12  1  0  0  0
 12 13  2  0  0  0
 13 14  1  0  0  0
 14 15  2  0  0  0
 15 16  1  0  0  0
 16 17  2  0  0  0
 17 18  1  0  0  0
 18 19  1  0  0  0
 18 20  1  0  0  0
 18 21  1  0  0  0
  3 22  1  0  0  0
 22 23  1  0  0  0
 23 24  1  0  0  0
 24 25  1  0  0  0
 25 26  1  0  0  0
 26 27  1  0  0  0
 33 34  1  0  0  0
 34 35  2  0  0  0
 35 30  1  0  0  0
 11  1  1  0  0  0
 17 12  1  0  0  0
 27 22  1  0  0  0
 11  5  2  0  0  0
 28 29  1  0  0  0
M  END
> <minimizedAffinity>
-9.10658

> <CNNscore>
0.3263646662

> <CNNaffinity>
6.8691077232

> <CNN_VS>
2.2418341637

> <CNNaffinity_variance>
0.1626653671

$$$$
[H]c1nc(N2C([H])([H])C([H])([H])c3nc(N4C([H])([H])C([H])([H])C([H])([H])C([H])([H])C4([H])[H])nc(N([H])c4c([H])c([H])c(C(F)(F)F)c([H])c4[H])c3C([H])([H])C2([H])[H])c(C(F)(F)F)c([H])c1[H]


 39 43  0  0  0  0  0  0  0  0999 V2000
  154.4857  138.7181  184.4095 C   0  0  0  0  0  0  0  0  0  0  0  0
  155.4957  139.2298  183.6689 N   0  0  0  0  0  0  0  0  0  0  0  0
  156.7411  139.4781  184.1570 C   0  0  0  0  0  0  0  0  0  0  0  0
  157.0174  139.2082  185.4434 N   0  0  0  0  0  0  0  0  0  0  0  0
  156.0830  138.7058  186.2445 C   0  0  0  0  0  0  0  0  0  0  0  0
  156.4962  138.3792  187.6338 C   0  0  0  0  0  0  0  0  0  0  0  0
  156.1908  136.8751  187.8400 C   0  0  0  0  0  0  0  0  0  0  0  0
  154.8323  136.5284  187.9821 N   0  0  0  0  0  0  0  0  0  0  0  0
  153.6435  136.7798  187.1714 C   0  0  0  0  0  0  0  0  0  0  0  0
  153.6588  138.1141  186.5316 C   0  0  0  0  0  0  0  0  0  0  0  0
  154.8250  138.4691  185.7260 C   0  0  0  0  0  0  0  0  0  0  0  0
  154.4642  135.8017  189.1241 C   0  0  0  0  0  0  0  0  0  0  0  0
  154.2231  134.4459  188.8863 N   0  0  0  0  0  0  0  0  0  0  0  0
  153.8686  133.6502  189.9329 C   0  0  0  0  0  0  0  0  0  0  0  0
  153.7401  134.1261  191.2126 C   0  0  0  0  0  0  0  0  0  0  0  0
  153.9856  135.4701  191.4080 C   0  0  0  0  0  0  0  0  0  0  0  0
  154.3540  136.3195  190.3590 C   0  0  0  0  0  0  0  0  0  0  0  0
  154.6310  137.7100  190.6634 C   0  0  0  0  0  0  0  0  0  0  0  0
  155.9340  137.9957  191.0247 F   0  0  0  0  0  0  0  0  0  0  0  0
  153.9393  138.0234  191.8860 F   0  0  0  0  0  0  0  0  0  0  0  0
  154.1017  138.6408  189.8073 F   0  0  0  0  0  0  0  0  0  0  0  0
  157.7406  140.0952  183.3571 N   0  0  0  0  0  0  0  0  0  0  0  0
  159.1179  140.0388  183.7374 C   0  0  0  0  0  0  0  0  0  0  0  0
  159.9149  141.2431  183.3869 C   0  0  0  0  0  0  0  0  0  0  0  0
  159.5598  141.8199  182.0545 C   0  0  0  0  0  0  0  0  0  0  0  0
  158.0733  142.1005  182.0238 C   0  0  0  0  0  0  0  0  0  0  0  0
  157.2813  140.8164  182.1745 C   0  0  0  0  0  0  0  0  0  0  0  0
  153.2499  138.2466  183.9489 N   0  0  0  0  0  0  0  0  0  0  0  0
  152.8787  137.4047  184.5755 H   0  0  0  0  0  0  0  0  0  0  0  0
  150.6457  138.8072  180.7071 C   0  0  0  0  0  0  0  0  0  0  0  0
  150.5718  137.6793  181.5130 C   0  0  0  0  0  0  0  0  0  0  0  0
  151.4406  137.5628  182.5480 C   0  0  0  0  0  0  0  0  0  0  0  0
  152.4156  138.4940  182.8879 C   0  0  0  0  0  0  0  0  0  0  0  0
  152.4552  139.5920  182.0672 C   0  0  0  0  0  0  0  0  0  0  0  0
  151.5847  139.7680  180.9781 C   0  0  0  0  0  0  0  0  0  0  0  0
  150.1519  139.6717  178.5334 F   0  0  0  0  0  0  0  0  0  0  0  0
  149.6927  138.8894  179.5463 C   0  0  0  0  0  0  0  0  0  0  0  0
  148.4840  139.3999  179.9757 F   0  0  0  0  0  0  0  0  0  0  0  0
  149.4111  137.6234  179.0599 F   0  0  0  0  0  0  0  0  0  0  0  0
 36 37  1  0  0  0
 37 38  1  0  0  0
 37 39  1  0  0  0
 37 30  1  0  0  0
 30 31  2  0  0  0
 31 32  1  0  0  0
 32 33  2  0  0  0
 33 28  1  0  0  0
 28  1  1  0  0  0
  1  2  2  0  0  0
  2  3  1  0  0  0
  3  4  2  0  0  0
  4  5  1  0  0  0
  5  6  1  0  0  0
  6  7  1  0  0  0
  7  8  1  0  0  0
  8  9  1  0  0  0
  9 10  1  0  0  0
 10 11  1  0  0  0
  8 12  1  0  0  0
 12 13  2  0  0  0
 13 14  1  0  0  0
 14 15  2  0  0  0
 15 16  1  0  0  0
 16 17  2  0  0  0
 17 18  1  0  0  0
 18 19  1  0  0  0
 18 20  1  0  0  0
 18 21  1  0  0  0
  3 22  1  0  0  0
 22 23  1  0  0  0
 23 24  1  0  0  0
 24 25  1  0  0  0
 25 26  1  0  0  0
 26 27  1  0  0  0
 33 34  1  0  0  0
 34 35  2  0  0  0
 35 30  1  0  0  0
 11  1  1  0  0  0
 17 12  1  0  0  0
 27 22  1  0  0  0
 11  5  2  0  0  0
 28 29  1  0  0  0
M  END
> <minimizedAffinity>
-8.53505

> <CNNscore>
0.2938673496

> <CNNaffinity>
6.7631883621

> <CNN_VS>
1.9874802828

> <CNNaffinity_variance>
0.0331122205

$$$$
[H]c1nc(N2C([H])([H])C([H])([H])c3nc(N4C([H])([H])C([H])([H])C([H])([H])C([H])([H])C4([H])[H])nc(N([H])c4c([H])c([H])c(C(F)(F)F)c([H])c4[H])c3C([H])([H])C2([H])[H])c(C(F)(F)F)c([H])c1[H]


 39 43  0  0  0  0  0  0  0  0999 V2000
  157.9124  142.4819  183.3464 C   0  0  0  0  0  0  0  0  0  0  0  0
  159.0816  142.5151  184.0263 N   0  0  0  0  0  0  0  0  0  0  0  0
  159.3228  141.7905  185.1522 C   0  0  0  0  0  0  0  0  0  0  0  0
  158.3669  140.9837  185.6415 N   0  0  0  0  0  0  0  0  0  0  0  0
  157.1860  140.8915  185.0381 C   0  0  0  0  0  0  0  0  0  0  0  0
  156.2131  139.9268  185.6129 C   0  0  0  0  0  0  0  0  0  0  0  0
  155.8497  138.9403  184.4759 C   0  0  0  0  0  0  0  0  0  0  0  0
  155.0108  139.4411  183.4603 N   0  0  0  0  0  0  0  0  0  0  0  0
  155.0832  140.6083  182.5851 C   0  0  0  0  0  0  0  0  0  0  0  0
  155.6608  141.7932  183.2575 C   0  0  0  0  0  0  0  0  0  0  0  0
  156.9642  141.6426  183.9005 C   0  0  0  0  0  0  0  0  0  0  0  0
  153.8319  138.7327  183.1845 C   0  0  0  0  0  0  0  0  0  0  0  0
  153.7379  137.5016  183.8393 N   0  0  0  0  0  0  0  0  0  0  0  0
  152.6259  136.7400  183.6457 C   0  0  0  0  0  0  0  0  0  0  0  0
  151.5927  137.1335  182.8344 C   0  0  0  0  0  0  0  0  0  0  0  0
  151.7220  138.3547  182.2045 C   0  0  0  0  0  0  0  0  0  0  0  0
  152.8477  139.1669  182.3796 C   0  0  0  0  0  0  0  0  0  0  0  0
  152.8807  140.4524  181.7092 C   0  0  0  0  0  0  0  0  0  0  0  0
  152.7917  141.5591  182.5320 F   0  0  0  0  0  0  0  0  0  0  0  0
  151.6560  140.5742  180.9630 F   0  0  0  0  0  0  0  0  0  0  0  0
  153.8165  140.6017  180.7186 F   0  0  0  0  0  0  0  0  0  0  0  0
  160.5390  141.9274  185.8746 N   0  0  0  0  0  0  0  0  0  0  0  0
  160.5453  142.4703  187.1974 C   0  0  0  0  0  0  0  0  0  0  0  0
  161.7480  143.2730  187.5400 C   0  0  0  0  0  0  0  0  0  0  0  0
  163.0157  142.7024  186.9907 C   0  0  0  0  0  0  0  0  0  0  0  0
  162.8646  142.5253  185.4958 C   0  0  0  0  0  0  0  0  0  0  0  0
  161.7614  141.5338  185.1814 C   0  0  0  0  0  0  0  0  0  0  0  0
  157.6486  143.0287  182.0842 N   0  0  0  0  0  0  0  0  0  0  0  0
  156.5566  143.1778  181.9277 H   0  0  0  0  0  0  0  0  0  0  0  0
  159.8694  144.2169  178.7283 C   0  0  0  0  0  0  0  0  0  0  0  0
  159.8360  144.9815  179.8866 C   0  0  0  0  0  0  0  0  0  0  0  0
  159.1022  144.5370  180.9371 C   0  0  0  0  0  0  0  0  0  0  0  0
  158.3698  143.3554  180.9634 C   0  0  0  0  0  0  0  0  0  0  0  0
  158.4292  142.6308  179.8007 C   0  0  0  0  0  0  0  0  0  0  0  0
  159.1686  143.0402  178.6779 C   0  0  0  0  0  0  0  0  0  0  0  0
  160.3176  144.1929  176.3800 F   0  0  0  0  0  0  0  0  0  0  0  0
  160.6626  144.7549  177.5691 C   0  0  0  0  0  0  0  0  0  0  0  0
  162.0072  144.5271  177.7835 F   0  0  0  0  0  0  0  0  0  0  0  0
  160.5262  146.1308  177.4856 F   0  0  0  0  0  0  0  0  0  0  0  0
 36 37  1  0  0  0
 37 38  1  0  0  0
 37 39  1  0  0  0
 37 30  1  0  0  0
 30 31  2  0  0  0
 31 32  1  0  0  0
 32 33  2  0  0  0
 33 28  1  0  0  0
 28  1  1  0  0  0
  1  2  2  0  0  0
  2  3  1  0  0  0
  3  4  2  0  0  0
  4  5  1  0  0  0
  5  6  1  0  0  0
  6  7  1  0  0  0
  7  8  1  0  0  0
  8  9  1  0  0  0
  9 10  1  0  0  0
 10 11  1  0  0  0
  8 12  1  0  0  0
 12 13  2  0  0  0
 13 14  1  0  0  0
 14 15  2  0  0  0
 15 16  1  0  0  0
 16 17  2  0  0  0
 17 18  1  0  0  0
 18 19  1  0  0  0
 18 20  1  0  0  0
 18 21  1  0  0  0
  3 22  1  0  0  0
 22 23  1  0  0  0
 23 24  1  0  0  0
 24 25  1  0  0  0
 25 26  1  0  0  0
 26 27  1  0  0  0
 33 34  1  0  0  0
 34 35  2  0  0  0
 35 30  1  0  0  0
 11  1  1  0  0  0
 17 12  1  0  0  0
 27 22  1  0  0  0
 11  5  2  0  0  0
 28 29  1  0  0  0
M  END
> <minimizedAffinity>
-3.15401

> <CNNscore>
0.2912362814

> <CNNaffinity>
7.3331122398

> <CNN_VS>
2.1356682777

> <CNNaffinity_variance>
0.5482475758

$$$$
[H]c1nc(N2C([H])([H])C([H])([H])c3nc(N4C([H])([H])C([H])([H])C([H])([H])C([H])([H])C4([H])[H])nc(N([H])c4c([H])c([H])c(C(F)(F)F)c([H])c4[H])c3C([H])([H])C2([H])[H])c(C(F)(F)F)c([H])c1[H]


 39 43  0  0  0  0  0  0  0  0999 V2000
  154.4327  139.7616  183.5376 C   0  0  0  0  0  0  0  0  0  0  0  0
  153.4181  139.7298  182.6432 N   0  0  0  0  0  0  0  0  0  0  0  0
  152.6430  138.6349  182.4169 C   0  0  0  0  0  0  0  0  0  0  0  0
  152.8702  137.5051  183.1068 N   0  0  0  0  0  0  0  0  0  0  0  0
  153.8490  137.4463  184.0044 C   0  0  0  0  0  0  0  0  0  0  0  0
  153.9858  136.1772  184.7648 C   0  0  0  0  0  0  0  0  0  0  0  0
  153.8662  136.5487  186.2634 C   0  0  0  0  0  0  0  0  0  0  0  0
  154.9744  137.2071  186.8330 N   0  0  0  0  0  0  0  0  0  0  0  0
  155.7195  138.4105  186.4724 C   0  0  0  0  0  0  0  0  0  0  0  0
  155.8492  138.5865  185.0089 C   0  0  0  0  0  0  0  0  0  0  0  0
  154.6255  138.5697  184.2105 C   0  0  0  0  0  0  0  0  0  0  0  0
  155.5467  136.6392  187.9810 C   0  0  0  0  0  0  0  0  0  0  0  0
  156.6255  135.7896  187.7219 N   0  0  0  0  0  0  0  0  0  0  0  0
  157.2577  135.1949  188.7711 C   0  0  0  0  0  0  0  0  0  0  0  0
  156.8788  135.3979  190.0734 C   0  0  0  0  0  0  0  0  0  0  0  0
  155.8091  136.2428  190.2894 C   0  0  0  0  0  0  0  0  0  0  0  0
  155.1353  136.8740  189.2383 C   0  0  0  0  0  0  0  0  0  0  0  0
  154.0470  137.7766  189.5610 C   0  0  0  0  0  0  0  0  0  0  0  0
  154.2719  139.1106  189.2786 F   0  0  0  0  0  0  0  0  0  0  0  0
  153.9426  137.8205  190.9958 F   0  0  0  0  0  0  0  0  0  0  0  0
  152.7870  137.3653  189.2109 F   0  0  0  0  0  0  0  0  0  0  0  0
  151.6449  138.6302  181.4053 N   0  0  0  0  0  0  0  0  0  0  0  0
  151.9481  139.0692  180.0786 C   0  0  0  0  0  0  0  0  0  0  0  0
  150.8339  139.7567  179.3756 C   0  0  0  0  0  0  0  0  0  0  0  0
  149.4979  139.1415  179.6419 C   0  0  0  0  0  0  0  0  0  0  0  0
  149.2729  139.0897  181.1372 C   0  0  0  0  0  0  0  0  0  0  0  0
  150.3074  138.2053  181.8055 C   0  0  0  0  0  0  0  0  0  0  0  0
  155.1419  140.8865  183.9771 N   0  0  0  0  0  0  0  0  0  0  0  0
  154.9104  141.1212  185.0403 H   0  0  0  0  0  0  0  0  0  0  0  0
  157.8621  143.6705  182.4101 C   0  0  0  0  0  0  0  0  0  0  0  0
  158.2871  142.5745  183.1485 C   0  0  0  0  0  0  0  0  0  0  0  0
  157.3555  141.7098  183.6219 C   0  0  0  0  0  0  0  0  0  0  0  0
  155.9835  141.8190  183.4245 C   0  0  0  0  0  0  0  0  0  0  0  0
  155.6061  142.9146  182.6911 C   0  0  0  0  0  0  0  0  0  0  0  0
  156.5232  143.8472  182.1771 C   0  0  0  0  0  0  0  0  0  0  0  0
  159.4734  144.2619  180.7457 F   0  0  0  0  0  0  0  0  0  0  0  0
  158.9165  144.6299  181.9303 C   0  0  0  0  0  0  0  0  0  0  0  0
  159.9212  144.7219  182.8727 F   0  0  0  0  0  0  0  0  0  0  0  0
  158.3936  145.9076  181.8168 F   0  0  0  0  0  0  0  0  0  0  0  0
 36 37  1  0  0  0
 37 38  1  0  0  0
 37 39  1  0  0  0
 37 30  1  0  0  0
 30 31  2  0  0  0
 31 32  1  0  0  0
 32 33  2  0  0  0
 33 28  1  0  0  0
 28  1  1  0  0  0
  1  2  2  0  0  0
  2  3  1  0  0  0
  3  4  2  0  0  0
  4  5  1  0  0  0
  5  6  1  0  0  0
  6  7  1  0  0  0
  7  8  1  0  0  0
  8  9  1  0  0  0
  9 10  1  0  0  0
 10 11  1  0  0  0
  8 12  1  0  0  0
 12 13  2  0  0  0
 13 14  1  0  0  0
 14 15  2  0  0  0
 15 16  1  0  0  0
 16 17  2  0  0  0
 17 18  1  0  0  0
 18 19  1  0  0  0
 18 20  1  0  0  0
 18 21  1  0  0  0
  3 22  1  0  0  0
 22 23  1  0  0  0
 23 24  1  0  0  0
 24 25  1  0  0  0
 25 26  1  0  0  0
 26 27  1  0  0  0
 33 34  1  0  0  0
 34 35  2  0  0  0
 35 30  1  0  0  0
 11  1  1  0  0  0
 17 12  1  0  0  0
 27 22  1  0  0  0
 11  5  2  0  0  0
 28 29  1  0  0  0
M  END
> <minimizedAffinity>
-9.75320

> <CNNscore>
0.2865985036

> <CNNaffinity>
6.9027647972

> <CNN_VS>
1.9783220291

> <CNNaffinity_variance>
0.1479898095

$$$$
[H]c1nc(N2C([H])([H])C([H])([H])c3nc(-c4c([H])c([H])c([H])c([H])c4[H])nc(N([H])c4c([H])c([H])c(C(F)(F)F)c([H])c4[H])c3C([H])([H])C2([H])[H])c(C(F)(F)F)c([H])c1[H]


 39 43  0  0  0  0  0  0  0  0999 V2000
  153.9359  138.4568  183.8137 C   0  0  0  0  0  0  0  0  0  0  0  0
  152.9890  138.2217  182.8598 N   0  0  0  0  0  0  0  0  0  0  0  0
  152.6765  139.1024  181.9049 C   0  0  0  0  0  0  0  0  0  0  0  0
  153.3564  140.2795  181.8964 N   0  0  0  0  0  0  0  0  0  0  0  0
  154.3144  140.5912  182.8172 C   0  0  0  0  0  0  0  0  0  0  0  0
  155.0094  141.8363  182.5137 C   0  0  0  0  0  0  0  0  0  0  0  0
  156.0800  142.2683  183.4210 C   0  0  0  0  0  0  0  0  0  0  0  0
  157.0387  141.4213  184.0130 N   0  0  0  0  0  0  0  0  0  0  0  0
  156.8575  140.1005  184.7254 C   0  0  0  0  0  0  0  0  0  0  0  0
  155.4278  139.9495  185.0141 C   0  0  0  0  0  0  0  0  0  0  0  0
  154.5939  139.6705  183.7892 C   0  0  0  0  0  0  0  0  0  0  0  0
  158.4373  141.6765  184.0580 C   0  0  0  0  0  0  0  0  0  0  0  0
  158.9673  141.7823  185.3403 N   0  0  0  0  0  0  0  0  0  0  0  0
  160.2515  142.1031  185.5476 C   0  0  0  0  0  0  0  0  0  0  0  0
  161.0867  142.3333  184.4727 C   0  0  0  0  0  0  0  0  0  0  0  0
  160.5833  142.2296  183.2063 C   0  0  0  0  0  0  0  0  0  0  0  0
  159.2274  141.8939  182.9852 C   0  0  0  0  0  0  0  0  0  0  0  0
  158.7932  141.8020  181.5907 C   0  0  0  0  0  0  0  0  0  0  0  0
  158.0042  142.8575  181.1589 F   0  0  0  0  0  0  0  0  0  0  0  0
  158.3543  140.5905  181.1581 F   0  0  0  0  0  0  0  0  0  0  0  0
  159.9670  142.0132  180.7818 F   0  0  0  0  0  0  0  0  0  0  0  0
  151.5713  138.9299  180.9634 C   0  0  0  0  0  0  0  0  0  0  0  0
  151.3809  139.7348  179.8672 C   0  0  0  0  0  0  0  0  0  0  0  0
  150.3029  139.5148  178.9942 C   0  0  0  0  0  0  0  0  0  0  0  0
  149.4058  138.4935  179.1979 C   0  0  0  0  0  0  0  0  0  0  0  0
  149.5857  137.6743  180.3013 C   0  0  0  0  0  0  0  0  0  0  0  0
  150.6424  137.9218  181.1251 C   0  0  0  0  0  0  0  0  0  0  0  0
  154.3769  137.5229  184.7322 N   0  0  0  0  0  0  0  0  0  0  0  0
  154.6833  136.5465  184.4018 H   0  0  0  0  0  0  0  0  0  0  0  0
  154.7980  137.9718  188.9225 C   0  0  0  0  0  0  0  0  0  0  0  0
  155.7649  137.3622  188.1715 C   0  0  0  0  0  0  0  0  0  0  0  0
  155.6011  137.1778  186.7931 C   0  0  0  0  0  0  0  0  0  0  0  0
  154.4557  137.6069  186.1428 C   0  0  0  0  0  0  0  0  0  0  0  0
  153.4890  138.2081  186.9106 C   0  0  0  0  0  0  0  0  0  0  0  0
  153.6585  138.3893  188.2737 C   0  0  0  0  0  0  0  0  0  0  0  0
  154.4676  137.2650  191.1914 F   0  0  0  0  0  0  0  0  0  0  0  0
  155.0188  138.2285  190.3945 C   0  0  0  0  0  0  0  0  0  0  0  0
  154.6412  139.5139  190.7081 F   0  0  0  0  0  0  0  0  0  0  0  0
  156.4086  138.1728  190.6402 F   0  0  0  0  0  0  0  0  0  0  0  0
 36 37  1  0  0  0
 37 38  1  0  0  0
 37 39  1  0  0  0
 37 30  1  0  0  0
 30 31  2  0  0  0
 31 32  1  0  0  0
 32 33  2  0  0  0
 33 28  1  0  0  0
 28  1  1  0  0  0
  1  2  2  0  0  0
  2  3  1  0  0  0
  3  4  2  0  0  0
  4  5  1  0  0  0
  5  6  1  0  0  0
  6  7  1  0  0  0
  7  8  1  0  0  0
  8  9  1  0  0  0
  9 10  1  0  0  0
 10 11  1  0  0  0
  8 12  1  0  0  0
 12 13  2  0  0  0
 13 14  1  0  0  0
 14 15  2  0  0  0
 15 16  1  0  0  0
 16 17  2  0  0  0
 17 18  1  0  0  0
 18 19  1  0  0  0
 18 20  1  0  0  0
 18 21  1  0  0  0
  3 22  1  0  0  0
 22 23  2  0  0  0
 23 24  1  0  0  0
 24 25  2  0  0  0
 25 26  1  0  0  0
 26 27  2  0  0  0
 33 34  1  0  0  0
 34 35  2  0  0  0
 35 30  1  0  0  0
 11  1  1  0  0  0
 17 12  1  0  0  0
 27 22  1  0  0  0
 11  5  2  0  0  0
 28 29  1  0  0  0
M  END
> <minimizedAffinity>
-11.16962

> <CNNscore>
0.5894497633

> <CNNaffinity>
7.5435471535

> <CNN_VS>
4.4465422630

> <CNNaffinity_variance>
0.0515438542

$$$$
[H]c1nc(N2C([H])([H])C([H])([H])c3nc(-c4c([H])c([H])c([H])c([H])c4[H])nc(N([H])c4c([H])c([H])c(C(F)(F)F)c([H])c4[H])c3C([H])([H])C2([H])[H])c(C(F)(F)F)c([H])c1[H]


 39 43  0  0  0  0  0  0  0  0999 V2000
  153.9675  138.4690  183.8832 C   0  0  0  0  0  0  0  0  0  0  0  0
  153.0226  138.2274  182.9289 N   0  0  0  0  0  0  0  0  0  0  0  0
  152.7097  139.1028  181.9693 C   0  0  0  0  0  0  0  0  0  0  0  0
  153.3871  140.2813  181.9563 N   0  0  0  0  0  0  0  0  0  0  0  0
  154.3429  140.5996  182.8771 C   0  0  0  0  0  0  0  0  0  0  0  0
  155.0357  141.8447  182.5688 C   0  0  0  0  0  0  0  0  0  0  0  0
  156.1039  142.2834  183.4757 C   0  0  0  0  0  0  0  0  0  0  0  0
  157.0635  141.4413  184.0733 N   0  0  0  0  0  0  0  0  0  0  0  0
  156.8840  140.1235  184.7917 C   0  0  0  0  0  0  0  0  0  0  0  0
  155.4541  139.9708  185.0788 C   0  0  0  0  0  0  0  0  0  0  0  0
  154.6229  139.6841  183.8540 C   0  0  0  0  0  0  0  0  0  0  0  0
  158.4615  141.6998  184.1193 C   0  0  0  0  0  0  0  0  0  0  0  0
  158.9895  141.8110  185.4020 N   0  0  0  0  0  0  0  0  0  0  0  0
  160.2727  142.1354  185.6098 C   0  0  0  0  0  0  0  0  0  0  0  0
  161.1089  142.3639  184.5353 C   0  0  0  0  0  0  0  0  0  0  0  0
  160.6073  142.2549  183.2686 C   0  0  0  0  0  0  0  0  0  0  0  0
  159.2525  141.9155  183.0469 C   0  0  0  0  0  0  0  0  0  0  0  0
  158.8203  141.8180  181.6521 C   0  0  0  0  0  0  0  0  0  0  0  0
  158.0988  142.9090  181.1916 F   0  0  0  0  0  0  0  0  0  0  0  0
  158.3111  140.6255  181.2443 F   0  0  0  0  0  0  0  0  0  0  0  0
  160.0087  141.9392  180.8460 F   0  0  0  0  0  0  0  0  0  0  0  0
  151.6064  138.9234  181.0269 C   0  0  0  0  0  0  0  0  0  0  0  0
  150.6394  137.9591  181.1717 C   0  0  0  0  0  0  0  0  0  0  0  0
  149.5991  137.8402  180.2355 C   0  0  0  0  0  0  0  0  0  0  0  0
  149.5061  138.6775  179.1494 C   0  0  0  0  0  0  0  0  0  0  0  0
  150.4763  139.6544  178.9908 C   0  0  0  0  0  0  0  0  0  0  0  0
  151.4700  139.7359  179.9194 C   0  0  0  0  0  0  0  0  0  0  0  0
  154.4091  137.5405  184.8068 N   0  0  0  0  0  0  0  0  0  0  0  0
  154.7046  136.5585  184.4833 H   0  0  0  0  0  0  0  0  0  0  0  0
  154.8682  138.0293  188.9888 C   0  0  0  0  0  0  0  0  0  0  0  0
  155.8317  137.4194  188.2336 C   0  0  0  0  0  0  0  0  0  0  0  0
  155.6557  137.2218  186.8586 C   0  0  0  0  0  0  0  0  0  0  0  0
  154.5011  137.6375  186.2158 C   0  0  0  0  0  0  0  0  0  0  0  0
  153.5380  138.2393  186.9877 C   0  0  0  0  0  0  0  0  0  0  0  0
  153.7196  138.4336  188.3475 C   0  0  0  0  0  0  0  0  0  0  0  0
  154.6827  139.5430  190.8409 F   0  0  0  0  0  0  0  0  0  0  0  0
  155.1016  138.3006  190.4561 C   0  0  0  0  0  0  0  0  0  0  0  0
  156.4057  138.0103  190.7850 F   0  0  0  0  0  0  0  0  0  0  0  0
  154.3144  137.3903  191.1955 F   0  0  0  0  0  0  0  0  0  0  0  0
 36 37  1  0  0  0
 37 38  1  0  0  0
 37 39  1  0  0  0
 37 30  1  0  0  0
 30 31  2  0  0  0
 31 32  1  0  0  0
 32 33  2  0  0  0
 33 28  1  0  0  0
 28  1  1  0  0  0
  1  2  2  0  0  0
  2  3  1  0  0  0
  3  4  2  0  0  0
  4  5  1  0  0  0
  5  6  1  0  0  0
  6  7  1  0  0  0
  7  8  1  0  0  0
  8  9  1  0  0  0
  9 10  1  0  0  0
 10 11  1  0  0  0
  8 12  1  0  0  0
 12 13  2  0  0  0
 13 14  1  0  0  0
 14 15  2  0  0  0
 15 16  1  0  0  0
 16 17  2  0  0  0
 17 18  1  0  0  0
 18 19  1  0  0  0
 18 20  1  0  0  0
 18 21  1  0  0  0
  3 22  1  0  0  0
 22 23  2  0  0  0
 23 24  1  0  0  0
 24 25  2  0  0  0
 25 26  1  0  0  0
 26 27  2  0  0  0
 33 34  1  0  0  0
 34 35  2  0  0  0
 35 30  1  0  0  0
 11  1  1  0  0  0
 17 12  1  0  0  0
 27 22  1  0  0  0
 11  5  2  0  0  0
 28 29  1  0  0  0
M  END
> <minimizedAffinity>
-11.19301

> <CNNscore>
0.5437803268

> <CNNaffinity>
7.5196046829

> <CNN_VS>
4.0890130997

> <CNNaffinity_variance>
0.0536235794

$$$$
[H]c1nc(N2C([H])([H])C([H])([H])c3nc(-c4c([H])c([H])c([H])c([H])c4[H])nc(N([H])c4c([H])c([H])c(C(F)(F)F)c([H])c4[H])c3C([H])([H])C2([H])[H])c(C(F)(F)F)c([H])c1[H]


 39 43  0  0  0  0  0  0  0  0999 V2000
  158.6797  141.0851  185.5951 C   0  0  0  0  0  0  0  0  0  0  0  0
  159.6524  141.4580  186.4764 N   0  0  0  0  0  0  0  0  0  0  0  0
  160.8745  141.8440  186.0986 C   0  0  0  0  0  0  0  0  0  0  0  0
  161.1353  141.8693  184.7648 N   0  0  0  0  0  0  0  0  0  0  0  0
  160.2179  141.5081  183.8210 C   0  0  0  0  0  0  0  0  0  0  0  0
  160.6729  141.7644  182.4599 C   0  0  0  0  0  0  0  0  0  0  0  0
  159.7630  141.4377  181.3547 C   0  0  0  0  0  0  0  0  0  0  0  0
  158.3717  141.6642  181.3495 N   0  0  0  0  0  0  0  0  0  0  0  0
  157.3344  141.3504  182.4032 C   0  0  0  0  0  0  0  0  0  0  0  0
  157.9528  140.4383  183.3707 C   0  0  0  0  0  0  0  0  0  0  0  0
  158.9834  141.1024  184.2482 C   0  0  0  0  0  0  0  0  0  0  0  0
  157.6448  142.2582  180.2808 C   0  0  0  0  0  0  0  0  0  0  0  0
  157.7220  141.5707  179.0734 N   0  0  0  0  0  0  0  0  0  0  0  0
  157.1608  142.0476  177.9541 C   0  0  0  0  0  0  0  0  0  0  0  0
  156.4799  143.2483  177.9818 C   0  0  0  0  0  0  0  0  0  0  0  0
  156.3912  143.9344  179.1605 C   0  0  0  0  0  0  0  0  0  0  0  0
  156.9853  143.4344  180.3424 C   0  0  0  0  0  0  0  0  0  0  0  0
  156.8243  144.2440  181.5509 C   0  0  0  0  0  0  0  0  0  0  0  0
  156.1011  145.4137  181.3725 F   0  0  0  0  0  0  0  0  0  0  0  0
  157.9205  144.4044  182.3384 F   0  0  0  0  0  0  0  0  0  0  0  0
  155.9268  143.5179  182.4134 F   0  0  0  0  0  0  0  0  0  0  0  0
  161.9715  142.1103  187.0277 C   0  0  0  0  0  0  0  0  0  0  0  0
  161.8826  141.8974  188.3815 C   0  0  0  0  0  0  0  0  0  0  0  0
  162.9744  142.1662  189.2232 C   0  0  0  0  0  0  0  0  0  0  0  0
  164.1648  142.6454  188.7307 C   0  0  0  0  0  0  0  0  0  0  0  0
  164.2675  142.8659  187.3662 C   0  0  0  0  0  0  0  0  0  0  0  0
  163.1855  142.5947  186.5839 C   0  0  0  0  0  0  0  0  0  0  0  0
  157.3701  140.8079  185.9390 N   0  0  0  0  0  0  0  0  0  0  0  0
  156.7417  141.5857  186.3346 H   0  0  0  0  0  0  0  0  0  0  0  0
  155.1192  137.2226  186.0690 C   0  0  0  0  0  0  0  0  0  0  0  0
  156.0802  137.4937  187.0037 C   0  0  0  0  0  0  0  0  0  0  0  0
  156.8512  138.6604  186.9310 C   0  0  0  0  0  0  0  0  0  0  0  0
  156.6668  139.5801  185.9116 C   0  0  0  0  0  0  0  0  0  0  0  0
  155.7056  139.2904  184.9746 C   0  0  0  0  0  0  0  0  0  0  0  0
  154.9450  138.1350  185.0537 C   0  0  0  0  0  0  0  0  0  0  0  0
  153.1087  136.0705  185.4470 F   0  0  0  0  0  0  0  0  0  0  0  0
  154.2466  135.9968  186.2000 C   0  0  0  0  0  0  0  0  0  0  0  0
  154.0343  135.7121  187.5293 F   0  0  0  0  0  0  0  0  0  0  0  0
  154.9676  134.8951  185.6886 F   0  0  0  0  0  0  0  0  0  0  0  0
 36 37  1  0  0  0
 37 38  1  0  0  0
 37 39  1  0  0  0
 37 30  1  0  0  0
 30 31  2  0  0  0
 31 32  1  0  0  0
 32 33  2  0  0  0
 33 28  1  0  0  0
 28  1  1  0  0  0
  1  2  2  0  0  0
  2  3  1  0  0  0
  3  4  2  0  0  0
  4  5  1  0  0  0
  5  6  1  0  0  0
  6  7  1  0  0  0
  7  8  1  0  0  0
  8  9  1  0  0  0
  9 10  1  0  0  0
 10 11  1  0  0  0
  8 12  1  0  0  0
 12 13  2  0  0  0
 13 14  1  0  0  0
 14 15  2  0  0  0
 15 16  1  0  0  0
 16 17  2  0  0  0
 17 18  1  0  0  0
 18 19  1  0  0  0
 18 20  1  0  0  0
 18 21  1  0  0  0
  3 22  1  0  0  0
 22 23  2  0  0  0
 23 24  1  0  0  0
 24 25  2  0  0  0
 25 26  1  0  0  0
 26 27  2  0  0  0
 33 34  1  0  0  0
 34 35  2  0  0  0
 35 30  1  0  0  0
 11  1  1  0  0  0
 17 12  1  0  0  0
 27 22  1  0  0  0
 11  5  2  0  0  0
 28 29  1  0  0  0
M  END
> <minimizedAffinity>
12.18141

> <CNNscore>
0.4215884209

> <CNNaffinity>
7.3560743332

> <CNN_VS>
3.1012358665

> <CNNaffinity_variance>
1.1577546597

$$$$
[H]c1nc(N2C([H])([H])C([H])([H])c3nc(-c4c([H])c([H])c([H])c([H])c4[H])nc(N([H])c4c([H])c([H])c(C(F)(F)F)c([H])c4[H])c3C([H])([H])C2([H])[H])c(C(F)(F)F)c([H])c1[H]


 39 43  0  0  0  0  0  0  0  0999 V2000
  154.4238  139.2506  184.3611 C   0  0  0  0  0  0  0  0  0  0  0  0
  155.4505  140.1491  184.3763 N   0  0  0  0  0  0  0  0  0  0  0  0
  155.7169  140.9746  183.3599 C   0  0  0  0  0  0  0  0  0  0  0  0
  154.9048  140.9055  182.2721 N   0  0  0  0  0  0  0  0  0  0  0  0
  153.8602  140.0322  182.1785 C   0  0  0  0  0  0  0  0  0  0  0  0
  153.0438  140.2491  180.9903 C   0  0  0  0  0  0  0  0  0  0  0  0
  151.8742  139.3845  180.7888 C   0  0  0  0  0  0  0  0  0  0  0  0
  150.9865  138.9645  181.8000 N   0  0  0  0  0  0  0  0  0  0  0  0
  151.2766  138.3901  183.1678 C   0  0  0  0  0  0  0  0  0  0  0  0
  152.6930  138.0110  183.1936 C   0  0  0  0  0  0  0  0  0  0  0  0
  153.6300  139.1916  183.2327 C   0  0  0  0  0  0  0  0  0  0  0  0
  149.5675  138.9990  181.7073 C   0  0  0  0  0  0  0  0  0  0  0  0
  148.9094  139.1435  182.9248 N   0  0  0  0  0  0  0  0  0  0  0  0
  147.5728  139.1092  183.0115 C   0  0  0  0  0  0  0  0  0  0  0  0
  146.8124  138.9319  181.8729 C   0  0  0  0  0  0  0  0  0  0  0  0
  147.4427  138.7926  180.6683 C   0  0  0  0  0  0  0  0  0  0  0  0
  148.8534  138.8254  180.5748 C   0  0  0  0  0  0  0  0  0  0  0  0
  149.4260  138.6740  179.2366 C   0  0  0  0  0  0  0  0  0  0  0  0
  150.3423  139.6534  178.8843 F   0  0  0  0  0  0  0  0  0  0  0  0
  148.5707  138.3510  178.2307 F   0  0  0  0  0  0  0  0  0  0  0  0
  150.2909  137.5225  179.2894 F   0  0  0  0  0  0  0  0  0  0  0  0
  156.8923  141.8418  183.2975 C   0  0  0  0  0  0  0  0  0  0  0  0
  158.0362  141.6161  184.0230 C   0  0  0  0  0  0  0  0  0  0  0  0
  159.1366  142.4824  183.9154 C   0  0  0  0  0  0  0  0  0  0  0  0
  159.1143  143.5781  183.0859 C   0  0  0  0  0  0  0  0  0  0  0  0
  157.9653  143.8181  182.3489 C   0  0  0  0  0  0  0  0  0  0  0  0
  156.9191  142.9556  182.4827 C   0  0  0  0  0  0  0  0  0  0  0  0
  154.0386  138.4770  185.4397 N   0  0  0  0  0  0  0  0  0  0  0  0
  153.0262  138.5217  185.7995 H   0  0  0  0  0  0  0  0  0  0  0  0
  156.1547  135.9186  188.0693 C   0  0  0  0  0  0  0  0  0  0  0  0
  156.1772  137.2770  188.2268 C   0  0  0  0  0  0  0  0  0  0  0  0
  155.5112  138.1204  187.3289 C   0  0  0  0  0  0  0  0  0  0  0  0
  154.8064  137.6086  186.2518 C   0  0  0  0  0  0  0  0  0  0  0  0
  154.8005  136.2439  186.1001 C   0  0  0  0  0  0  0  0  0  0  0  0
  155.4599  135.4151  186.9933 C   0  0  0  0  0  0  0  0  0  0  0  0
  156.4085  135.2690  190.3649 F   0  0  0  0  0  0  0  0  0  0  0  0
  156.8166  135.0180  189.0851 C   0  0  0  0  0  0  0  0  0  0  0  0
  158.1808  135.0336  188.9073 F   0  0  0  0  0  0  0  0  0  0  0  0
  156.4158  133.6910  188.8139 F   0  0  0  0  0  0  0  0  0  0  0  0
 36 37  1  0  0  0
 37 38  1  0  0  0
 37 39  1  0  0  0
 37 30  1  0  0  0
 30 31  2  0  0  0
 31 32  1  0  0  0
 32 33  2  0  0  0
 33 28  1  0  0  0
 28  1  1  0  0  0
  1  2  2  0  0  0
  2  3  1  0  0  0
  3  4  2  0  0  0
  4  5  1  0  0  0
  5  6  1  0  0  0
  6  7  1  0  0  0
  7  8  1  0  0  0
  8  9  1  0  0  0
  9 10  1  0  0  0
 10 11  1  0  0  0
  8 12  1  0  0  0
 12 13  2  0  0  0
 13 14  1  0  0  0
 14 15  2  0  0  0
 15 16  1  0  0  0
 16 17  2  0  0  0
 17 18  1  0  0  0
 18 19  1  0  0  0
 18 20  1  0  0  0
 18 21  1  0  0  0
  3 22  1  0  0  0
 22 23  2  0  0  0
 23 24  1  0  0  0
 24 25  2  0  0  0
 25 26  1  0  0  0
 26 27  2  0  0  0
 33 34  1  0  0  0
 34 35  2  0  0  0
 35 30  1  0  0  0
 11  1  1  0  0  0
 17 12  1  0  0  0
 27 22  1  0  0  0
 11  5  2  0  0  0
 28 29  1  0  0  0
M  END
> <minimizedAffinity>
-8.46370

> <CNNscore>
0.4081262052

> <CNNaffinity>
6.6929140091

> <CNN_VS>
2.7315535545

> <CNNaffinity_variance>
0.1253429800

$$$$
[H]c1nc(N2C([H])([H])C([H])([H])c3nc(-c4c([H])c([H])c([H])c([H])c4[H])nc(N([H])c4c([H])c([H])c(C(F)(F)F)c([H])c4[H])c3C([H])([H])C2([H])[H])c(C(F)(F)F)c([H])c1[H]


 39 43  0  0  0  0  0  0  0  0999 V2000
  152.4158  136.2331  187.1199 C   0  0  0  0  0  0  0  0  0  0  0  0
  152.1687  135.5752  188.2894 N   0  0  0  0  0  0  0  0  0  0  0  0
  150.9394  135.3819  188.7759 C   0  0  0  0  0  0  0  0  0  0  0  0
  149.8982  135.8636  188.0468 N   0  0  0  0  0  0  0  0  0  0  0  0
  150.0624  136.5351  186.8699 C   0  0  0  0  0  0  0  0  0  0  0  0
  148.8006  136.8165  186.1962 C   0  0  0  0  0  0  0  0  0  0  0  0
  148.8476  137.5167  184.9064 C   0  0  0  0  0  0  0  0  0  0  0  0
  149.7907  137.2827  183.8852 N   0  0  0  0  0  0  0  0  0  0  0  0
  151.2952  137.1590  183.9646 C   0  0  0  0  0  0  0  0  0  0  0  0
  151.7077  137.6531  185.2822 C   0  0  0  0  0  0  0  0  0  0  0  0
  151.3374  136.7278  186.4136 C   0  0  0  0  0  0  0  0  0  0  0  0
  149.4788  137.1193  182.5071 C   0  0  0  0  0  0  0  0  0  0  0  0
  149.6423  138.2654  181.7349 N   0  0  0  0  0  0  0  0  0  0  0  0
  149.3099  138.2938  180.4373 C   0  0  0  0  0  0  0  0  0  0  0  0
  148.7950  137.1646  179.8326 C   0  0  0  0  0  0  0  0  0  0  0  0
  148.6318  136.0291  180.5756 C   0  0  0  0  0  0  0  0  0  0  0  0
  148.9792  135.9977  181.9461 C   0  0  0  0  0  0  0  0  0  0  0  0
  148.7714  134.7298  182.6467 C   0  0  0  0  0  0  0  0  0  0  0  0
  149.7096  134.4500  183.6287 F   0  0  0  0  0  0  0  0  0  0  0  0
  148.4489  133.6493  181.8876 F   0  0  0  0  0  0  0  0  0  0  0  0
  147.5938  134.8997  183.4598 F   0  0  0  0  0  0  0  0  0  0  0  0
  150.6615  134.8072  190.0912 C   0  0  0  0  0  0  0  0  0  0  0  0
  149.4243  134.8463  190.6859 C   0  0  0  0  0  0  0  0  0  0  0  0
  149.2175  134.2699  191.9499 C   0  0  0  0  0  0  0  0  0  0  0  0
  150.2338  133.6472  192.6344 C   0  0  0  0  0  0  0  0  0  0  0  0
  151.4878  133.6018  192.0460 C   0  0  0  0  0  0  0  0  0  0  0  0
  151.6481  134.1741  190.8200 C   0  0  0  0  0  0  0  0  0  0  0  0
  153.6576  136.3365  186.5219 N   0  0  0  0  0  0  0  0  0  0  0  0
  154.2765  137.1949  186.7125 H   0  0  0  0  0  0  0  0  0  0  0  0
  155.3621  133.5751  183.8003 C   0  0  0  0  0  0  0  0  0  0  0  0
  155.5104  133.4260  185.1517 C   0  0  0  0  0  0  0  0  0  0  0  0
  154.9816  134.3654  186.0454 C   0  0  0  0  0  0  0  0  0  0  0  0
  154.2898  135.4767  185.5923 C   0  0  0  0  0  0  0  0  0  0  0  0
  154.1570  135.6191  184.2330 C   0  0  0  0  0  0  0  0  0  0  0  0
  154.6810  134.6847  183.3544 C   0  0  0  0  0  0  0  0  0  0  0  0
  156.6013  133.0374  181.8175 F   0  0  0  0  0  0  0  0  0  0  0  0
  155.8746  132.5176  182.8515 C   0  0  0  0  0  0  0  0  0  0  0  0
  154.8427  131.6930  182.4665 F   0  0  0  0  0  0  0  0  0  0  0  0
  156.7709  131.6923  183.5660 F   0  0  0  0  0  0  0  0  0  0  0  0
 36 37  1  0  0  0
 37 38  1  0  0  0
 37 39  1  0  0  0
 37 30  1  0  0  0
 30 31  2  0  0  0
 31 32  1  0  0  0
 32 33  2  0  0  0
 33 28  1  0  0  0
 28  1  1  0  0  0
  1  2  2  0  0  0
  2  3  1  0  0  0
  3  4  2  0  0  0
  4  5  1  0  0  0
  5  6  1  0  0  0
  6  7  1  0  0  0
  7  8  1  0  0  0
  8  9  1  0  0  0
  9 10  1  0  0  0
 10 11  1  0  0  0
  8 12  1  0  0  0
 12 13  2  0  0  0
 13 14  1  0  0  0
 14 15  2  0  0  0
 15 16  1  0  0  0
 16 17  2  0  0  0
 17 18  1  0  0  0
 18 19  1  0  0  0
 18 20  1  0  0  0
 18 21  1  0  0  0
  3 22  1  0  0  0
 22 23  2  0  0  0
 23 24  1  0  0  0
 24 25  2  0  0  0
 25 26  1  0  0  0
 26 27  2  0  0  0
 33 34  1  0  0  0
 34 35  2  0  0  0
 35 30  1  0  0  0
 11  1  1  0  0  0
 17 12  1  0  0  0
 27 22  1  0  0  0
 11  5  2  0  0  0
 28 29  1  0  0  0
M  END
> <minimizedAffinity>
-4.34316

> <CNNscore>
0.3999781311

> <CNNaffinity>
6.5750646591

> <CNN_VS>
2.6298820972

> <CNNaffinity_variance>
1.7238048315

$$$$
[H]c1nc(N2C([H])([H])C([H])([H])c3nc(-c4c([H])c([H])c([H])c([H])c4[H])nc(N([H])c4c([H])c([H])c(C(F)(F)F)c([H])c4[H])c3C([H])([H])C2([H])[H])c(C(F)(F)F)c([H])c1[H]


 39 43  0  0  0  0  0  0  0  0999 V2000
  153.5271  139.0856  184.4113 C   0  0  0  0  0  0  0  0  0  0  0  0
  154.3257  140.1821  184.2638 N   0  0  0  0  0  0  0  0  0  0  0  0
  154.5718  140.7558  183.0825 C   0  0  0  0  0  0  0  0  0  0  0  0
  153.9774  140.2095  181.9889 N   0  0  0  0  0  0  0  0  0  0  0  0
  153.1687  139.1118  182.0526 C   0  0  0  0  0  0  0  0  0  0  0  0
  152.5261  138.8056  180.7804 C   0  0  0  0  0  0  0  0  0  0  0  0
  151.6124  137.6574  180.7270 C   0  0  0  0  0  0  0  0  0  0  0  0
  150.6827  137.3077  181.7272 N   0  0  0  0  0  0  0  0  0  0  0  0
  150.8643  137.1966  183.2237 C   0  0  0  0  0  0  0  0  0  0  0  0
  152.3058  137.1989  183.4927 C   0  0  0  0  0  0  0  0  0  0  0  0
  152.9548  138.5428  183.2779 C   0  0  0  0  0  0  0  0  0  0  0  0
  149.3218  136.9658  181.4938 C   0  0  0  0  0  0  0  0  0  0  0  0
  149.0887  135.6069  181.3056 N   0  0  0  0  0  0  0  0  0  0  0  0
  147.8733  135.1374  180.9931 C   0  0  0  0  0  0  0  0  0  0  0  0
  146.8119  136.0093  180.8551 C   0  0  0  0  0  0  0  0  0  0  0  0
  147.0227  137.3469  181.0405 C   0  0  0  0  0  0  0  0  0  0  0  0
  148.3053  137.8450  181.3675 C   0  0  0  0  0  0  0  0  0  0  0  0
  148.4197  139.2923  181.5515 C   0  0  0  0  0  0  0  0  0  0  0  0
  149.3670  139.9056  180.7456 F   0  0  0  0  0  0  0  0  0  0  0  0
  148.4200  139.7552  182.8295 F   0  0  0  0  0  0  0  0  0  0  0  0
  147.2141  139.8699  181.0132 F   0  0  0  0  0  0  0  0  0  0  0  0
  155.5328  141.8396  182.8843 C   0  0  0  0  0  0  0  0  0  0  0  0
  156.8850  141.6935  183.0739 C   0  0  0  0  0  0  0  0  0  0  0  0
  157.7599  142.7714  182.8607 C   0  0  0  0  0  0  0  0  0  0  0  0
  157.3031  144.0026  182.4549 C   0  0  0  0  0  0  0  0  0  0  0  0
  155.9402  144.1640  182.2609 C   0  0  0  0  0  0  0  0  0  0  0  0
  155.1247  143.0948  182.4801 C   0  0  0  0  0  0  0  0  0  0  0  0
  153.1456  138.5471  185.6257 N   0  0  0  0  0  0  0  0  0  0  0  0
  152.1186  138.2775  185.7957 H   0  0  0  0  0  0  0  0  0  0  0  0
  155.5407  138.1039  189.0905 C   0  0  0  0  0  0  0  0  0  0  0  0
  156.0832  138.0348  187.8369 C   0  0  0  0  0  0  0  0  0  0  0  0
  155.2800  138.1388  186.6945 C   0  0  0  0  0  0  0  0  0  0  0  0
  153.9098  138.3161  186.7943 C   0  0  0  0  0  0  0  0  0  0  0  0
  153.3773  138.3737  188.0587 C   0  0  0  0  0  0  0  0  0  0  0  0
  154.1781  138.2722  189.1848 C   0  0  0  0  0  0  0  0  0  0  0  0
  155.9854  138.8759  191.3182 F   0  0  0  0  0  0  0  0  0  0  0  0
  156.4270  138.0626  190.3128 C   0  0  0  0  0  0  0  0  0  0  0  0
  157.7382  138.2655  189.9483 F   0  0  0  0  0  0  0  0  0  0  0  0
  156.3797  136.7524  190.8381 F   0  0  0  0  0  0  0  0  0  0  0  0
 36 37  1  0  0  0
 37 38  1  0  0  0
 37 39  1  0  0  0
 37 30  1  0  0  0
 30 31  2  0  0  0
 31 32  1  0  0  0
 32 33  2  0  0  0
 33 28  1  0  0  0
 28  1  1  0  0  0
  1  2  2  0  0  0
  2  3  1  0  0  0
  3  4  2  0  0  0
  4  5  1  0  0  0
  5  6  1  0  0  0
  6  7  1  0  0  0
  7  8  1  0  0  0
  8  9  1  0  0  0
  9 10  1  0  0  0
 10 11  1  0  0  0
  8 12  1  0  0  0
 12 13  2  0  0  0
 13 14  1  0  0  0
 14 15  2  0  0  0
 15 16  1  0  0  0
 16 17  2  0  0  0
 17 18  1  0  0  0
 18 19  1  0  0  0
 18 20  1  0  0  0
 18 21  1  0  0  0
  3 22  1  0  0  0
 22 23  2  0  0  0
 23 24  1  0  0  0
 24 25  2  0  0  0
 25 26  1  0  0  0
 26 27  2  0  0  0
 33 34  1  0  0  0
 34 35  2  0  0  0
 35 30  1  0  0  0
 11  1  1  0  0  0
 17 12  1  0  0  0
 27 22  1  0  0  0
 11  5  2  0  0  0
 28 29  1  0  0  0
M  END
> <minimizedAffinity>
-9.31407

> <CNNscore>
0.3934707642

> <CNNaffinity>
6.6449203491

> <CNN_VS>
2.6145818233

> <CNNaffinity_variance>
0.0994932428

$$$$
[H]c1nc(N2C([H])([H])C([H])([H])c3nc(-c4c([H])c([H])c([H])c([H])c4[H])nc(N([H])c4c([H])c([H])c(C(F)(F)F)c([H])c4[H])c3C([H])([H])C2([H])[H])c(C(F)(F)F)c([H])c1[H]


 39 43  0  0  0  0  0  0  0  0999 V2000
  154.0433  139.7044  183.7700 C   0  0  0  0  0  0  0  0  0  0  0  0
  153.1490  139.8336  182.7477 N   0  0  0  0  0  0  0  0  0  0  0  0
  152.3277  138.8519  182.3642 C   0  0  0  0  0  0  0  0  0  0  0  0
  152.3965  137.6793  183.0482 N   0  0  0  0  0  0  0  0  0  0  0  0
  153.2658  137.4701  184.0795 C   0  0  0  0  0  0  0  0  0  0  0  0
  153.0490  136.1967  184.7551 C   0  0  0  0  0  0  0  0  0  0  0  0
  153.9093  135.8661  185.8982 C   0  0  0  0  0  0  0  0  0  0  0  0
  154.3226  136.7714  186.8966 N   0  0  0  0  0  0  0  0  0  0  0  0
  154.8942  138.1646  186.7656 C   0  0  0  0  0  0  0  0  0  0  0  0
  155.2791  138.3516  185.3631 C   0  0  0  0  0  0  0  0  0  0  0  0
  154.1023  138.4936  184.4312 C   0  0  0  0  0  0  0  0  0  0  0  0
  154.2825  136.5185  188.2957 C   0  0  0  0  0  0  0  0  0  0  0  0
  153.1841  137.0642  188.9531 N   0  0  0  0  0  0  0  0  0  0  0  0
  153.0482  136.9839  190.2836 C   0  0  0  0  0  0  0  0  0  0  0  0
  154.0105  136.3424  191.0376 C   0  0  0  0  0  0  0  0  0  0  0  0
  155.0938  135.7973  190.4072 C   0  0  0  0  0  0  0  0  0  0  0  0
  155.2408  135.8834  189.0034 C   0  0  0  0  0  0  0  0  0  0  0  0
  156.4337  135.2598  188.4292 C   0  0  0  0  0  0  0  0  0  0  0  0
  157.3446  136.1491  187.8793 F   0  0  0  0  0  0  0  0  0  0  0  0
  156.2463  134.1459  187.6731 F   0  0  0  0  0  0  0  0  0  0  0  0
  157.2056  134.7560  189.5369 F   0  0  0  0  0  0  0  0  0  0  0  0
  151.4655  138.9208  181.1854 C   0  0  0  0  0  0  0  0  0  0  0  0
  150.4406  138.0384  180.9473 C   0  0  0  0  0  0  0  0  0  0  0  0
  149.6414  138.1602  179.7987 C   0  0  0  0  0  0  0  0  0  0  0  0
  149.8487  139.1591  178.8776 C   0  0  0  0  0  0  0  0  0  0  0  0
  150.8807  140.0559  179.1053 C   0  0  0  0  0  0  0  0  0  0  0  0
  151.6343  139.9027  180.2300 C   0  0  0  0  0  0  0  0  0  0  0  0
  154.8121  140.7344  184.2783 N   0  0  0  0  0  0  0  0  0  0  0  0
  154.6501  141.0813  185.2831 H   0  0  0  0  0  0  0  0  0  0  0  0
  157.7609  143.2549  182.5785 C   0  0  0  0  0  0  0  0  0  0  0  0
  156.4278  143.4780  182.3696 C   0  0  0  0  0  0  0  0  0  0  0  0
  155.4587  142.6165  182.8982 C   0  0  0  0  0  0  0  0  0  0  0  0
  155.8161  141.5100  183.6511 C   0  0  0  0  0  0  0  0  0  0  0  0
  157.1581  141.2925  183.8445 C   0  0  0  0  0  0  0  0  0  0  0  0
  158.1116  142.1502  183.3203 C   0  0  0  0  0  0  0  0  0  0  0  0
  159.2209  143.9358  180.8005 F   0  0  0  0  0  0  0  0  0  0  0  0
  158.7916  144.2316  182.0636 C   0  0  0  0  0  0  0  0  0  0  0  0
  159.7989  144.3815  182.9888 F   0  0  0  0  0  0  0  0  0  0  0  0
  158.1765  145.4994  181.9667 F   0  0  0  0  0  0  0  0  0  0  0  0
 36 37  1  0  0  0
 37 38  1  0  0  0
 37 39  1  0  0  0
 37 30  1  0  0  0
 30 31  2  0  0  0
 31 32  1  0  0  0
 32 33  2  0  0  0
 33 28  1  0  0  0
 28  1  1  0  0  0
  1  2  2  0  0  0
  2  3  1  0  0  0
  3  4  2  0  0  0
  4  5  1  0  0  0
  5  6  1  0  0  0
  6  7  1  0  0  0
  7  8  1  0  0  0
  8  9  1  0  0  0
  9 10  1  0  0  0
 10 11  1  0  0  0
  8 12  1  0  0  0
 12 13  2  0  0  0
 13 14  1  0  0  0
 14 15  2  0  0  0
 15 16  1  0  0  0
 16 17  2  0  0  0
 17 18  1  0  0  0
 18 19  1  0  0  0
 18 20  1  0  0  0
 18 21  1  0  0  0
  3 22  1  0  0  0
 22 23  2  0  0  0
 23 24  1  0  0  0
 24 25  2  0  0  0
 25 26  1  0  0  0
 26 27  2  0  0  0
 33 34  1  0  0  0
 34 35  2  0  0  0
 35 30  1  0  0  0
 11  1  1  0  0  0
 17 12  1  0  0  0
 27 22  1  0  0  0
 11  5  2  0  0  0
 28 29  1  0  0  0
M  END
> <minimizedAffinity>
-9.49806

> <CNNscore>
0.3900762200

> <CNNaffinity>
6.9779129028

> <CNN_VS>
2.7219178677

> <CNNaffinity_variance>
0.2280485332

$$$$
[H]c1nc(N2C([H])([H])C([H])([H])c3nc(-c4c([H])c([H])c([H])c([H])c4[H])nc(N([H])c4c([H])c([H])c(C(F)(F)F)c([H])c4[H])c3C([H])([H])C2([H])[H])c(C(F)(F)F)c([H])c1[H]


 39 43  0  0  0  0  0  0  0  0999 V2000
  151.0475  137.1938  185.9966 C   0  0  0  0  0  0  0  0  0  0  0  0
  151.4601  136.1369  186.7545 N   0  0  0  0  0  0  0  0  0  0  0  0
  150.8791  134.9344  186.7132 C   0  0  0  0  0  0  0  0  0  0  0  0
  149.8341  134.7766  185.8583 N   0  0  0  0  0  0  0  0  0  0  0  0
  149.3597  135.7848  185.0700 C   0  0  0  0  0  0  0  0  0  0  0  0
  148.3402  135.3375  184.1289 C   0  0  0  0  0  0  0  0  0  0  0  0
  147.7672  136.3284  183.2091 C   0  0  0  0  0  0  0  0  0  0  0  0
  148.4907  137.3412  182.5475 N   0  0  0  0  0  0  0  0  0  0  0  0
  149.5117  138.3153  183.0893 C   0  0  0  0  0  0  0  0  0  0  0  0
  149.4232  138.2760  184.5525 C   0  0  0  0  0  0  0  0  0  0  0  0
  149.9703  137.0060  185.1534 C   0  0  0  0  0  0  0  0  0  0  0  0
  148.3772  137.6559  181.1649 C   0  0  0  0  0  0  0  0  0  0  0  0
  147.0864  137.5657  180.6530 N   0  0  0  0  0  0  0  0  0  0  0  0
  146.8306  137.7500  179.3507 C   0  0  0  0  0  0  0  0  0  0  0  0
  147.8614  138.0428  178.4803 C   0  0  0  0  0  0  0  0  0  0  0  0
  149.1348  138.1391  178.9674 C   0  0  0  0  0  0  0  0  0  0  0  0
  149.4075  137.9421  180.3410 C   0  0  0  0  0  0  0  0  0  0  0  0
  150.8038  138.0755  180.7584 C   0  0  0  0  0  0  0  0  0  0  0  0
  151.1294  139.3067  181.3071 F   0  0  0  0  0  0  0  0  0  0  0  0
  151.7516  137.5977  179.9092 F   0  0  0  0  0  0  0  0  0  0  0  0
  150.9682  137.2297  181.9135 F   0  0  0  0  0  0  0  0  0  0  0  0
  151.2126  133.8337  187.6158 C   0  0  0  0  0  0  0  0  0  0  0  0
  152.5006  133.5009  187.9566 C   0  0  0  0  0  0  0  0  0  0  0  0
  152.7578  132.4357  188.8352 C   0  0  0  0  0  0  0  0  0  0  0  0
  151.7410  131.6928  189.3862 C   0  0  0  0  0  0  0  0  0  0  0  0
  150.4363  132.0175  189.0497 C   0  0  0  0  0  0  0  0  0  0  0  0
  150.2288  133.0562  188.1928 C   0  0  0  0  0  0  0  0  0  0  0  0
  151.7029  138.4079  185.9155 N   0  0  0  0  0  0  0  0  0  0  0  0
  151.1904  139.3148  186.1823 H   0  0  0  0  0  0  0  0  0  0  0  0
  155.5133  139.3126  184.3029 C   0  0  0  0  0  0  0  0  0  0  0  0
  154.9301  138.0908  184.1084 C   0  0  0  0  0  0  0  0  0  0  0  0
  153.6896  137.7822  184.6800 C   0  0  0  0  0  0  0  0  0  0  0  0
  153.0103  138.7029  185.4608 C   0  0  0  0  0  0  0  0  0  0  0  0
  153.6119  139.9218  185.6561 C   0  0  0  0  0  0  0  0  0  0  0  0
  154.8385  140.2213  185.0857 C   0  0  0  0  0  0  0  0  0  0  0  0
  157.8916  139.5854  184.4621 F   0  0  0  0  0  0  0  0  0  0  0  0
  156.8165  139.6572  183.6217 C   0  0  0  0  0  0  0  0  0  0  0  0
  156.6939  140.8530  182.9522 F   0  0  0  0  0  0  0  0  0  0  0  0
  157.0525  138.6875  182.6222 F   0  0  0  0  0  0  0  0  0  0  0  0
 36 37  1  0  0  0
 37 38  1  0  0  0
 37 39  1  0  0  0
 37 30  1  0  0  0
 30 31  2  0  0  0
 31 32  1  0  0  0
 32 33  2  0  0  0
 33 28  1  0  0  0
 28  1  1  0  0  0
  1  2  2  0  0  0
  2  3  1  0  0  0
  3  4  2  0  0  0
  4  5  1  0  0  0
  5  6  1  0  0  0
  6  7  1  0  0  0
  7  8  1  0  0  0
  8  9  1  0  0  0
  9 10  1  0  0  0
 10 11  1  0  0  0
  8 12  1  0  0  0
 12 13  2  0  0  0
 13 14  1  0  0  0
 14 15  2  0  0  0
 15 16  1  0  0  0
 16 17  2  0  0  0
 17 18  1  0  0  0
 18 19  1  0  0  0
 18 20  1  0  0  0
 18 21  1  0  0  0
  3 22  1  0  0  0
 22 23  2  0  0  0
 23 24  1  0  0  0
 24 25  2  0  0  0
 25 26  1  0  0  0
 26 27  2  0  0  0
 33 34  1  0  0  0
 34 35  2  0  0  0
 35 30  1  0  0  0
 11  1  1  0  0  0
 17 12  1  0  0  0
 27 22  1  0  0  0
 11  5  2  0  0  0
 28 29  1  0  0  0
M  END
> <minimizedAffinity>
-1.08295

> <CNNscore>
0.3806536198

> <CNNaffinity>
6.6979508400

> <CNN_VS>
2.5495991707

> <CNNaffinity_variance>
2.2398774624

$$$$
[H]c1nc(N2C([H])([H])C([H])([H])c3nc(-c4c([H])c([H])c([H])c([H])c4[H])nc(N([H])c4c([H])c([H])c(C(F)(F)F)c([H])c4[H])c3C([H])([H])C2([H])[H])c(C(F)(F)F)c([H])c1[H]


 39 43  0  0  0  0  0  0  0  0999 V2000
  155.2438  139.3061  184.1582 C   0  0  0  0  0  0  0  0  0  0  0  0
  156.4910  139.6355  183.7135 N   0  0  0  0  0  0  0  0  0  0  0  0
  157.4924  139.9794  184.5285 C   0  0  0  0  0  0  0  0  0  0  0  0
  157.2357  139.9834  185.8633 N   0  0  0  0  0  0  0  0  0  0  0  0
  156.0146  139.6701  186.3865 C   0  0  0  0  0  0  0  0  0  0  0  0
  156.0238  139.5930  187.8423 C   0  0  0  0  0  0  0  0  0  0  0  0
  154.7713  139.2408  188.5230 C   0  0  0  0  0  0  0  0  0  0  0  0
  153.8527  138.2646  188.0870 N   0  0  0  0  0  0  0  0  0  0  0  0
  153.2668  138.0292  186.7136 C   0  0  0  0  0  0  0  0  0  0  0  0
  153.5575  139.2159  185.9027 C   0  0  0  0  0  0  0  0  0  0  0  0
  155.0103  139.3398  185.5187 C   0  0  0  0  0  0  0  0  0  0  0  0
  153.2668  137.2670  188.9145 C   0  0  0  0  0  0  0  0  0  0  0  0
  151.8790  137.3240  188.9988 N   0  0  0  0  0  0  0  0  0  0  0  0
  151.1879  136.5056  189.8036 C   0  0  0  0  0  0  0  0  0  0  0  0
  151.8529  135.5718  190.5728 C   0  0  0  0  0  0  0  0  0  0  0  0
  153.2157  135.4996  190.4989 C   0  0  0  0  0  0  0  0  0  0  0  0
  153.9474  136.3643  189.6524 C   0  0  0  0  0  0  0  0  0  0  0  0
  155.4014  136.1981  189.6431 C   0  0  0  0  0  0  0  0  0  0  0  0
  156.0352  136.5761  190.8172 F   0  0  0  0  0  0  0  0  0  0  0  0
  156.0622  136.5948  188.5235 F   0  0  0  0  0  0  0  0  0  0  0  0
  155.6511  134.7789  189.6638 F   0  0  0  0  0  0  0  0  0  0  0  0
  158.7898  140.4710  184.0674 C   0  0  0  0  0  0  0  0  0  0  0  0
  159.9650  140.2459  184.7411 C   0  0  0  0  0  0  0  0  0  0  0  0
  161.1827  140.7388  184.2439 C   0  0  0  0  0  0  0  0  0  0  0  0
  161.2469  141.4563  183.0733 C   0  0  0  0  0  0  0  0  0  0  0  0
  160.0678  141.6916  182.3840 C   0  0  0  0  0  0  0  0  0  0  0  0
  158.9073  141.1984  182.9002 C   0  0  0  0  0  0  0  0  0  0  0  0
  154.2259  138.8204  183.3592 N   0  0  0  0  0  0  0  0  0  0  0  0
  154.1089  137.7603  183.2222 H   0  0  0  0  0  0  0  0  0  0  0  0
  151.2586  141.0163  181.2829 C   0  0  0  0  0  0  0  0  0  0  0  0
  150.9437  139.8923  181.9957 C   0  0  0  0  0  0  0  0  0  0  0  0
  151.9350  139.1458  182.6444 C   0  0  0  0  0  0  0  0  0  0  0  0
  153.2675  139.5200  182.5878 C   0  0  0  0  0  0  0  0  0  0  0  0
  153.5707  140.6446  181.8605 C   0  0  0  0  0  0  0  0  0  0  0  0
  152.5846  141.3798  181.2227 C   0  0  0  0  0  0  0  0  0  0  0  0
  148.9698  141.7358  181.2885 F   0  0  0  0  0  0  0  0  0  0  0  0
  150.1717  141.8515  180.6487 C   0  0  0  0  0  0  0  0  0  0  0  0
  150.1237  141.6094  179.2951 F   0  0  0  0  0  0  0  0  0  0  0  0
  150.5387  143.2095  180.7765 F   0  0  0  0  0  0  0  0  0  0  0  0
 36 37  1  0  0  0
 37 38  1  0  0  0
 37 39  1  0  0  0
 37 30  1  0  0  0
 30 31  2  0  0  0
 31 32  1  0  0  0
 32 33  2  0  0  0
 33 28  1  0  0  0
 28  1  1  0  0  0
  1  2  2  0  0  0
  2  3  1  0  0  0
  3  4  2  0  0  0
  4  5  1  0  0  0
  5  6  1  0  0  0
  6  7  1  0  0  0
  7  8  1  0  0  0
  8  9  1  0  0  0
  9 10  1  0  0  0
 10 11  1  0  0  0
  8 12  1  0  0  0
 12 13  2  0  0  0
 13 14  1  0  0  0
 14 15  2  0  0  0
 15 16  1  0  0  0
 16 17  2  0  0  0
 17 18  1  0  0  0
 18 19  1  0  0  0
 18 20  1  0  0  0
 18 21  1  0  0  0
  3 22  1  0  0  0
 22 23  2  0  0  0
 23 24  1  0  0  0
 24 25  2  0  0  0
 25 26  1  0  0  0
 26 27  2  0  0  0
 33 34  1  0  0  0
 34 35  2  0  0  0
 35 30  1  0  0  0
 11  1  1  0  0  0
 17 12  1  0  0  0
 27 22  1  0  0  0
 11  5  2  0  0  0
 28 29  1  0  0  0
M  END
> <minimizedAffinity>
9.54897

> <CNNscore>
0.3781144023

> <CNNaffinity>
6.8144507408

> <CNN_VS>
2.5766420364

> <CNNaffinity_variance>
2.0946011543

$$$$
[H]c1nc(N2C([H])([H])C([H])([H])c3nc(N4C([H])([H])C([H])([H])OC([H])([H])C4([H])[H])nc(N([H])c4c([H])c([H])c(C(C([H])([H])[H])(C([H])([H])[H])C([H])([H])[H])c([H])c4[H])c3C([H])([H])C2([H])[H])c(C(F)(F)F)c([H])c1[H]


 39 43  0  0  0  0  0  0  0  0999 V2000
  154.0958  137.3297  184.7600 C   0  0  0  0  0  0  0  0  0  0  0  0
  153.9434  136.4478  183.7718 N   0  0  0  0  0  0  0  0  0  0  0  0
  154.2118  135.1440  183.8112 C   0  0  0  0  0  0  0  0  0  0  0  0
  154.6974  134.6431  184.9806 N   0  0  0  0  0  0  0  0  0  0  0  0
  154.8817  135.4748  186.0371 C   0  0  0  0  0  0  0  0  0  0  0  0
  155.4474  134.7266  187.2091 C   0  0  0  0  0  0  0  0  0  0  0  0
  154.5075  134.9212  188.3847 C   0  0  0  0  0  0  0  0  0  0  0  0
  154.6199  136.2662  188.8990 N   0  0  0  0  0  0  0  0  0  0  0  0
  155.2773  137.3719  188.3021 C   0  0  0  0  0  0  0  0  0  0  0  0
  154.6818  137.8519  187.0031 C   0  0  0  0  0  0  0  0  0  0  0  0
  154.5962  136.8063  185.9713 C   0  0  0  0  0  0  0  0  0  0  0  0
  153.9815  136.4399  190.1458 C   0  0  0  0  0  0  0  0  0  0  0  0
  152.5939  136.4993  190.1112 N   0  0  0  0  0  0  0  0  0  0  0  0
  151.8725  136.5690  191.2280 C   0  0  0  0  0  0  0  0  0  0  0  0
  152.5415  136.5796  192.4311 C   0  0  0  0  0  0  0  0  0  0  0  0
  153.9266  136.5228  192.5160 C   0  0  0  0  0  0  0  0  0  0  0  0
  154.6695  136.4523  191.3140 C   0  0  0  0  0  0  0  0  0  0  0  0
  156.1261  136.4402  191.4094 C   0  0  0  0  0  0  0  0  0  0  0  0
  156.7581  137.6166  191.1147 F   0  0  0  0  0  0  0  0  0  0  0  0
  156.5029  136.1698  192.7434 F   0  0  0  0  0  0  0  0  0  0  0  0
  156.7672  135.4534  190.6838 F   0  0  0  0  0  0  0  0  0  0  0  0
  153.9998  134.2560  182.7194 N   0  0  0  0  0  0  0  0  0  0  0  0
  154.3446  132.8451  182.8130 C   0  0  0  0  0  0  0  0  0  0  0  0
  155.3126  132.5207  181.7178 C   0  0  0  0  0  0  0  0  0  0  0  0
  155.4746  133.5836  180.8218 O   0  0  0  0  0  0  0  0  0  0  0  0
  154.2215  134.0274  180.3673 C   0  0  0  0  0  0  0  0  0  0  0  0
  153.4405  134.7264  181.4725 C   0  0  0  0  0  0  0  0  0  0  0  0
  153.8151  138.7000  184.6673 N   0  0  0  0  0  0  0  0  0  0  0  0
  152.9293  139.0565  185.1154 H   0  0  0  0  0  0  0  0  0  0  0  0
  156.2731  141.5993  182.7669 C   0  0  0  0  0  0  0  0  0  0  0  0
  156.7614  140.6717  183.6434 C   0  0  0  0  0  0  0  0  0  0  0  0
  155.9707  139.7355  184.2628 C   0  0  0  0  0  0  0  0  0  0  0  0
  154.5855  139.6915  184.0134 C   0  0  0  0  0  0  0  0  0  0  0  0
  154.1238  140.6299  183.1358 C   0  0  0  0  0  0  0  0  0  0  0  0
  154.9339  141.5837  182.5039 C   0  0  0  0  0  0  0  0  0  0  0  0
  158.4364  142.6883  182.9645 C   0  0  0  0  0  0  0  0  0  0  0  0
  157.1692  142.5857  182.1144 C   0  0  0  0  0  0  0  0  0  0  0  0
  157.5934  142.1824  180.7325 C   0  0  0  0  0  0  0  0  0  0  0  0
  156.4626  143.9219  182.0625 C   0  0  0  0  0  0  0  0  0  0  0  0
 36 37  1  0  0  0
 37 38  1  0  0  0
 37 39  1  0  0  0
 37 30  1  0  0  0
 30 31  2  0  0  0
 31 32  1  0  0  0
 32 33  2  0  0  0
 33 28  1  0  0  0
 28  1  1  0  0  0
  1  2  2  0  0  0
  2  3  1  0  0  0
  3  4  2  0  0  0
  4  5  1  0  0  0
  5  6  1  0  0  0
  6  7  1  0  0  0
  7  8  1  0  0  0
  8  9  1  0  0  0
  9 10  1  0  0  0
 10 11  1  0  0  0
  8 12  1  0  0  0
 12 13  2  0  0  0
 13 14  1  0  0  0
 14 15  2  0  0  0
 15 16  1  0  0  0
 16 17  2  0  0  0
 17 18  1  0  0  0
 18 19  1  0  0  0
 18 20  1  0  0  0
 18 21  1  0  0  0
  3 22  1  0  0  0
 22 23  1  0  0  0
 23 24  1  0  0  0
 24 25  1  0  0  0
 25 26  1  0  0  0
 26 27  1  0  0  0
 33 34  1  0  0  0
 34 35  2  0  0  0
 35 30  1  0  0  0
 11  1  1  0  0  0
 17 12  1  0  0  0
 27 22  1  0  0  0
 11  5  2  0  0  0
 28 29  1  0  0  0
M  END
> <minimizedAffinity>
-8.37872

> <CNNscore>
0.5113047957

> <CNNaffinity>
6.9288558960

> <CNN_VS>
3.5427572727

> <CNNaffinity_variance>
0.0666749626

$$$$
[H]c1nc(N2C([H])([H])C([H])([H])c3nc(N4C([H])([H])C([H])([H])OC([H])([H])C4([H])[H])nc(N([H])c4c([H])c([H])c(C(C([H])([H])[H])(C([H])([H])[H])C([H])([H])[H])c([H])c4[H])c3C([H])([H])C2([H])[H])c(C(F)(F)F)c([H])c1[H]


 39 43  0  0  0  0  0  0  0  0999 V2000
  154.1227  137.2605  184.7515 C   0  0  0  0  0  0  0  0  0  0  0  0
  153.9203  136.3755  183.7751 N   0  0  0  0  0  0  0  0  0  0  0  0
  154.1312  135.0616  183.8264 C   0  0  0  0  0  0  0  0  0  0  0  0
  154.6073  134.5524  184.9962 N   0  0  0  0  0  0  0  0  0  0  0  0
  154.8401  135.3866  186.0411 C   0  0  0  0  0  0  0  0  0  0  0  0
  155.3852  134.6268  187.2154 C   0  0  0  0  0  0  0  0  0  0  0  0
  154.4681  134.8757  188.3987 C   0  0  0  0  0  0  0  0  0  0  0  0
  154.6457  136.2199  188.8965 N   0  0  0  0  0  0  0  0  0  0  0  0
  155.3446  137.2888  188.2800 C   0  0  0  0  0  0  0  0  0  0  0  0
  154.7563  137.7805  186.9821 C   0  0  0  0  0  0  0  0  0  0  0  0
  154.6129  136.7287  185.9633 C   0  0  0  0  0  0  0  0  0  0  0  0
  154.0296  136.4353  190.1480 C   0  0  0  0  0  0  0  0  0  0  0  0
  152.6460  136.5595  190.1271 N   0  0  0  0  0  0  0  0  0  0  0  0
  151.9408  136.6736  191.2506 C   0  0  0  0  0  0  0  0  0  0  0  0
  152.6225  136.6643  192.4465 C   0  0  0  0  0  0  0  0  0  0  0  0
  154.0042  136.5432  192.5177 C   0  0  0  0  0  0  0  0  0  0  0  0
  154.7299  136.4264  191.3089 C   0  0  0  0  0  0  0  0  0  0  0  0
  156.1853  136.3468  191.3893 C   0  0  0  0  0  0  0  0  0  0  0  0
  156.7822  135.4148  190.5860 F   0  0  0  0  0  0  0  0  0  0  0  0
  156.7425  137.5743  190.9680 F   0  0  0  0  0  0  0  0  0  0  0  0
  156.7080  136.1703  192.6570 F   0  0  0  0  0  0  0  0  0  0  0  0
  153.8679  134.1721  182.7471 N   0  0  0  0  0  0  0  0  0  0  0  0
  152.6422  133.3891  182.6931 C   0  0  0  0  0  0  0  0  0  0  0  0
  153.0095  131.9398  182.6133 C   0  0  0  0  0  0  0  0  0  0  0  0
  154.3846  131.7507  182.4335 O   0  0  0  0  0  0  0  0  0  0  0  0
  154.8399  132.5186  181.3488 C   0  0  0  0  0  0  0  0  0  0  0  0
  154.8144  134.0080  181.6673 C   0  0  0  0  0  0  0  0  0  0  0  0
  153.9018  138.6408  184.6463 N   0  0  0  0  0  0  0  0  0  0  0  0
  152.9923  139.0274  185.0150 H   0  0  0  0  0  0  0  0  0  0  0  0
  156.3497  141.6248  182.8678 C   0  0  0  0  0  0  0  0  0  0  0  0
  155.0024  141.5453  182.6540 C   0  0  0  0  0  0  0  0  0  0  0  0
  154.2080  140.5808  183.2232 C   0  0  0  0  0  0  0  0  0  0  0  0
  154.7644  139.6068  184.0745 C   0  0  0  0  0  0  0  0  0  0  0  0
  156.1118  139.7079  184.2695 C   0  0  0  0  0  0  0  0  0  0  0  0
  156.9202  140.6948  183.6879 C   0  0  0  0  0  0  0  0  0  0  0  0
  157.5240  142.2237  180.8264 C   0  0  0  0  0  0  0  0  0  0  0  0
  157.1656  142.6919  182.2376 C   0  0  0  0  0  0  0  0  0  0  0  0
  156.4367  143.9966  182.1003 C   0  0  0  0  0  0  0  0  0  0  0  0
  158.4200  142.8913  183.0587 C   0  0  0  0  0  0  0  0  0  0  0  0
 36 37  1  0  0  0
 37 38  1  0  0  0
 37 39  1  0  0  0
 37 30  1  0  0  0
 30 31  2  0  0  0
 31 32  1  0  0  0
 32 33  2  0  0  0
 33 28  1  0  0  0
 28  1  1  0  0  0
  1  2  2  0  0  0
  2  3  1  0  0  0
  3  4  2  0  0  0
  4  5  1  0  0  0
  5  6  1  0  0  0
  6  7  1  0  0  0
  7  8  1  0  0  0
  8  9  1  0  0  0
  9 10  1  0  0  0
 10 11  1  0  0  0
  8 12  1  0  0  0
 12 13  2  0  0  0
 13 14  1  0  0  0
 14 15  2  0  0  0
 15 16  1  0  0  0
 16 17  2  0  0  0
 17 18  1  0  0  0
 18 19  1  0  0  0
 18 20  1  0  0  0
 18 21  1  0  0  0
  3 22  1  0  0  0
 22 23  1  0  0  0
 23 24  1  0  0  0
 24 25  1  0  0  0
 25 26  1  0  0  0
 26 27  1  0  0  0
 33 34  1  0  0  0
 34 35  2  0  0  0
 35 30  1  0  0  0
 11  1  1  0  0  0
 17 12  1  0  0  0
 27 22  1  0  0  0
 11  5  2  0  0  0
 28 29  1  0  0  0
M  END
> <minimizedAffinity>
-8.13174

> <CNNscore>
0.4230394661

> <CNNaffinity>
6.8265752792

> <CNN_VS>
2.8879108429

> <CNNaffinity_variance>
0.0582490042

$$$$
[H]c1nc(N2C([H])([H])C([H])([H])c3nc(N4C([H])([H])C([H])([H])OC([H])([H])C4([H])[H])nc(N([H])c4c([H])c([H])c(C(C([H])([H])[H])(C([H])([H])[H])C([H])([H])[H])c([H])c4[H])c3C([H])([H])C2([H])[H])c(C(F)(F)F)c([H])c1[H]


 39 43  0  0  0  0  0  0  0  0999 V2000
  154.2657  137.9908  185.6806 C   0  0  0  0  0  0  0  0  0  0  0  0
  154.6724  137.9129  186.9480 N   0  0  0  0  0  0  0  0  0  0  0  0
  154.6642  136.8340  187.7286 C   0  0  0  0  0  0  0  0  0  0  0  0
  154.1898  135.6777  187.1881 N   0  0  0  0  0  0  0  0  0  0  0  0
  153.7562  135.6711  185.9021 C   0  0  0  0  0  0  0  0  0  0  0  0
  153.2521  134.3101  185.5190 C   0  0  0  0  0  0  0  0  0  0  0  0
  154.0321  133.8493  184.3014 C   0  0  0  0  0  0  0  0  0  0  0  0
  153.6133  134.5838  183.1304 N   0  0  0  0  0  0  0  0  0  0  0  0
  152.8036  135.7468  183.0786 C   0  0  0  0  0  0  0  0  0  0  0  0
  153.4004  136.9770  183.7131 C   0  0  0  0  0  0  0  0  0  0  0  0
  153.7778  136.7897  185.1229 C   0  0  0  0  0  0  0  0  0  0  0  0
  154.0969  134.0312  181.9249 C   0  0  0  0  0  0  0  0  0  0  0  0
  155.4521  134.2124  181.6780 N   0  0  0  0  0  0  0  0  0  0  0  0
  156.0466  133.6609  180.6220 C   0  0  0  0  0  0  0  0  0  0  0  0
  155.2784  132.8977  179.7721 C   0  0  0  0  0  0  0  0  0  0  0  0
  153.9207  132.6888  179.9770 C   0  0  0  0  0  0  0  0  0  0  0  0
  153.3130  133.2885  181.1051 C   0  0  0  0  0  0  0  0  0  0  0  0
  151.8767  133.1033  181.2883 C   0  0  0  0  0  0  0  0  0  0  0  0
  151.0867  134.1732  180.9699 F   0  0  0  0  0  0  0  0  0  0  0  0
  151.4272  132.0744  180.4317 F   0  0  0  0  0  0  0  0  0  0  0  0
  151.4812  132.6782  182.5430 F   0  0  0  0  0  0  0  0  0  0  0  0
  155.1390  136.8206  189.0702 N   0  0  0  0  0  0  0  0  0  0  0  0
  154.2808  136.4140  190.1731 C   0  0  0  0  0  0  0  0  0  0  0  0
  154.2149  137.5375  191.1606 C   0  0  0  0  0  0  0  0  0  0  0  0
  155.1124  138.5665  190.8533 O   0  0  0  0  0  0  0  0  0  0  0  0
  156.4022  138.0423  190.6657 C   0  0  0  0  0  0  0  0  0  0  0  0
  156.4916  137.2191  189.3872 C   0  0  0  0  0  0  0  0  0  0  0  0
  154.2772  139.1557  184.9010 N   0  0  0  0  0  0  0  0  0  0  0  0
  153.3631  139.6588  184.7468 H   0  0  0  0  0  0  0  0  0  0  0  0
  157.5123  141.0250  182.8764 C   0  0  0  0  0  0  0  0  0  0  0  0
  156.2149  141.1329  182.4612 C   0  0  0  0  0  0  0  0  0  0  0  0
  155.1669  140.5277  183.1097 C   0  0  0  0  0  0  0  0  0  0  0  0
  155.3920  139.7493  184.2614 C   0  0  0  0  0  0  0  0  0  0  0  0
  156.6965  139.6565  184.6532 C   0  0  0  0  0  0  0  0  0  0  0  0
  157.7645  140.2768  183.9897 C   0  0  0  0  0  0  0  0  0  0  0  0
  158.3700  143.2123  182.2558 C   0  0  0  0  0  0  0  0  0  0  0  0
  158.6109  141.7059  182.1476 C   0  0  0  0  0  0  0  0  0  0  0  0
  159.9688  141.4312  182.7248 C   0  0  0  0  0  0  0  0  0  0  0  0
  158.5739  141.2713  180.6994 C   0  0  0  0  0  0  0  0  0  0  0  0
 36 37  1  0  0  0
 37 38  1  0  0  0
 37 39  1  0  0  0
 37 30  1  0  0  0
 30 31  2  0  0  0
 31 32  1  0  0  0
 32 33  2  0  0  0
 33 28  1  0  0  0
 28  1  1  0  0  0
  1  2  2  0  0  0
  2  3  1  0  0  0
  3  4  2  0  0  0
  4  5  1  0  0  0
  5  6  1  0  0  0
  6  7  1  0  0  0
  7  8  1  0  0  0
  8  9  1  0  0  0
  9 10  1  0  0  0
 10 11  1  0  0  0
  8 12  1  0  0  0
 12 13  2  0  0  0
 13 14  1  0  0  0
 14 15  2  0  0  0
 15 16  1  0  0  0
 16 17  2  0  0  0
 17 18  1  0  0  0
 18 19  1  0  0  0
 18 20  1  0  0  0
 18 21  1  0  0  0
  3 22  1  0  0  0
 22 23  1  0  0  0
 23 24  1  0  0  0
 24 25  1  0  0  0
 25 26  1  0  0  0
 26 27  1  0  0  0
 33 34  1  0  0  0
 34 35  2  0  0  0
 35 30  1  0  0  0
 11  1  1  0  0  0
 17 12  1  0  0  0
 27 22  1  0  0  0
 11  5  2  0  0  0
 28 29  1  0  0  0
M  END
> <minimizedAffinity>
-7.51356

> <CNNscore>
0.4218253493

> <CNNaffinity>
6.8881125450

> <CNN_VS>
2.9055805206

> <CNNaffinity_variance>
0.0289898161

$$$$
[H]c1nc(N2C([H])([H])C([H])([H])c3nc(N4C([H])([H])C([H])([H])OC([H])([H])C4([H])[H])nc(N([H])c4c([H])c([H])c(C(C([H])([H])[H])(C([H])([H])[H])C([H])([H])[H])c([H])c4[H])c3C([H])([H])C2([H])[H])c(C(F)(F)F)c([H])c1[H]


 39 43  0  0  0  0  0  0  0  0999 V2000
  154.4418  138.8639  184.1265 C   0  0  0  0  0  0  0  0  0  0  0  0
  155.3049  139.8786  184.1806 N   0  0  0  0  0  0  0  0  0  0  0  0
  155.3986  140.8988  183.3296 C   0  0  0  0  0  0  0  0  0  0  0  0
  154.5261  140.9201  182.2844 N   0  0  0  0  0  0  0  0  0  0  0  0
  153.6138  139.9235  182.1564 C   0  0  0  0  0  0  0  0  0  0  0  0
  152.7751  140.1263  180.9282 C   0  0  0  0  0  0  0  0  0  0  0  0
  151.3202  140.1680  181.3582 C   0  0  0  0  0  0  0  0  0  0  0  0
  150.8680  138.8464  181.7255 N   0  0  0  0  0  0  0  0  0  0  0  0
  151.6561  137.6864  181.9362 C   0  0  0  0  0  0  0  0  0  0  0  0
  152.6045  137.7548  183.1059 C   0  0  0  0  0  0  0  0  0  0  0  0
  153.5371  138.8913  183.0438 C   0  0  0  0  0  0  0  0  0  0  0  0
  149.4674  138.7603  181.8779 C   0  0  0  0  0  0  0  0  0  0  0  0
  148.9933  138.8694  183.1792 N   0  0  0  0  0  0  0  0  0  0  0  0
  147.6888  138.8958  183.4444 C   0  0  0  0  0  0  0  0  0  0  0  0
  146.8115  138.8125  182.3868 C   0  0  0  0  0  0  0  0  0  0  0  0
  147.2379  138.7014  181.0697 C   0  0  0  0  0  0  0  0  0  0  0  0
  148.6293  138.6728  180.8157 C   0  0  0  0  0  0  0  0  0  0  0  0
  149.0697  138.5087  179.4337 C   0  0  0  0  0  0  0  0  0  0  0  0
  149.7633  137.3636  179.1551 F   0  0  0  0  0  0  0  0  0  0  0  0
  147.9391  138.4422  178.5899 F   0  0  0  0  0  0  0  0  0  0  0  0
  149.8056  139.5551  178.9096 F   0  0  0  0  0  0  0  0  0  0  0  0
  156.3334  141.9633  183.4656 N   0  0  0  0  0  0  0  0  0  0  0  0
  156.0890  143.2667  182.8657 C   0  0  0  0  0  0  0  0  0  0  0  0
  157.2273  143.5857  181.9468 C   0  0  0  0  0  0  0  0  0  0  0  0
  158.2694  142.6573  182.0519 O   0  0  0  0  0  0  0  0  0  0  0  0
  158.6440  142.5020  183.3970 C   0  0  0  0  0  0  0  0  0  0  0  0
  157.5657  141.7853  184.1993 C   0  0  0  0  0  0  0  0  0  0  0  0
  154.3910  137.8001  185.0379 N   0  0  0  0  0  0  0  0  0  0  0  0
  154.1482  136.8421  184.6695 H   0  0  0  0  0  0  0  0  0  0  0  0
  154.8871  137.9751  189.2549 C   0  0  0  0  0  0  0  0  0  0  0  0
  153.6804  138.1601  188.6410 C   0  0  0  0  0  0  0  0  0  0  0  0
  153.5158  138.1084  187.2788 C   0  0  0  0  0  0  0  0  0  0  0  0
  154.6143  137.8554  186.4348 C   0  0  0  0  0  0  0  0  0  0  0  0
  155.8076  137.6763  187.0734 C   0  0  0  0  0  0  0  0  0  0  0  0
  155.9723  137.7284  188.4646 C   0  0  0  0  0  0  0  0  0  0  0  0
  156.4357  137.5952  191.0886 C   0  0  0  0  0  0  0  0  0  0  0  0
  155.0137  138.0309  190.7322 C   0  0  0  0  0  0  0  0  0  0  0  0
  154.8175  139.4081  191.2954 C   0  0  0  0  0  0  0  0  0  0  0  0
  154.0059  137.0816  191.3409 C   0  0  0  0  0  0  0  0  0  0  0  0
 36 37  1  0  0  0
 37 38  1  0  0  0
 37 39  1  0  0  0
 37 30  1  0  0  0
 30 31  2  0  0  0
 31 32  1  0  0  0
 32 33  2  0  0  0
 33 28  1  0  0  0
 28  1  1  0  0  0
  1  2  2  0  0  0
  2  3  1  0  0  0
  3  4  2  0  0  0
  4  5  1  0  0  0
  5  6  1  0  0  0
  6  7  1  0  0  0
  7  8  1  0  0  0
  8  9  1  0  0  0
  9 10  1  0  0  0
 10 11  1  0  0  0
  8 12  1  0  0  0
 12 13  2  0  0  0
 13 14  1  0  0  0
 14 15  2  0  0  0
 15 16  1  0  0  0
 16 17  2  0  0  0
 17 18  1  0  0  0
 18 19  1  0  0  0
 18 20  1  0  0  0
 18 21  1  0  0  0
  3 22  1  0  0  0
 22 23  1  0  0  0
 23 24  1  0  0  0
 24 25  1  0  0  0
 25 26  1  0  0  0
 26 27  1  0  0  0
 33 34  1  0  0  0
 34 35  2  0  0  0
 35 30  1  0  0  0
 11  1  1  0  0  0
 17 12  1  0  0  0
 27 22  1  0  0  0
 11  5  2  0  0  0
 28 29  1  0  0  0
M  END
> <minimizedAffinity>
-9.86563

> <CNNscore>
0.4209569097

> <CNNaffinity>
6.9160537720

> <CNN_VS>
2.9113607407

> <CNNaffinity_variance>
0.0711583272

$$$$
[H]c1nc(N2C([H])([H])C([H])([H])c3nc(N4C([H])([H])C([H])([H])OC([H])([H])C4([H])[H])nc(N([H])c4c([H])c([H])c(C(C([H])([H])[H])(C([H])([H])[H])C([H])([H])[H])c([H])c4[H])c3C([H])([H])C2([H])[H])c(C(F)(F)F)c([H])c1[H]


 39 43  0  0  0  0  0  0  0  0999 V2000
  154.4718  139.8992  183.1471 C   0  0  0  0  0  0  0  0  0  0  0  0
  153.8707  139.2395  184.1376 N   0  0  0  0  0  0  0  0  0  0  0  0
  154.4383  138.7596  185.2426 C   0  0  0  0  0  0  0  0  0  0  0  0
  155.7780  138.9545  185.3898 N   0  0  0  0  0  0  0  0  0  0  0  0
  156.4654  139.6181  184.4261 C   0  0  0  0  0  0  0  0  0  0  0  0
  157.9238  139.6964  184.7731 C   0  0  0  0  0  0  0  0  0  0  0  0
  158.3218  141.1609  184.7886 C   0  0  0  0  0  0  0  0  0  0  0  0
  158.3814  141.6784  183.4414 N   0  0  0  0  0  0  0  0  0  0  0  0
  157.9047  141.0663  182.2543 C   0  0  0  0  0  0  0  0  0  0  0  0
  156.4111  140.8763  182.1817 C   0  0  0  0  0  0  0  0  0  0  0  0
  155.8595  140.1021  183.3048 C   0  0  0  0  0  0  0  0  0  0  0  0
  158.9982  142.9453  183.3592 C   0  0  0  0  0  0  0  0  0  0  0  0
  158.2968  143.9141  182.6523 N   0  0  0  0  0  0  0  0  0  0  0  0
  158.7281  145.1717  182.5807 C   0  0  0  0  0  0  0  0  0  0  0  0
  159.8976  145.4930  183.2320 C   0  0  0  0  0  0  0  0  0  0  0  0
  160.6334  144.5592  183.9501 C   0  0  0  0  0  0  0  0  0  0  0  0
  160.1544  143.2292  184.0078 C   0  0  0  0  0  0  0  0  0  0  0  0
  160.9572  142.2432  184.7249 C   0  0  0  0  0  0  0  0  0  0  0  0
  161.2019  141.0712  184.0642 F   0  0  0  0  0  0  0  0  0  0  0  0
  162.2416  142.7774  184.9690 F   0  0  0  0  0  0  0  0  0  0  0  0
  160.5027  141.9004  185.9848 F   0  0  0  0  0  0  0  0  0  0  0  0
  153.7255  138.0841  186.2727 N   0  0  0  0  0  0  0  0  0  0  0  0
  153.1486  138.8092  187.3951 C   0  0  0  0  0  0  0  0  0  0  0  0
  153.7165  138.2494  188.6623 C   0  0  0  0  0  0  0  0  0  0  0  0
  154.4815  137.0992  188.4375 O   0  0  0  0  0  0  0  0  0  0  0  0
  153.7479  136.1720  187.6787 C   0  0  0  0  0  0  0  0  0  0  0  0
  153.5553  136.6491  186.2451 C   0  0  0  0  0  0  0  0  0  0  0  0
  153.8350  140.3724  181.9914 N   0  0  0  0  0  0  0  0  0  0  0  0
  154.2505  141.2101  181.5034 H   0  0  0  0  0  0  0  0  0  0  0  0
  150.2493  138.7948  180.3442 C   0  0  0  0  0  0  0  0  0  0  0  0
  150.5963  138.6358  181.6563 C   0  0  0  0  0  0  0  0  0  0  0  0
  151.7555  139.1403  182.1921 C   0  0  0  0  0  0  0  0  0  0  0  0
  152.6595  139.8624  181.3894 C   0  0  0  0  0  0  0  0  0  0  0  0
  152.2896  140.0048  180.0830 C   0  0  0  0  0  0  0  0  0  0  0  0
  151.1047  139.4897  179.5390 C   0  0  0  0  0  0  0  0  0  0  0  0
  147.8338  138.8808  180.5958 C   0  0  0  0  0  0  0  0  0  0  0  0
  148.9803  138.2390  179.8128 C   0  0  0  0  0  0  0  0  0  0  0  0
  148.7551  138.5498  178.3619 C   0  0  0  0  0  0  0  0  0  0  0  0
  148.9832  136.7409  180.0201 C   0  0  0  0  0  0  0  0  0  0  0  0
 36 37  1  0  0  0
 37 38  1  0  0  0
 37 39  1  0  0  0
 37 30  1  0  0  0
 30 31  2  0  0  0
 31 32  1  0  0  0
 32 33  2  0  0  0
 33 28  1  0  0  0
 28  1  1  0  0  0
  1  2  2  0  0  0
  2  3  1  0  0  0
  3  4  2  0  0  0
  4  5  1  0  0  0
  5  6  1  0  0  0
  6  7  1  0  0  0
  7  8  1  0  0  0
  8  9  1  0  0  0
  9 10  1  0  0  0
 10 11  1  0  0  0
  8 12  1  0  0  0
 12 13  2  0  0  0
 13 14  1  0  0  0
 14 15  2  0  0  0
 15 16  1  0  0  0
 16 17  2  0  0  0
 17 18  1  0  0  0
 18 19  1  0  0  0
 18 20  1  0  0  0
 18 21  1  0  0  0
  3 22  1  0  0  0
 22 23  1  0  0  0
 23 24  1  0  0  0
 24 25  1  0  0  0
 25 26  1  0  0  0
 26 27  1  0  0  0
 33 34  1  0  0  0
 34 35  2  0  0  0
 35 30  1  0  0  0
 11  1  1  0  0  0
 17 12  1  0  0  0
 27 22  1  0  0  0
 11  5  2  0  0  0
 28 29  1  0  0  0
M  END
> <minimizedAffinity>
-10.88710

> <CNNscore>
0.4121521711

> <CNNaffinity>
7.3283982277

> <CNN_VS>
3.0204153061

> <CNNaffinity_variance>
0.0580340251

$$$$
[H]c1nc(N2C([H])([H])C([H])([H])c3nc(N4C([H])([H])C([H])([H])OC([H])([H])C4([H])[H])nc(N([H])c4c([H])c([H])c(C(C([H])([H])[H])(C([H])([H])[H])C([H])([H])[H])c([H])c4[H])c3C([H])([H])C2([H])[H])c(C(F)(F)F)c([H])c1[H]


 39 43  0  0  0  0  0  0  0  0999 V2000
  154.4219  139.7065  183.2148 C   0  0  0  0  0  0  0  0  0  0  0  0
  153.7472  139.0881  184.1844 N   0  0  0  0  0  0  0  0  0  0  0  0
  154.2235  138.6807  185.3594 C   0  0  0  0  0  0  0  0  0  0  0  0
  155.5415  138.9119  185.6114 N   0  0  0  0  0  0  0  0  0  0  0  0
  156.2998  139.5376  184.6757 C   0  0  0  0  0  0  0  0  0  0  0  0
  157.7205  139.6658  185.1431 C   0  0  0  0  0  0  0  0  0  0  0  0
  158.0910  141.1371  185.1119 C   0  0  0  0  0  0  0  0  0  0  0  0
  158.2601  141.5827  183.7485 N   0  0  0  0  0  0  0  0  0  0  0  0
  157.8999  140.8977  182.5602 C   0  0  0  0  0  0  0  0  0  0  0  0
  156.4218  140.6719  182.3688 C   0  0  0  0  0  0  0  0  0  0  0  0
  155.7867  139.9474  183.4809 C   0  0  0  0  0  0  0  0  0  0  0  0
  158.8604  142.8564  183.6500 C   0  0  0  0  0  0  0  0  0  0  0  0
  160.1211  142.9761  184.2215 N   0  0  0  0  0  0  0  0  0  0  0  0
  160.8293  144.0984  184.1152 C   0  0  0  0  0  0  0  0  0  0  0  0
  160.2772  145.1485  183.4169 C   0  0  0  0  0  0  0  0  0  0  0  0
  159.0209  145.0763  182.8293 C   0  0  0  0  0  0  0  0  0  0  0  0
  158.2880  143.8732  182.9596 C   0  0  0  0  0  0  0  0  0  0  0  0
  156.9494  143.8209  182.3797 C   0  0  0  0  0  0  0  0  0  0  0  0
  155.9672  143.3049  183.1790 F   0  0  0  0  0  0  0  0  0  0  0  0
  156.5124  145.1341  182.0986 F   0  0  0  0  0  0  0  0  0  0  0  0
  156.8478  143.1763  181.1609 F   0  0  0  0  0  0  0  0  0  0  0  0
  153.4343  138.0462  186.3595 N   0  0  0  0  0  0  0  0  0  0  0  0
  153.1412  138.7052  187.6237 C   0  0  0  0  0  0  0  0  0  0  0  0
  153.6330  137.8332  188.7371 C   0  0  0  0  0  0  0  0  0  0  0  0
  154.0605  136.5812  188.2804 O   0  0  0  0  0  0  0  0  0  0  0  0
  153.0633  135.9905  187.4865 C   0  0  0  0  0  0  0  0  0  0  0  0
  152.9008  136.7182  186.1582 C   0  0  0  0  0  0  0  0  0  0  0  0
  153.8812  140.1031  181.9838 N   0  0  0  0  0  0  0  0  0  0  0  0
  154.4141  140.8121  181.4130 H   0  0  0  0  0  0  0  0  0  0  0  0
  150.2362  138.6646  180.3393 C   0  0  0  0  0  0  0  0  0  0  0  0
  151.0109  137.9249  181.1878 C   0  0  0  0  0  0  0  0  0  0  0  0
  152.1911  138.3838  181.7186 C   0  0  0  0  0  0  0  0  0  0  0  0
  152.6651  139.6714  181.4017 C   0  0  0  0  0  0  0  0  0  0  0  0
  151.8734  140.3880  180.5510 C   0  0  0  0  0  0  0  0  0  0  0  0
  150.6680  139.9173  180.0117 C   0  0  0  0  0  0  0  0  0  0  0  0
  147.8221  138.7564  180.6012 C   0  0  0  0  0  0  0  0  0  0  0  0
  148.9626  138.1289  179.7984 C   0  0  0  0  0  0  0  0  0  0  0  0
  148.7342  138.4773  178.3566 C   0  0  0  0  0  0  0  0  0  0  0  0
  148.9585  136.6260  179.9677 C   0  0  0  0  0  0  0  0  0  0  0  0
 36 37  1  0  0  0
 37 38  1  0  0  0
 37 39  1  0  0  0
 37 30  1  0  0  0
 30 31  2  0  0  0
 31 32  1  0  0  0
 32 33  2  0  0  0
 33 28  1  0  0  0
 28  1  1  0  0  0
  1  2  2  0  0  0
  2  3  1  0  0  0
  3  4  2  0  0  0
  4  5  1  0  0  0
  5  6  1  0  0  0
  6  7  1  0  0  0
  7  8  1  0  0  0
  8  9  1  0  0  0
  9 10  1  0  0  0
 10 11  1  0  0  0
  8 12  1  0  0  0
 12 13  2  0  0  0
 13 14  1  0  0  0
 14 15  2  0  0  0
 15 16  1  0  0  0
 16 17  2  0  0  0
 17 18  1  0  0  0
 18 19  1  0  0  0
 18 20  1  0  0  0
 18 21  1  0  0  0
  3 22  1  0  0  0
 22 23  1  0  0  0
 23 24  1  0  0  0
 24 25  1  0  0  0
 25 26  1  0  0  0
 26 27  1  0  0  0
 33 34  1  0  0  0
 34 35  2  0  0  0
 35 30  1  0  0  0
 11  1  1  0  0  0
 17 12  1  0  0  0
 27 22  1  0  0  0
 11  5  2  0  0  0
 28 29  1  0  0  0
M  END
> <minimizedAffinity>
-9.80790

> <CNNscore>
0.3896833062

> <CNNaffinity>
7.2802343369

> <CNN_VS>
2.8369858265

> <CNNaffinity_variance>
0.0594712384

$$$$
[H]c1nc(N2C([H])([H])C([H])([H])c3nc(N4C([H])([H])C([H])([H])OC([H])([H])C4([H])[H])nc(N([H])c4c([H])c([H])c(C(C([H])([H])[H])(C([H])([H])[H])C([H])([H])[H])c([H])c4[H])c3C([H])([H])C2([H])[H])c(C(F)(F)F)c([H])c1[H]


 39 43  0  0  0  0  0  0  0  0999 V2000
  153.7025  138.0484  185.8201 C   0  0  0  0  0  0  0  0  0  0  0  0
  154.3033  137.9655  187.0075 N   0  0  0  0  0  0  0  0  0  0  0  0
  154.2451  136.9501  187.8672 C   0  0  0  0  0  0  0  0  0  0  0  0
  153.4922  135.8733  187.5093 N   0  0  0  0  0  0  0  0  0  0  0  0
  152.8475  135.8773  186.3151 C   0  0  0  0  0  0  0  0  0  0  0  0
  152.0580  134.6136  186.1340 C   0  0  0  0  0  0  0  0  0  0  0  0
  152.5238  133.9523  184.8498 C   0  0  0  0  0  0  0  0  0  0  0  0
  152.0409  134.6871  183.7040 N   0  0  0  0  0  0  0  0  0  0  0  0
  151.4470  135.9747  183.6855 C   0  0  0  0  0  0  0  0  0  0  0  0
  152.3476  137.1066  184.1100 C   0  0  0  0  0  0  0  0  0  0  0  0
  152.9259  136.9293  185.4513 C   0  0  0  0  0  0  0  0  0  0  0  0
  152.2057  133.9910  182.4872 C   0  0  0  0  0  0  0  0  0  0  0  0
  151.0362  133.5512  181.8795 N   0  0  0  0  0  0  0  0  0  0  0  0
  151.0515  132.9637  180.6848 C   0  0  0  0  0  0  0  0  0  0  0  0
  152.2668  132.8017  180.0587 C   0  0  0  0  0  0  0  0  0  0  0  0
  153.4618  133.2240  180.6267 C   0  0  0  0  0  0  0  0  0  0  0  0
  153.4178  133.8427  181.8982 C   0  0  0  0  0  0  0  0  0  0  0  0
  154.6820  134.2415  182.5095 C   0  0  0  0  0  0  0  0  0  0  0  0
  155.1639  133.4167  183.4880 F   0  0  0  0  0  0  0  0  0  0  0  0
  155.6954  134.2400  181.5258 F   0  0  0  0  0  0  0  0  0  0  0  0
  154.7242  135.5264  183.0181 F   0  0  0  0  0  0  0  0  0  0  0  0
  154.9359  136.9219  189.1112 N   0  0  0  0  0  0  0  0  0  0  0  0
  154.2527  136.5764  190.3490 C   0  0  0  0  0  0  0  0  0  0  0  0
  154.4155  137.7111  191.3121 C   0  0  0  0  0  0  0  0  0  0  0  0
  155.3050  138.6833  190.8402 O   0  0  0  0  0  0  0  0  0  0  0  0
  156.5141  138.0831  190.4508 C   0  0  0  0  0  0  0  0  0  0  0  0
  156.3425  137.2440  189.1912 C   0  0  0  0  0  0  0  0  0  0  0  0
  153.7789  139.1476  184.9536 N   0  0  0  0  0  0  0  0  0  0  0  0
  152.8860  139.6576  184.7189 H   0  0  0  0  0  0  0  0  0  0  0  0
  157.1482  140.7950  182.9552 C   0  0  0  0  0  0  0  0  0  0  0  0
  155.8623  141.0197  182.5512 C   0  0  0  0  0  0  0  0  0  0  0  0
  154.7708  140.4866  183.1912 C   0  0  0  0  0  0  0  0  0  0  0  0
  154.9360  139.6635  184.3218 C   0  0  0  0  0  0  0  0  0  0  0  0
  156.2302  139.4538  184.7027 C   0  0  0  0  0  0  0  0  0  0  0  0
  157.3427  140.0007  184.0480 C   0  0  0  0  0  0  0  0  0  0  0  0
  159.5760  140.8670  182.8807 C   0  0  0  0  0  0  0  0  0  0  0  0
  158.2960  141.4014  182.2365 C   0  0  0  0  0  0  0  0  0  0  0  0
  158.3468  141.0382  180.7812 C   0  0  0  0  0  0  0  0  0  0  0  0
  158.2215  142.9046  182.3857 C   0  0  0  0  0  0  0  0  0  0  0  0
 36 37  1  0  0  0
 37 38  1  0  0  0
 37 39  1  0  0  0
 37 30  1  0  0  0
 30 31  2  0  0  0
 31 32  1  0  0  0
 32 33  2  0  0  0
 33 28  1  0  0  0
 28  1  1  0  0  0
  1  2  2  0  0  0
  2  3  1  0  0  0
  3  4  2  0  0  0
  4  5  1  0  0  0
  5  6  1  0  0  0
  6  7  1  0  0  0
  7  8  1  0  0  0
  8  9  1  0  0  0
  9 10  1  0  0  0
 10 11  1  0  0  0
  8 12  1  0  0  0
 12 13  2  0  0  0
 13 14  1  0  0  0
 14 15  2  0  0  0
 15 16  1  0  0  0
 16 17  2  0  0  0
 17 18  1  0  0  0
 18 19  1  0  0  0
 18 20  1  0  0  0
 18 21  1  0  0  0
  3 22  1  0  0  0
 22 23  1  0  0  0
 23 24  1  0  0  0
 24 25  1  0  0  0
 25 26  1  0  0  0
 26 27  1  0  0  0
 33 34  1  0  0  0
 34 35  2  0  0  0
 35 30  1  0  0  0
 11  1  1  0  0  0
 17 12  1  0  0  0
 27 22  1  0  0  0
 11  5  2  0  0  0
 28 29  1  0  0  0
M  END
> <minimizedAffinity>
-7.32567

> <CNNscore>
0.3455969989

> <CNNaffinity>
6.7165899277

> <CNN_VS>
2.3212332726

> <CNNaffinity_variance>
0.0334681161

$$$$
[H]c1nc(N2C([H])([H])C([H])([H])c3nc(N4C([H])([H])C([H])([H])OC([H])([H])C4([H])[H])nc(N([H])c4c([H])c([H])c(C(C([H])([H])[H])(C([H])([H])[H])C([H])([H])[H])c([H])c4[H])c3C([H])([H])C2([H])[H])c(C(F)(F)F)c([H])c1[H]


 39 43  0  0  0  0  0  0  0  0999 V2000
  153.7781  138.7233  183.8130 C   0  0  0  0  0  0  0  0  0  0  0  0
  152.6926  138.6820  183.0400 N   0  0  0  0  0  0  0  0  0  0  0  0
  152.2293  139.6526  182.2546 C   0  0  0  0  0  0  0  0  0  0  0  0
  152.9285  140.8208  182.2296 N   0  0  0  0  0  0  0  0  0  0  0  0
  154.0472  140.9451  182.9879 C   0  0  0  0  0  0  0  0  0  0  0  0
  154.6437  142.3138  182.8334 C   0  0  0  0  0  0  0  0  0  0  0  0
  156.0783  142.1477  182.3671 C   0  0  0  0  0  0  0  0  0  0  0  0
  156.9037  141.6618  183.4482 N   0  0  0  0  0  0  0  0  0  0  0  0
  156.4803  141.1437  184.6985 C   0  0  0  0  0  0  0  0  0  0  0  0
  155.7003  139.8554  184.6320 C   0  0  0  0  0  0  0  0  0  0  0  0
  154.5020  139.9343  183.7819 C   0  0  0  0  0  0  0  0  0  0  0  0
  158.2855  141.7370  183.1700 C   0  0  0  0  0  0  0  0  0  0  0  0
  159.1323  141.4140  184.2230 N   0  0  0  0  0  0  0  0  0  0  0  0
  160.4527  141.3581  184.0618 C   0  0  0  0  0  0  0  0  0  0  0  0
  160.9643  141.6297  182.8130 C   0  0  0  0  0  0  0  0  0  0  0  0
  160.1582  141.9577  181.7307 C   0  0  0  0  0  0  0  0  0  0  0  0
  158.7586  142.0130  181.9298 C   0  0  0  0  0  0  0  0  0  0  0  0
  157.9213  142.4041  180.7998 C   0  0  0  0  0  0  0  0  0  0  0  0
  157.1814  143.5422  180.9647 F   0  0  0  0  0  0  0  0  0  0  0  0
  158.7438  142.6846  179.6864 F   0  0  0  0  0  0  0  0  0  0  0  0
  157.0563  141.4338  180.3291 F   0  0  0  0  0  0  0  0  0  0  0  0
  151.0723  139.5273  181.4353 N   0  0  0  0  0  0  0  0  0  0  0  0
  149.8846  138.8289  181.9042 C   0  0  0  0  0  0  0  0  0  0  0  0
  149.5782  137.7201  180.9458 C   0  0  0  0  0  0  0  0  0  0  0  0
  150.3827  137.7711  179.8017 O   0  0  0  0  0  0  0  0  0  0  0  0
  150.3300  139.0538  179.2311 C   0  0  0  0  0  0  0  0  0  0  0  0
  151.0382  140.0836  180.1018 C   0  0  0  0  0  0  0  0  0  0  0  0
  154.2194  137.6798  184.6385 N   0  0  0  0  0  0  0  0  0  0  0  0
  154.5306  136.7822  184.1802 H   0  0  0  0  0  0  0  0  0  0  0  0
  154.5696  137.5739  188.8723 C   0  0  0  0  0  0  0  0  0  0  0  0
  155.4138  136.8939  188.0403 C   0  0  0  0  0  0  0  0  0  0  0  0
  155.3023  136.9220  186.6721 C   0  0  0  0  0  0  0  0  0  0  0  0
  154.2852  137.6734  186.0526 C   0  0  0  0  0  0  0  0  0  0  0  0
  153.4551  138.3411  186.9064 C   0  0  0  0  0  0  0  0  0  0  0  0
  153.5722  138.3117  188.3031 C   0  0  0  0  0  0  0  0  0  0  0  0
  154.9859  138.9489  190.8321 C   0  0  0  0  0  0  0  0  0  0  0  0
  154.7359  137.5206  190.3458 C   0  0  0  0  0  0  0  0  0  0  0  0
  153.5199  137.0137  191.0647 C   0  0  0  0  0  0  0  0  0  0  0  0
  155.9235  136.6412  190.6678 C   0  0  0  0  0  0  0  0  0  0  0  0
 36 37  1  0  0  0
 37 38  1  0  0  0
 37 39  1  0  0  0
 37 30  1  0  0  0
 30 31  2  0  0  0
 31 32  1  0  0  0
 32 33  2  0  0  0
 33 28  1  0  0  0
 28  1  1  0  0  0
  1  2  2  0  0  0
  2  3  1  0  0  0
  3  4  2  0  0  0
  4  5  1  0  0  0
  5  6  1  0  0  0
  6  7  1  0  0  0
  7  8  1  0  0  0
  8  9  1  0  0  0
  9 10  1  0  0  0
 10 11  1  0  0  0
  8 12  1  0  0  0
 12 13  2  0  0  0
 13 14  1  0  0  0
 14 15  2  0  0  0
 15 16  1  0  0  0
 16 17  2  0  0  0
 17 18  1  0  0  0
 18 19  1  0  0  0
 18 20  1  0  0  0
 18 21  1  0  0  0
  3 22  1  0  0  0
 22 23  1  0  0  0
 23 24  1  0  0  0
 24 25  1  0  0  0
 25 26  1  0  0  0
 26 27  1  0  0  0
 33 34  1  0  0  0
 34 35  2  0  0  0
 35 30  1  0  0  0
 11  1  1  0  0  0
 17 12  1  0  0  0
 27 22  1  0  0  0
 11  5  2  0  0  0
 28 29  1  0  0  0
M  END
> <minimizedAffinity>
-8.87694

> <CNNscore>
0.3006216884

> <CNNaffinity>
7.2479143143

> <CNN_VS>
2.1788802147

> <CNNaffinity_variance>
0.0436307825

$$$$
[H]c1nc(N2C([H])([H])C([H])([H])c3nc(N4C([H])([H])C([H])([H])OC([H])([H])C4([H])[H])nc(N([H])c4c([H])c([H])c(C(C([H])([H])[H])(C([H])([H])[H])C([H])([H])[H])c([H])c4[H])c3C([H])([H])C2([H])[H])c(C(F)(F)F)c([H])c1[H]


 39 43  0  0  0  0  0  0  0  0999 V2000
  153.2303  137.8769  183.7969 C   0  0  0  0  0  0  0  0  0  0  0  0
  152.0642  137.5876  183.2188 N   0  0  0  0  0  0  0  0  0  0  0  0
  151.3571  138.3681  182.4037 C   0  0  0  0  0  0  0  0  0  0  0  0
  151.8666  139.5992  182.1228 N   0  0  0  0  0  0  0  0  0  0  0  0
  153.0508  139.9720  182.6710 C   0  0  0  0  0  0  0  0  0  0  0  0
  153.4121  141.3683  182.2548 C   0  0  0  0  0  0  0  0  0  0  0  0
  154.7750  141.3190  181.5891 C   0  0  0  0  0  0  0  0  0  0  0  0
  155.8073  141.1025  182.5758 N   0  0  0  0  0  0  0  0  0  0  0  0
  155.6458  140.7214  183.9321 C   0  0  0  0  0  0  0  0  0  0  0  0
  155.0619  139.3490  184.1512 C   0  0  0  0  0  0  0  0  0  0  0  0
  153.7568  139.1523  183.5007 C   0  0  0  0  0  0  0  0  0  0  0  0
  157.1097  141.3105  182.0728 C   0  0  0  0  0  0  0  0  0  0  0  0
  157.2346  141.2839  180.6894 N   0  0  0  0  0  0  0  0  0  0  0  0
  158.3917  141.5569  180.0901 C   0  0  0  0  0  0  0  0  0  0  0  0
  159.4728  141.8707  180.8824 C   0  0  0  0  0  0  0  0  0  0  0  0
  159.3967  141.9093  182.2686 C   0  0  0  0  0  0  0  0  0  0  0  0
  158.1561  141.6123  182.8803 C   0  0  0  0  0  0  0  0  0  0  0  0
  158.0955  141.6089  184.3389 C   0  0  0  0  0  0  0  0  0  0  0  0
  158.1040  140.3800  184.9386 F   0  0  0  0  0  0  0  0  0  0  0  0
  159.2421  142.2530  184.8537 F   0  0  0  0  0  0  0  0  0  0  0  0
  157.0469  142.3155  184.8979 F   0  0  0  0  0  0  0  0  0  0  0  0
  150.1268  137.9806  181.8021 N   0  0  0  0  0  0  0  0  0  0  0  0
  149.1547  137.1703  182.5209 C   0  0  0  0  0  0  0  0  0  0  0  0
  148.8949  135.9276  181.7272 C   0  0  0  0  0  0  0  0  0  0  0  0
  149.4989  135.9689  180.4653 O   0  0  0  0  0  0  0  0  0  0  0  0
  149.1502  137.1570  179.8017 C   0  0  0  0  0  0  0  0  0  0  0  0
  149.8015  138.3721  180.4494 C   0  0  0  0  0  0  0  0  0  0  0  0
  153.9323  137.0279  184.6637 N   0  0  0  0  0  0  0  0  0  0  0  0
  154.4651  136.2202  184.2438 H   0  0  0  0  0  0  0  0  0  0  0  0
  154.3160  137.2333  188.8910 C   0  0  0  0  0  0  0  0  0  0  0  0
  155.3071  136.7605  188.0777 C   0  0  0  0  0  0  0  0  0  0  0  0
  155.1863  136.6886  186.7118 C   0  0  0  0  0  0  0  0  0  0  0  0
  154.0034  137.1109  186.0752 C   0  0  0  0  0  0  0  0  0  0  0  0
  153.0293  137.5767  186.9107 C   0  0  0  0  0  0  0  0  0  0  0  0
  153.1560  137.6502  188.3049 C   0  0  0  0  0  0  0  0  0  0  0  0
  154.9488  138.7210  190.7052 C   0  0  0  0  0  0  0  0  0  0  0  0
  154.4968  137.3008  190.3622 C   0  0  0  0  0  0  0  0  0  0  0  0
  153.2342  137.0395  191.1302 C   0  0  0  0  0  0  0  0  0  0  0  0
  155.5570  136.3007  190.7664 C   0  0  0  0  0  0  0  0  0  0  0  0
 36 37  1  0  0  0
 37 38  1  0  0  0
 37 39  1  0  0  0
 37 30  1  0  0  0
 30 31  2  0  0  0
 31 32  1  0  0  0
 32 33  2  0  0  0
 33 28  1  0  0  0
 28  1  1  0  0  0
  1  2  2  0  0  0
  2  3  1  0  0  0
  3  4  2  0  0  0
  4  5  1  0  0  0
  5  6  1  0  0  0
  6  7  1  0  0  0
  7  8  1  0  0  0
  8  9  1  0  0  0
  9 10  1  0  0  0
 10 11  1  0  0  0
  8 12  1  0  0  0
 12 13  2  0  0  0
 13 14  1  0  0  0
 14 15  2  0  0  0
 15 16  1  0  0  0
 16 17  2  0  0  0
 17 18  1  0  0  0
 18 19  1  0  0  0
 18 20  1  0  0  0
 18 21  1  0  0  0
  3 22  1  0  0  0
 22 23  1  0  0  0
 23 24  1  0  0  0
 24 25  1  0  0  0
 25 26  1  0  0  0
 26 27  1  0  0  0
 33 34  1  0  0  0
 34 35  2  0  0  0
 35 30  1  0  0  0
 11  1  1  0  0  0
 17 12  1  0  0  0
 27 22  1  0  0  0
 11  5  2  0  0  0
 28 29  1  0  0  0
M  END
> <minimizedAffinity>
-9.00410

> <CNNscore>
0.2680610716

> <CNNaffinity>
6.8775396347

> <CNN_VS>
1.8436006308

> <CNNaffinity_variance>
0.1889005601

$$$$
[H]c1nc(N2C([H])([H])C([H])([H])c3nc(N4C([H])([H])C([H])([H])OC([H])([H])C4([H])[H])nc(N([H])c4nc([H])c(C(F)(F)F)c([H])c4[H])c3C([H])([H])C2([H])[H])c(C(F)(F)F)c([H])c1[H]


 39 43  0  0  0  0  0  0  0  0999 V2000
  154.3857  138.3595  184.1358 C   0  0  0  0  0  0  0  0  0  0  0  0
  153.3167  138.1935  183.3359 N   0  0  0  0  0  0  0  0  0  0  0  0
  152.9408  139.0762  182.4120 C   0  0  0  0  0  0  0  0  0  0  0  0
  153.6414  140.2117  182.2343 N   0  0  0  0  0  0  0  0  0  0  0  0
  154.7509  140.4880  182.9879 C   0  0  0  0  0  0  0  0  0  0  0  0
  155.2879  141.7861  182.5883 C   0  0  0  0  0  0  0  0  0  0  0  0
  156.1509  142.4544  183.6829 C   0  0  0  0  0  0  0  0  0  0  0  0
  157.3334  141.7246  183.9313 N   0  0  0  0  0  0  0  0  0  0  0  0
  157.4558  140.2812  183.9583 C   0  0  0  0  0  0  0  0  0  0  0  0
  156.3245  139.6040  184.7473 C   0  0  0  0  0  0  0  0  0  0  0  0
  155.0901  139.5471  183.9162 C   0  0  0  0  0  0  0  0  0  0  0  0
  158.5968  142.3502  184.1496 C   0  0  0  0  0  0  0  0  0  0  0  0
  159.2671  142.0268  185.3130 N   0  0  0  0  0  0  0  0  0  0  0  0
  160.4181  142.5719  185.6766 C   0  0  0  0  0  0  0  0  0  0  0  0
  160.9759  143.5151  184.8451 C   0  0  0  0  0  0  0  0  0  0  0  0
  160.3336  143.8575  183.6777 C   0  0  0  0  0  0  0  0  0  0  0  0
  159.1167  143.2780  183.2953 C   0  0  0  0  0  0  0  0  0  0  0  0
  158.4879  143.6894  182.0038 C   0  0  0  0  0  0  0  0  0  0  0  0
  157.4596  144.5682  182.1501 F   0  0  0  0  0  0  0  0  0  0  0  0
  159.4766  144.4672  181.3126 F   0  0  0  0  0  0  0  0  0  0  0  0
  158.2721  142.6425  181.1398 F   0  0  0  0  0  0  0  0  0  0  0  0
  151.8253  138.8258  181.5750 N   0  0  0  0  0  0  0  0  0  0  0  0
  150.5629  138.3752  182.1290 C   0  0  0  0  0  0  0  0  0  0  0  0
  149.6811  137.9739  180.9666 C   0  0  0  0  0  0  0  0  0  0  0  0
  149.4569  138.9915  180.0611 O   0  0  0  0  0  0  0  0  0  0  0  0
  150.5774  139.7704  179.8068 C   0  0  0  0  0  0  0  0  0  0  0  0
  151.8547  139.0140  180.1429 C   0  0  0  0  0  0  0  0  0  0  0  0
  154.7509  137.5362  185.1914 N   0  0  0  0  0  0  0  0  0  0  0  0
  155.1132  136.5605  184.9363 H   0  0  0  0  0  0  0  0  0  0  0  0
  154.9782  138.1602  189.3470 C   0  0  0  0  0  0  0  0  0  0  0  0
  153.8441  138.5422  188.6750 C   0  0  0  0  0  0  0  0  0  0  0  0
  153.7581  138.3561  187.3043 C   0  0  0  0  0  0  0  0  0  0  0  0
  154.7831  137.7902  186.5797 C   0  0  0  0  0  0  0  0  0  0  0  0
  155.8699  137.4315  187.2769 N   0  0  0  0  0  0  0  0  0  0  0  0
  155.9772  137.5992  188.5750 C   0  0  0  0  0  0  0  0  0  0  0  0
  154.8886  139.6023  191.2458 F   0  0  0  0  0  0  0  0  0  0  0  0
  155.1641  138.3233  190.8191 C   0  0  0  0  0  0  0  0  0  0  0  0
  156.4998  138.0786  191.0929 F   0  0  0  0  0  0  0  0  0  0  0  0
  154.4522  137.3734  191.5408 F   0  0  0  0  0  0  0  0  0  0  0  0
 36 37  1  0  0  0
 37 38  1  0  0  0
 37 39  1  0  0  0
 37 30  1  0  0  0
 30 31  2  0  0  0
 31 32  1  0  0  0
 32 33  2  0  0  0
 33 28  1  0  0  0
 28  1  1  0  0  0
  1  2  2  0  0  0
  2  3  1  0  0  0
  3  4  2  0  0  0
  4  5  1  0  0  0
  5  6  1  0  0  0
  6  7  1  0  0  0
  7  8  1  0  0  0
  8  9  1  0  0  0
  9 10  1  0  0  0
 10 11  1  0  0  0
  8 12  1  0  0  0
 12 13  2  0  0  0
 13 14  1  0  0  0
 14 15  2  0  0  0
 15 16  1  0  0  0
 16 17  2  0  0  0
 17 18  1  0  0  0
 18 19  1  0  0  0
 18 20  1  0  0  0
 18 21  1  0  0  0
  3 22  1  0  0  0
 22 23  1  0  0  0
 23 24  1  0  0  0
 24 25  1  0  0  0
 25 26  1  0  0  0
 26 27  1  0  0  0
 33 34  1  0  0  0
 34 35  2  0  0  0
 35 30  1  0  0  0
 11  1  1  0  0  0
 17 12  1  0  0  0
 27 22  1  0  0  0
 11  5  2  0  0  0
 28 29  1  0  0  0
M  END
> <minimizedAffinity>
-11.19089

> <CNNscore>
0.7160745263

> <CNNaffinity>
7.6899461746

> <CNN_VS>
5.5065746307

> <CNNaffinity_variance>
0.0736141354

$$$$
[H]c1nc(N2C([H])([H])C([H])([H])c3nc(N4C([H])([H])C([H])([H])OC([H])([H])C4([H])[H])nc(N([H])c4nc([H])c(C(F)(F)F)c([H])c4[H])c3C([H])([H])C2([H])[H])c(C(F)(F)F)c([H])c1[H]


 39 43  0  0  0  0  0  0  0  0999 V2000
  154.3393  138.9021  184.2490 C   0  0  0  0  0  0  0  0  0  0  0  0
  155.1641  139.9528  184.0876 N   0  0  0  0  0  0  0  0  0  0  0  0
  155.1047  140.7866  183.0506 C   0  0  0  0  0  0  0  0  0  0  0  0
  154.1827  140.6053  182.0868 N   0  0  0  0  0  0  0  0  0  0  0  0
  153.2866  139.5715  182.1454 C   0  0  0  0  0  0  0  0  0  0  0  0
  152.4287  139.6162  180.9641 C   0  0  0  0  0  0  0  0  0  0  0  0
  151.7843  138.2528  180.6242 C   0  0  0  0  0  0  0  0  0  0  0  0
  150.8709  137.8459  181.6205 N   0  0  0  0  0  0  0  0  0  0  0  0
  151.0324  138.0216  183.0495 C   0  0  0  0  0  0  0  0  0  0  0  0
  152.4406  137.6487  183.5383 C   0  0  0  0  0  0  0  0  0  0  0  0
  153.3927  138.7518  183.2311 C   0  0  0  0  0  0  0  0  0  0  0  0
  149.6196  137.2313  181.3179 C   0  0  0  0  0  0  0  0  0  0  0  0
  149.6219  135.8654  181.1134 N   0  0  0  0  0  0  0  0  0  0  0  0
  148.5491  135.1697  180.7681 C   0  0  0  0  0  0  0  0  0  0  0  0
  147.3649  135.8501  180.6041 C   0  0  0  0  0  0  0  0  0  0  0  0
  147.3293  137.2110  180.8027 C   0  0  0  0  0  0  0  0  0  0  0  0
  148.4658  137.9438  181.1692 C   0  0  0  0  0  0  0  0  0  0  0  0
  148.3445  139.4176  181.3832 C   0  0  0  0  0  0  0  0  0  0  0  0
  149.1931  140.1545  180.6165 F   0  0  0  0  0  0  0  0  0  0  0  0
  147.0537  139.7861  180.8754 F   0  0  0  0  0  0  0  0  0  0  0  0
  148.2590  139.7751  182.7076 F   0  0  0  0  0  0  0  0  0  0  0  0
  155.9791  141.8975  182.9568 N   0  0  0  0  0  0  0  0  0  0  0  0
  157.3687  141.7236  182.5793 C   0  0  0  0  0  0  0  0  0  0  0  0
  158.0652  143.0467  182.8120 C   0  0  0  0  0  0  0  0  0  0  0  0
  157.5166  144.0965  182.1030 O   0  0  0  0  0  0  0  0  0  0  0  0
  156.1295  144.0753  182.0566 C   0  0  0  0  0  0  0  0  0  0  0  0
  155.5581  143.2570  183.2056 C   0  0  0  0  0  0  0  0  0  0  0  0
  154.4333  137.9354  185.2400 N   0  0  0  0  0  0  0  0  0  0  0  0
  154.4340  136.9140  184.9160 H   0  0  0  0  0  0  0  0  0  0  0  0
  155.0491  138.2205  189.3933 C   0  0  0  0  0  0  0  0  0  0  0  0
  153.8130  138.5222  188.8788 C   0  0  0  0  0  0  0  0  0  0  0  0
  153.5968  138.4463  187.5119 C   0  0  0  0  0  0  0  0  0  0  0  0
  154.5908  138.0705  186.6364 C   0  0  0  0  0  0  0  0  0  0  0  0
  155.7804  137.7841  187.1828 N   0  0  0  0  0  0  0  0  0  0  0  0
  156.0117  137.8505  188.4739 C   0  0  0  0  0  0  0  0  0  0  0  0
  154.6797  137.3446  191.5818 F   0  0  0  0  0  0  0  0  0  0  0  0
  155.3777  138.2766  190.8483 C   0  0  0  0  0  0  0  0  0  0  0  0
  154.9971  139.5273  191.3063 F   0  0  0  0  0  0  0  0  0  0  0  0
  156.7457  138.1933  191.0753 F   0  0  0  0  0  0  0  0  0  0  0  0
 36 37  1  0  0  0
 37 38  1  0  0  0
 37 39  1  0  0  0
 37 30  1  0  0  0
 30 31  2  0  0  0
 31 32  1  0  0  0
 32 33  2  0  0  0
 33 28  1  0  0  0
 28  1  1  0  0  0
  1  2  2  0  0  0
  2  3  1  0  0  0
  3  4  2  0  0  0
  4  5  1  0  0  0
  5  6  1  0  0  0
  6  7  1  0  0  0
  7  8  1  0  0  0
  8  9  1  0  0  0
  9 10  1  0  0  0
 10 11  1  0  0  0
  8 12  1  0  0  0
 12 13  2  0  0  0
 13 14  1  0  0  0
 14 15  2  0  0  0
 15 16  1  0  0  0
 16 17  2  0  0  0
 17 18  1  0  0  0
 18 19  1  0  0  0
 18 20  1  0  0  0
 18 21  1  0  0  0
  3 22  1  0  0  0
 22 23  1  0  0  0
 23 24  1  0  0  0
 24 25  1  0  0  0
 25 26  1  0  0  0
 26 27  1  0  0  0
 33 34  1  0  0  0
 34 35  2  0  0  0
 35 30  1  0  0  0
 11  1  1  0  0  0
 17 12  1  0  0  0
 27 22  1  0  0  0
 11  5  2  0  0  0
 28 29  1  0  0  0
M  END
> <minimizedAffinity>
-9.55074

> <CNNscore>
0.4587125480

> <CNNaffinity>
6.8480224609

> <CNN_VS>
3.1412737370

> <CNNaffinity_variance>
0.0400225259

$$$$
[H]c1nc(N2C([H])([H])C([H])([H])c3nc(N4C([H])([H])C([H])([H])OC([H])([H])C4([H])[H])nc(N([H])c4nc([H])c(C(F)(F)F)c([H])c4[H])c3C([H])([H])C2([H])[H])c(C(F)(F)F)c([H])c1[H]


 39 43  0  0  0  0  0  0  0  0999 V2000
  156.7930  141.9650  184.7267 C   0  0  0  0  0  0  0  0  0  0  0  0
  155.9209  140.9901  185.0419 N   0  0  0  0  0  0  0  0  0  0  0  0
  155.2390  140.2880  184.1384 C   0  0  0  0  0  0  0  0  0  0  0  0
  155.4013  140.5341  182.8250 N   0  0  0  0  0  0  0  0  0  0  0  0
  156.2651  141.5010  182.3842 C   0  0  0  0  0  0  0  0  0  0  0  0
  156.2180  141.5536  180.9253 C   0  0  0  0  0  0  0  0  0  0  0  0
  156.6817  142.9100  180.3469 C   0  0  0  0  0  0  0  0  0  0  0  0
  158.0526  143.1395  180.5929 N   0  0  0  0  0  0  0  0  0  0  0  0
  158.7711  142.7989  181.8041 C   0  0  0  0  0  0  0  0  0  0  0  0
  158.0049  143.1876  183.0781 C   0  0  0  0  0  0  0  0  0  0  0  0
  156.9381  142.1858  183.3538 C   0  0  0  0  0  0  0  0  0  0  0  0
  158.9265  143.7153  179.6235 C   0  0  0  0  0  0  0  0  0  0  0  0
  158.9112  143.1659  178.3565 N   0  0  0  0  0  0  0  0  0  0  0  0
  159.7080  143.5571  177.3735 C   0  0  0  0  0  0  0  0  0  0  0  0
  160.6022  144.5697  177.6328 C   0  0  0  0  0  0  0  0  0  0  0  0
  160.6405  145.1391  178.8846 C   0  0  0  0  0  0  0  0  0  0  0  0
  159.7954  144.7239  179.9218 C   0  0  0  0  0  0  0  0  0  0  0  0
  159.8846  145.4024  181.2501 C   0  0  0  0  0  0  0  0  0  0  0  0
  160.4882  146.6208  181.2039 F   0  0  0  0  0  0  0  0  0  0  0  0
  158.5363  145.7279  181.6192 F   0  0  0  0  0  0  0  0  0  0  0  0
  160.2809  144.5678  182.2677 F   0  0  0  0  0  0  0  0  0  0  0  0
  154.3617  139.2479  184.5334 N   0  0  0  0  0  0  0  0  0  0  0  0
  154.3377  137.9825  183.8249 C   0  0  0  0  0  0  0  0  0  0  0  0
  153.1432  137.2061  184.3348 C   0  0  0  0  0  0  0  0  0  0  0  0
  153.1674  136.9785  185.6962 O   0  0  0  0  0  0  0  0  0  0  0  0
  153.6201  138.0622  186.4361 C   0  0  0  0  0  0  0  0  0  0  0  0
  153.4598  139.3596  185.6565 C   0  0  0  0  0  0  0  0  0  0  0  0
  157.4357  142.8064  185.6236 N   0  0  0  0  0  0  0  0  0  0  0  0
  156.8515  143.6039  186.0370 H   0  0  0  0  0  0  0  0  0  0  0  0
  161.3944  142.7912  187.0516 C   0  0  0  0  0  0  0  0  0  0  0  0
  160.6024  141.6910  187.2661 C   0  0  0  0  0  0  0  0  0  0  0  0
  159.2923  141.6846  186.8141 C   0  0  0  0  0  0  0  0  0  0  0  0
  158.7470  142.7569  186.1442 C   0  0  0  0  0  0  0  0  0  0  0  0
  159.5566  143.8081  185.9562 N   0  0  0  0  0  0  0  0  0  0  0  0
  160.8004  143.8401  186.3765 C   0  0  0  0  0  0  0  0  0  0  0  0
  163.1475  144.1636  187.9095 F   0  0  0  0  0  0  0  0  0  0  0  0
  162.8135  142.8919  187.5032 C   0  0  0  0  0  0  0  0  0  0  0  0
  163.6128  142.5865  186.4138 F   0  0  0  0  0  0  0  0  0  0  0  0
  163.1189  141.9435  188.4713 F   0  0  0  0  0  0  0  0  0  0  0  0
 36 37  1  0  0  0
 37 38  1  0  0  0
 37 39  1  0  0  0
 37 30  1  0  0  0
 30 31  2  0  0  0
 31 32  1  0  0  0
 32 33  2  0  0  0
 33 28  1  0  0  0
 28  1  1  0  0  0
  1  2  2  0  0  0
  2  3  1  0  0  0
  3  4  2  0  0  0
  4  5  1  0  0  0
  5  6  1  0  0  0
  6  7  1  0  0  0
  7  8  1  0  0  0
  8  9  1  0  0  0
  9 10  1  0  0  0
 10 11  1  0  0  0
  8 12  1  0  0  0
 12 13  2  0  0  0
 13 14  1  0  0  0
 14 15  2  0  0  0
 15 16  1  0  0  0
 16 17  2  0  0  0
 17 18  1  0  0  0
 18 19  1  0  0  0
 18 20  1  0  0  0
 18 21  1  0  0  0
  3 22  1  0  0  0
 22 23  1  0  0  0
 23 24  1  0  0  0
 24 25  1  0  0  0
 25 26  1  0  0  0
 26 27  1  0  0  0
 33 34  1  0  0  0
 34 35  2  0  0  0
 35 30  1  0  0  0
 11  1  1  0  0  0
 17 12  1  0  0  0
 27 22  1  0  0  0
 11  5  2  0  0  0
 28 29  1  0  0  0
M  END
> <minimizedAffinity>
10.06856

> <CNNscore>
0.3909224868

> <CNNaffinity>
7.3295202255

> <CNN_VS>
2.8652741909

> <CNNaffinity_variance>
0.7841886878

$$$$
[H]c1nc(N2C([H])([H])C([H])([H])c3nc(N4C([H])([H])C([H])([H])OC([H])([H])C4([H])[H])nc(N([H])c4nc([H])c(C(F)(F)F)c([H])c4[H])c3C([H])([H])C2([H])[H])c(C(F)(F)F)c([H])c1[H]


 39 43  0  0  0  0  0  0  0  0999 V2000
  154.0337  139.5778  183.7427 C   0  0  0  0  0  0  0  0  0  0  0  0
  153.3073  139.5188  182.6117 N   0  0  0  0  0  0  0  0  0  0  0  0
  152.3424  138.6256  182.3989 C   0  0  0  0  0  0  0  0  0  0  0  0
  152.0436  137.7126  183.3417 N   0  0  0  0  0  0  0  0  0  0  0  0
  152.7137  137.6778  184.5355 C   0  0  0  0  0  0  0  0  0  0  0  0
  152.1907  136.5797  185.3442 C   0  0  0  0  0  0  0  0  0  0  0  0
  153.1848  136.0847  186.4196 C   0  0  0  0  0  0  0  0  0  0  0  0
  153.4220  137.0700  187.4021 N   0  0  0  0  0  0  0  0  0  0  0  0
  153.5489  138.4944  187.1692 C   0  0  0  0  0  0  0  0  0  0  0  0
  154.4458  138.8216  185.9652 C   0  0  0  0  0  0  0  0  0  0  0  0
  153.6892  138.6178  184.6989 C   0  0  0  0  0  0  0  0  0  0  0  0
  153.5248  136.7670  188.7923 C   0  0  0  0  0  0  0  0  0  0  0  0
  152.3459  136.5534  189.4792 N   0  0  0  0  0  0  0  0  0  0  0  0
  152.2829  136.3217  190.7817 C   0  0  0  0  0  0  0  0  0  0  0  0
  153.4623  136.2931  191.4890 C   0  0  0  0  0  0  0  0  0  0  0  0
  154.6538  136.5001  190.8332 C   0  0  0  0  0  0  0  0  0  0  0  0
  154.7170  136.7435  189.4550 C   0  0  0  0  0  0  0  0  0  0  0  0
  156.0504  136.9424  188.8107 C   0  0  0  0  0  0  0  0  0  0  0  0
  156.3983  138.2493  188.6626 F   0  0  0  0  0  0  0  0  0  0  0  0
  157.0204  136.4584  189.7515 F   0  0  0  0  0  0  0  0  0  0  0  0
  156.2600  136.1321  187.7203 F   0  0  0  0  0  0  0  0  0  0  0  0
  151.5878  138.6388  181.1997 N   0  0  0  0  0  0  0  0  0  0  0  0
  150.2204  138.1560  181.1732 C   0  0  0  0  0  0  0  0  0  0  0  0
  149.7999  138.0804  179.7216 C   0  0  0  0  0  0  0  0  0  0  0  0
  149.8821  139.2865  179.0550 O   0  0  0  0  0  0  0  0  0  0  0  0
  151.0072  140.0306  179.3827 C   0  0  0  0  0  0  0  0  0  0  0  0
  152.1046  139.1397  179.9470 C   0  0  0  0  0  0  0  0  0  0  0  0
  155.1259  140.4032  183.9690 N   0  0  0  0  0  0  0  0  0  0  0  0
  155.4600  140.4903  184.9835 H   0  0  0  0  0  0  0  0  0  0  0  0
  157.6540  142.4100  181.2686 C   0  0  0  0  0  0  0  0  0  0  0  0
  156.7215  143.1303  181.9723 C   0  0  0  0  0  0  0  0  0  0  0  0
  155.8721  142.4832  182.8559 C   0  0  0  0  0  0  0  0  0  0  0  0
  155.9315  141.1229  183.0601 C   0  0  0  0  0  0  0  0  0  0  0  0
  156.8574  140.4605  182.3531 N   0  0  0  0  0  0  0  0  0  0  0  0
  157.6722  141.0494  181.5083 C   0  0  0  0  0  0  0  0  0  0  0  0
  158.2286  142.8096  178.9876 F   0  0  0  0  0  0  0  0  0  0  0  0
  158.6078  143.0171  180.2941 C   0  0  0  0  0  0  0  0  0  0  0  0
  159.8296  142.3887  180.4710 F   0  0  0  0  0  0  0  0  0  0  0  0
  158.8348  144.3619  180.5587 F   0  0  0  0  0  0  0  0  0  0  0  0
 36 37  1  0  0  0
 37 38  1  0  0  0
 37 39  1  0  0  0
 37 30  1  0  0  0
 30 31  2  0  0  0
 31 32  1  0  0  0
 32 33  2  0  0  0
 33 28  1  0  0  0
 28  1  1  0  0  0
  1  2  2  0  0  0
  2  3  1  0  0  0
  3  4  2  0  0  0
  4  5  1  0  0  0
  5  6  1  0  0  0
  6  7  1  0  0  0
  7  8  1  0  0  0
  8  9  1  0  0  0
  9 10  1  0  0  0
 10 11  1  0  0  0
  8 12  1  0  0  0
 12 13  2  0  0  0
 13 14  1  0  0  0
 14 15  2  0  0  0
 15 16  1  0  0  0
 16 17  2  0  0  0
 17 18  1  0  0  0
 18 19  1  0  0  0
 18 20  1  0  0  0
 18 21  1  0  0  0
  3 22  1  0  0  0
 22 23  1  0  0  0
 23 24  1  0  0  0
 24 25  1  0  0  0
 25 26  1  0  0  0
 26 27  1  0  0  0
 33 34  1  0  0  0
 34 35  2  0  0  0
 35 30  1  0  0  0
 11  1  1  0  0  0
 17 12  1  0  0  0
 27 22  1  0  0  0
 11  5  2  0  0  0
 28 29  1  0  0  0
M  END
> <minimizedAffinity>
-9.33322

> <CNNscore>
0.3560778797

> <CNNaffinity>
6.8292779922

> <CNN_VS>
2.4317548275

> <CNNaffinity_variance>
0.1020429283

$$$$
[H]c1nc(N2C([H])([H])C([H])([H])c3nc(N4C([H])([H])C([H])([H])OC([H])([H])C4([H])[H])nc(N([H])c4nc([H])c(C(F)(F)F)c([H])c4[H])c3C([H])([H])C2([H])[H])c(C(F)(F)F)c([H])c1[H]


 39 43  0  0  0  0  0  0  0  0999 V2000
  153.7686  136.6820  187.6280 C   0  0  0  0  0  0  0  0  0  0  0  0
  153.5180  136.6793  188.9499 N   0  0  0  0  0  0  0  0  0  0  0  0
  152.3633  136.2827  189.4825 C   0  0  0  0  0  0  0  0  0  0  0  0
  151.3637  135.8524  188.6904 N   0  0  0  0  0  0  0  0  0  0  0  0
  151.5044  135.8072  187.3290 C   0  0  0  0  0  0  0  0  0  0  0  0
  150.2612  135.3201  186.7368 C   0  0  0  0  0  0  0  0  0  0  0  0
  150.0822  135.7387  185.2596 C   0  0  0  0  0  0  0  0  0  0  0  0
  151.0474  135.1332  184.4263 N   0  0  0  0  0  0  0  0  0  0  0  0
  152.4406  134.9108  184.7558 C   0  0  0  0  0  0  0  0  0  0  0  0
  153.1000  136.1370  185.4060 C   0  0  0  0  0  0  0  0  0  0  0  0
  152.7088  136.2225  186.8403 C   0  0  0  0  0  0  0  0  0  0  0  0
  150.7374  134.6143  183.1341 C   0  0  0  0  0  0  0  0  0  0  0  0
  151.3158  135.2416  182.0482 N   0  0  0  0  0  0  0  0  0  0  0  0
  151.0742  134.9083  180.7893 C   0  0  0  0  0  0  0  0  0  0  0  0
  150.1953  133.8770  180.5528 C   0  0  0  0  0  0  0  0  0  0  0  0
  149.6041  133.2306  181.6136 C   0  0  0  0  0  0  0  0  0  0  0  0
  149.8628  133.5847  182.9442 C   0  0  0  0  0  0  0  0  0  0  0  0
  149.1949  132.8244  184.0435 C   0  0  0  0  0  0  0  0  0  0  0  0
  148.1452  133.4823  184.6059 F   0  0  0  0  0  0  0  0  0  0  0  0
  148.5663  131.6956  183.4184 F   0  0  0  0  0  0  0  0  0  0  0  0
  150.0764  132.2318  184.9158 F   0  0  0  0  0  0  0  0  0  0  0  0
  152.1742  136.2690  190.8866 N   0  0  0  0  0  0  0  0  0  0  0  0
  153.2529  136.6251  191.7884 C   0  0  0  0  0  0  0  0  0  0  0  0
  152.8005  136.2737  193.1890 C   0  0  0  0  0  0  0  0  0  0  0  0
  151.6391  136.9121  193.5752 O   0  0  0  0  0  0  0  0  0  0  0  0
  150.6853  136.9935  192.5700 C   0  0  0  0  0  0  0  0  0  0  0  0
  150.9172  135.9256  191.5107 C   0  0  0  0  0  0  0  0  0  0  0  0
  154.9015  137.1957  187.0131 N   0  0  0  0  0  0  0  0  0  0  0  0
  155.8335  136.7243  187.2529 H   0  0  0  0  0  0  0  0  0  0  0  0
  155.1108  140.2660  184.1426 C   0  0  0  0  0  0  0  0  0  0  0  0
  156.2010  139.4543  184.3336 C   0  0  0  0  0  0  0  0  0  0  0  0
  156.1535  138.4468  185.2841 C   0  0  0  0  0  0  0  0  0  0  0  0
  155.0346  138.2237  186.0548 C   0  0  0  0  0  0  0  0  0  0  0  0
  153.9943  139.0390  185.8335 N   0  0  0  0  0  0  0  0  0  0  0  0
  154.0146  140.0021  184.9410 C   0  0  0  0  0  0  0  0  0  0  0  0
  156.2594  141.5249  182.4726 F   0  0  0  0  0  0  0  0  0  0  0  0
  155.0690  141.3773  183.1470 C   0  0  0  0  0  0  0  0  0  0  0  0
  154.8486  142.5499  183.8509 F   0  0  0  0  0  0  0  0  0  0  0  0
  153.9938  141.2539  182.2760 F   0  0  0  0  0  0  0  0  0  0  0  0
 36 37  1  0  0  0
 37 38  1  0  0  0
 37 39  1  0  0  0
 37 30  1  0  0  0
 30 31  2  0  0  0
 31 32  1  0  0  0
 32 33  2  0  0  0
 33 28  1  0  0  0
 28  1  1  0  0  0
  1  2  2  0  0  0
  2  3  1  0  0  0
  3  4  2  0  0  0
  4  5  1  0  0  0
  5  6  1  0  0  0
  6  7  1  0  0  0
  7  8  1  0  0  0
  8  9  1  0  0  0
  9 10  1  0  0  0
 10 11  1  0  0  0
  8 12  1  0  0  0
 12 13  2  0  0  0
 13 14  1  0  0  0
 14 15  2  0  0  0
 15 16  1  0  0  0
 16 17  2  0  0  0
 17 18  1  0  0  0
 18 19  1  0  0  0
 18 20  1  0  0  0
 18 21  1  0  0  0
  3 22  1  0  0  0
 22 23  1  0  0  0
 23 24  1  0  0  0
 24 25  1  0  0  0
 25 26  1  0  0  0
 26 27  1  0  0  0
 33 34  1  0  0  0
 34 35  2  0  0  0
 35 30  1  0  0  0
 11  1  1  0  0  0
 17 12  1  0  0  0
 27 22  1  0  0  0
 11  5  2  0  0  0
 28 29  1  0  0  0
M  END
> <minimizedAffinity>
-4.31248

> <CNNscore>
0.2606742978

> <CNNaffinity>
6.4985032082

> <CNN_VS>
1.6939927340

> <CNNaffinity_variance>
0.6043256521

$$$$
[H]c1nc(N2C([H])([H])C([H])([H])c3nc(N4C([H])([H])C([H])([H])OC([H])([H])C4([H])[H])nc(N([H])c4nc([H])c(C(F)(F)F)c([H])c4[H])c3C([H])([H])C2([H])[H])c(C(F)(F)F)c([H])c1[H]


 39 43  0  0  0  0  0  0  0  0999 V2000
  154.1298  139.5190  183.2470 C   0  0  0  0  0  0  0  0  0  0  0  0
  153.7181  138.4866  184.0053 N   0  0  0  0  0  0  0  0  0  0  0  0
  154.4386  137.9638  184.9960 C   0  0  0  0  0  0  0  0  0  0  0  0
  155.6524  138.4661  185.2899 N   0  0  0  0  0  0  0  0  0  0  0  0
  156.1747  139.5198  184.5885 C   0  0  0  0  0  0  0  0  0  0  0  0
  157.5010  139.8324  185.1143 C   0  0  0  0  0  0  0  0  0  0  0  0
  158.3993  140.5806  184.1029 C   0  0  0  0  0  0  0  0  0  0  0  0
  157.8991  141.8690  183.8161 N   0  0  0  0  0  0  0  0  0  0  0  0
  156.5039  142.2283  183.6628 C   0  0  0  0  0  0  0  0  0  0  0  0
  155.7259  141.2297  182.7918 C   0  0  0  0  0  0  0  0  0  0  0  0
  155.3914  140.0161  183.5874 C   0  0  0  0  0  0  0  0  0  0  0  0
  158.7406  143.0132  183.6824 C   0  0  0  0  0  0  0  0  0  0  0  0
  158.5414  143.8156  182.5761 N   0  0  0  0  0  0  0  0  0  0  0  0
  159.2834  144.8748  182.2903 C   0  0  0  0  0  0  0  0  0  0  0  0
  160.3120  145.1915  183.1470 C   0  0  0  0  0  0  0  0  0  0  0  0
  160.5348  144.4128  184.2591 C   0  0  0  0  0  0  0  0  0  0  0  0
  159.7472  143.2938  184.5593 C   0  0  0  0  0  0  0  0  0  0  0  0
  160.0405  142.5068  185.7951 C   0  0  0  0  0  0  0  0  0  0  0  0
  158.9298  142.1567  186.4985 F   0  0  0  0  0  0  0  0  0  0  0  0
  160.5468  141.2408  185.3469 F   0  0  0  0  0  0  0  0  0  0  0  0
  161.0899  143.0068  186.5286 F   0  0  0  0  0  0  0  0  0  0  0  0
  153.9330  136.8993  185.7827 N   0  0  0  0  0  0  0  0  0  0  0  0
  153.7586  135.5736  185.2208 C   0  0  0  0  0  0  0  0  0  0  0  0
  152.9855  134.7561  186.2326 C   0  0  0  0  0  0  0  0  0  0  0  0
  153.6046  134.6640  187.4631 O   0  0  0  0  0  0  0  0  0  0  0  0
  154.1989  135.8471  187.8799 C   0  0  0  0  0  0  0  0  0  0  0  0
  153.5793  137.0458  187.1758 C   0  0  0  0  0  0  0  0  0  0  0  0
  153.4779  140.0223  182.1302 N   0  0  0  0  0  0  0  0  0  0  0  0
  153.8967  140.9030  181.6861 H   0  0  0  0  0  0  0  0  0  0  0  0
  150.0890  138.7236  179.9996 C   0  0  0  0  0  0  0  0  0  0  0  0
  150.7124  137.8533  180.8586 C   0  0  0  0  0  0  0  0  0  0  0  0
  151.8374  138.2606  181.5580 C   0  0  0  0  0  0  0  0  0  0  0  0
  152.3604  139.5272  181.4239 C   0  0  0  0  0  0  0  0  0  0  0  0
  151.7190  140.3430  180.5760 N   0  0  0  0  0  0  0  0  0  0  0  0
  150.6530  139.9810  179.8998 C   0  0  0  0  0  0  0  0  0  0  0  0
  148.6980  137.0162  179.0818 F   0  0  0  0  0  0  0  0  0  0  0  0
  148.8763  138.3754  179.2021 C   0  0  0  0  0  0  0  0  0  0  0  0
  149.0671  138.8784  177.9257 F   0  0  0  0  0  0  0  0  0  0  0  0
  147.7370  139.0047  179.6879 F   0  0  0  0  0  0  0  0  0  0  0  0
 36 37  1  0  0  0
 37 38  1  0  0  0
 37 39  1  0  0  0
 37 30  1  0  0  0
 30 31  2  0  0  0
 31 32  1  0  0  0
 32 33  2  0  0  0
 33 28  1  0  0  0
 28  1  1  0  0  0
  1  2  2  0  0  0
  2  3  1  0  0  0
  3  4  2  0  0  0
  4  5  1  0  0  0
  5  6  1  0  0  0
  6  7  1  0  0  0
  7  8  1  0  0  0
  8  9  1  0  0  0
  9 10  1  0  0  0
 10 11  1  0  0  0
  8 12  1  0  0  0
 12 13  2  0  0  0
 13 14  1  0  0  0
 14 15  2  0  0  0
 15 16  1  0  0  0
 16 17  2  0  0  0
 17 18  1  0  0  0
 18 19  1  0  0  0
 18 20  1  0  0  0
 18 21  1  0  0  0
  3 22  1  0  0  0
 22 23  1  0  0  0
 23 24  1  0  0  0
 24 25  1  0  0  0
 25 26  1  0  0  0
 26 27  1  0  0  0
 33 34  1  0  0  0
 34 35  2  0  0  0
 35 30  1  0  0  0
 11  1  1  0  0  0
 17 12  1  0  0  0
 27 22  1  0  0  0
 11  5  2  0  0  0
 28 29  1  0  0  0
M  END
> <minimizedAffinity>
-9.38051

> <CNNscore>
0.2424707711

> <CNNaffinity>
6.9521698952

> <CNN_VS>
1.6856980324

> <CNNaffinity_variance>
0.0657053441

$$$$
[H]c1nc(N2C([H])([H])C([H])([H])c3nc(N4C([H])([H])C([H])([H])OC([H])([H])C4([H])[H])nc(N([H])c4nc([H])c(C(F)(F)F)c([H])c4[H])c3C([H])([H])C2([H])[H])c(C(F)(F)F)c([H])c1[H]


 39 43  0  0  0  0  0  0  0  0999 V2000
  154.4155  137.9481  185.1612 C   0  0  0  0  0  0  0  0  0  0  0  0
  154.6390  137.9165  186.4876 N   0  0  0  0  0  0  0  0  0  0  0  0
  153.7121  137.5870  187.3856 C   0  0  0  0  0  0  0  0  0  0  0  0
  152.4686  137.2595  186.9877 N   0  0  0  0  0  0  0  0  0  0  0  0
  152.1249  137.2527  185.6622 C   0  0  0  0  0  0  0  0  0  0  0  0
  150.7185  136.8794  185.5360 C   0  0  0  0  0  0  0  0  0  0  0  0
  150.0734  137.3624  184.2169 C   0  0  0  0  0  0  0  0  0  0  0  0
  150.6377  136.7179  183.0949 N   0  0  0  0  0  0  0  0  0  0  0  0
  152.0359  136.3824  182.9171 C   0  0  0  0  0  0  0  0  0  0  0  0
  152.9768  137.5331  183.3067 C   0  0  0  0  0  0  0  0  0  0  0  0
  153.1149  137.5957  184.7881 C   0  0  0  0  0  0  0  0  0  0  0  0
  149.8583  136.2695  181.9874 C   0  0  0  0  0  0  0  0  0  0  0  0
  149.3518  134.9863  182.0521 N   0  0  0  0  0  0  0  0  0  0  0  0
  148.6622  134.4157  181.0759 C   0  0  0  0  0  0  0  0  0  0  0  0
  148.4393  135.1462  179.9318 C   0  0  0  0  0  0  0  0  0  0  0  0
  148.9291  136.4283  179.8374 C   0  0  0  0  0  0  0  0  0  0  0  0
  149.6570  137.0295  180.8725 C   0  0  0  0  0  0  0  0  0  0  0  0
  150.1422  138.4325  180.7025 C   0  0  0  0  0  0  0  0  0  0  0  0
  150.0694  139.1790  181.8376 F   0  0  0  0  0  0  0  0  0  0  0  0
  151.5559  138.3370  180.4733 F   0  0  0  0  0  0  0  0  0  0  0  0
  149.6917  139.0339  179.5517 F   0  0  0  0  0  0  0  0  0  0  0  0
  154.0206  137.5370  188.7676 N   0  0  0  0  0  0  0  0  0  0  0  0
  153.9431  136.2904  189.5049 C   0  0  0  0  0  0  0  0  0  0  0  0
  154.0908  136.6279  190.9726 C   0  0  0  0  0  0  0  0  0  0  0  0
  155.2695  137.2784  191.2780 O   0  0  0  0  0  0  0  0  0  0  0  0
  155.6439  138.2279  190.3372 C   0  0  0  0  0  0  0  0  0  0  0  0
  154.4439  138.6926  189.5244 C   0  0  0  0  0  0  0  0  0  0  0  0
  155.3030  138.3989  184.1945 N   0  0  0  0  0  0  0  0  0  0  0  0
  155.9043  137.6555  183.7106 H   0  0  0  0  0  0  0  0  0  0  0  0
  156.1205  142.2428  182.6891 C   0  0  0  0  0  0  0  0  0  0  0  0
  154.8844  141.9848  183.2269 C   0  0  0  0  0  0  0  0  0  0  0  0
  154.5941  140.7206  183.7151 C   0  0  0  0  0  0  0  0  0  0  0  0
  155.5151  139.6975  183.6832 C   0  0  0  0  0  0  0  0  0  0  0  0
  156.7084  139.9950  183.1507 N   0  0  0  0  0  0  0  0  0  0  0  0
  157.0076  141.1837  182.6793 C   0  0  0  0  0  0  0  0  0  0  0  0
  157.2909  144.2958  183.0181 F   0  0  0  0  0  0  0  0  0  0  0  0
  156.5236  143.5695  182.1364 C   0  0  0  0  0  0  0  0  0  0  0  0
  155.3619  144.2906  181.9138 F   0  0  0  0  0  0  0  0  0  0  0  0
  157.1360  143.4506  180.8952 F   0  0  0  0  0  0  0  0  0  0  0  0
 36 37  1  0  0  0
 37 38  1  0  0  0
 37 39  1  0  0  0
 37 30  1  0  0  0
 30 31  2  0  0  0
 31 32  1  0  0  0
 32 33  2  0  0  0
 33 28  1  0  0  0
 28  1  1  0  0  0
  1  2  2  0  0  0
  2  3  1  0  0  0
  3  4  2  0  0  0
  4  5  1  0  0  0
  5  6  1  0  0  0
  6  7  1  0  0  0
  7  8  1  0  0  0
  8  9  1  0  0  0
  9 10  1  0  0  0
 10 11  1  0  0  0
  8 12  1  0  0  0
 12 13  2  0  0  0
 13 14  1  0  0  0
 14 15  2  0  0  0
 15 16  1  0  0  0
 16 17  2  0  0  0
 17 18  1  0  0  0
 18 19  1  0  0  0
 18 20  1  0  0  0
 18 21  1  0  0  0
  3 22  1  0  0  0
 22 23  1  0  0  0
 23 24  1  0  0  0
 24 25  1  0  0  0
 25 26  1  0  0  0
 26 27  1  0  0  0
 33 34  1  0  0  0
 34 35  2  0  0  0
 35 30  1  0  0  0
 11  1  1  0  0  0
 17 12  1  0  0  0
 27 22  1  0  0  0
 11  5  2  0  0  0
 28 29  1  0  0  0
M  END
> <minimizedAffinity>
-7.44907

> <CNNscore>
0.2416854501

> <CNNaffinity>
6.7013902664

> <CNN_VS>
1.6196285486

> <CNNaffinity_variance>
0.0221461821

$$$$
[H]c1nc(N2C([H])([H])C([H])([H])c3nc(N4C([H])([H])C([H])([H])OC([H])([H])C4([H])[H])nc(N([H])c4nc([H])c(C(F)(F)F)c([H])c4[H])c3C([H])([H])C2([H])[H])c(C(F)(F)F)c([H])c1[H]


 39 43  0  0  0  0  0  0  0  0999 V2000
  153.9985  138.1361  183.9912 C   0  0  0  0  0  0  0  0  0  0  0  0
  152.9355  138.1072  183.1668 N   0  0  0  0  0  0  0  0  0  0  0  0
  152.6173  139.0986  182.3362 C   0  0  0  0  0  0  0  0  0  0  0  0
  153.3745  140.2103  182.2857 N   0  0  0  0  0  0  0  0  0  0  0  0
  154.4839  140.3516  183.0761 C   0  0  0  0  0  0  0  0  0  0  0  0
  155.0890  141.6560  182.8202 C   0  0  0  0  0  0  0  0  0  0  0  0
  155.9655  142.1634  183.9880 C   0  0  0  0  0  0  0  0  0  0  0  0
  157.1075  141.3542  184.1716 N   0  0  0  0  0  0  0  0  0  0  0  0
  157.1599  139.9115  184.0489 C   0  0  0  0  0  0  0  0  0  0  0  0
  155.9848  139.2128  184.7504 C   0  0  0  0  0  0  0  0  0  0  0  0
  154.7626  139.3037  183.9045 C   0  0  0  0  0  0  0  0  0  0  0  0
  158.3958  141.8904  184.4677 C   0  0  0  0  0  0  0  0  0  0  0  0
  158.8243  141.8127  185.7783 N   0  0  0  0  0  0  0  0  0  0  0  0
  159.9688  142.3195  186.2112 C   0  0  0  0  0  0  0  0  0  0  0  0
  160.7756  142.9604  185.2999 C   0  0  0  0  0  0  0  0  0  0  0  0
  160.3778  143.0526  183.9862 C   0  0  0  0  0  0  0  0  0  0  0  0
  159.1671  142.5143  183.5312 C   0  0  0  0  0  0  0  0  0  0  0  0
  158.8115  142.6399  182.0854 C   0  0  0  0  0  0  0  0  0  0  0  0
  159.8879  142.7914  181.2673 F   0  0  0  0  0  0  0  0  0  0  0  0
  158.2903  141.3612  181.6938 F   0  0  0  0  0  0  0  0  0  0  0  0
  157.7496  143.4808  181.8519 F   0  0  0  0  0  0  0  0  0  0  0  0
  151.5046  138.9920  181.4655 N   0  0  0  0  0  0  0  0  0  0  0  0
  151.6249  139.3180  180.0574 C   0  0  0  0  0  0  0  0  0  0  0  0
  150.2262  139.3353  179.4803 C   0  0  0  0  0  0  0  0  0  0  0  0
  149.5491  138.1413  179.6268 O   0  0  0  0  0  0  0  0  0  0  0  0
  149.7526  137.5305  180.8566 C   0  0  0  0  0  0  0  0  0  0  0  0
  150.2020  138.5431  181.9003 C   0  0  0  0  0  0  0  0  0  0  0  0
  154.3068  137.1905  184.9588 N   0  0  0  0  0  0  0  0  0  0  0  0
  155.0546  136.4671  184.7022 H   0  0  0  0  0  0  0  0  0  0  0  0
  152.8083  136.6092  188.8482 C   0  0  0  0  0  0  0  0  0  0  0  0
  153.1883  137.8696  188.4599 C   0  0  0  0  0  0  0  0  0  0  0  0
  153.6962  138.0762  187.1871 C   0  0  0  0  0  0  0  0  0  0  0  0
  153.8336  137.0484  186.2812 C   0  0  0  0  0  0  0  0  0  0  0  0
  153.4491  135.8358  186.7028 N   0  0  0  0  0  0  0  0  0  0  0  0
  152.9671  135.6132  187.9039 C   0  0  0  0  0  0  0  0  0  0  0  0
  152.7032  135.0792  190.6760 F   0  0  0  0  0  0  0  0  0  0  0  0
  152.2547  136.2888  190.1968 C   0  0  0  0  0  0  0  0  0  0  0  0
  150.8794  136.1920  190.0626 F   0  0  0  0  0  0  0  0  0  0  0  0
  152.4725  137.3170  191.1052 F   0  0  0  0  0  0  0  0  0  0  0  0
 36 37  1  0  0  0
 37 38  1  0  0  0
 37 39  1  0  0  0
 37 30  1  0  0  0
 30 31  2  0  0  0
 31 32  1  0  0  0
 32 33  2  0  0  0
 33 28  1  0  0  0
 28  1  1  0  0  0
  1  2  2  0  0  0
  2  3  1  0  0  0
  3  4  2  0  0  0
  4  5  1  0  0  0
  5  6  1  0  0  0
  6  7  1  0  0  0
  7  8  1  0  0  0
  8  9  1  0  0  0
  9 10  1  0  0  0
 10 11  1  0  0  0
  8 12  1  0  0  0
 12 13  2  0  0  0
 13 14  1  0  0  0
 14 15  2  0  0  0
 15 16  1  0  0  0
 16 17  2  0  0  0
 17 18  1  0  0  0
 18 19  1  0  0  0
 18 20  1  0  0  0
 18 21  1  0  0  0
  3 22  1  0  0  0
 22 23  1  0  0  0
 23 24  1  0  0  0
 24 25  1  0  0  0
 25 26  1  0  0  0
 26 27  1  0  0  0
 33 34  1  0  0  0
 34 35  2  0  0  0
 35 30  1  0  0  0
 11  1  1  0  0  0
 17 12  1  0  0  0
 27 22  1  0  0  0
 11  5  2  0  0  0
 28 29  1  0  0  0
M  END
> <minimizedAffinity>
-9.42060

> <CNNscore>
0.2350038737

> <CNNaffinity>
6.9118347168

> <CNN_VS>
1.6243079901

> <CNNaffinity_variance>
0.0657276958

$$$$
[H]c1nc(N2C([H])([H])C([H])([H])c3nc(N4C([H])([H])C([H])([H])OC([H])([H])C4([H])[H])nc(N([H])c4nc([H])c(C(F)(F)F)c([H])c4[H])c3C([H])([H])C2([H])[H])c(C(F)(F)F)c([H])c1[H]


 39 43  0  0  0  0  0  0  0  0999 V2000
  153.2655  137.9455  184.0196 C   0  0  0  0  0  0  0  0  0  0  0  0
  152.0844  137.9985  183.3775 N   0  0  0  0  0  0  0  0  0  0  0  0
  150.9477  137.5197  183.8802 C   0  0  0  0  0  0  0  0  0  0  0  0
  150.9341  136.9427  185.0963 N   0  0  0  0  0  0  0  0  0  0  0  0
  152.0756  136.8351  185.8451 C   0  0  0  0  0  0  0  0  0  0  0  0
  151.7614  136.1545  187.0987 C   0  0  0  0  0  0  0  0  0  0  0  0
  152.9901  135.4858  187.7563 C   0  0  0  0  0  0  0  0  0  0  0  0
  153.9363  136.4420  188.1843 N   0  0  0  0  0  0  0  0  0  0  0  0
  154.2978  137.6577  187.4840 C   0  0  0  0  0  0  0  0  0  0  0  0
  154.5204  137.4330  185.9803 C   0  0  0  0  0  0  0  0  0  0  0  0
  153.2085  137.3451  185.2810 C   0  0  0  0  0  0  0  0  0  0  0  0
  154.6379  136.3355  189.4217 C   0  0  0  0  0  0  0  0  0  0  0  0
  154.0334  136.8808  190.5374 N   0  0  0  0  0  0  0  0  0  0  0  0
  154.5910  136.9090  191.7385 C   0  0  0  0  0  0  0  0  0  0  0  0
  155.8456  136.3630  191.8797 C   0  0  0  0  0  0  0  0  0  0  0  0
  156.4735  135.8101  190.7877 C   0  0  0  0  0  0  0  0  0  0  0  0
  155.8804  135.7806  189.5188 C   0  0  0  0  0  0  0  0  0  0  0  0
  156.6183  135.1474  188.3842 C   0  0  0  0  0  0  0  0  0  0  0  0
  157.1348  136.0421  187.4989 F   0  0  0  0  0  0  0  0  0  0  0  0
  157.7916  134.5527  188.9584 F   0  0  0  0  0  0  0  0  0  0  0  0
  155.9680  134.0647  187.8420 F   0  0  0  0  0  0  0  0  0  0  0  0
  149.7281  137.6391  183.1690 N   0  0  0  0  0  0  0  0  0  0  0  0
  148.5627  136.8648  183.5510 C   0  0  0  0  0  0  0  0  0  0  0  0
  147.5301  137.0407  182.4588 C   0  0  0  0  0  0  0  0  0  0  0  0
  147.1672  138.3550  182.2428 O   0  0  0  0  0  0  0  0  0  0  0  0
  148.2305  139.2453  182.3011 C   0  0  0  0  0  0  0  0  0  0  0  0
  149.5519  138.5336  182.0482 C   0  0  0  0  0  0  0  0  0  0  0  0
  154.4962  138.3160  183.4966 N   0  0  0  0  0  0  0  0  0  0  0  0
  155.1440  137.5216  183.1841 H   0  0  0  0  0  0  0  0  0  0  0  0
  156.0115  142.1333  182.5787 C   0  0  0  0  0  0  0  0  0  0  0  0
  156.6597  141.3638  183.5122 C   0  0  0  0  0  0  0  0  0  0  0  0
  156.1665  140.1097  183.8359 C   0  0  0  0  0  0  0  0  0  0  0  0
  155.0339  139.5967  183.2445 C   0  0  0  0  0  0  0  0  0  0  0  0
  154.4348  140.3818  182.3386 N   0  0  0  0  0  0  0  0  0  0  0  0
  154.8803  141.5743  182.0159 C   0  0  0  0  0  0  0  0  0  0  0  0
  155.4142  144.3648  181.9815 F   0  0  0  0  0  0  0  0  0  0  0  0
  156.4643  143.4951  182.1679 C   0  0  0  0  0  0  0  0  0  0  0  0
  157.1079  143.3622  180.9485 F   0  0  0  0  0  0  0  0  0  0  0  0
  157.4142  144.0115  183.0401 F   0  0  0  0  0  0  0  0  0  0  0  0
 36 37  1  0  0  0
 37 38  1  0  0  0
 37 39  1  0  0  0
 37 30  1  0  0  0
 30 31  2  0  0  0
 31 32  1  0  0  0
 32 33  2  0  0  0
 33 28  1  0  0  0
 28  1  1  0  0  0
  1  2  2  0  0  0
  2  3  1  0  0  0
  3  4  2  0  0  0
  4  5  1  0  0  0
  5  6  1  0  0  0
  6  7  1  0  0  0
  7  8  1  0  0  0
  8  9  1  0  0  0
  9 10  1  0  0  0
 10 11  1  0  0  0
  8 12  1  0  0  0
 12 13  2  0  0  0
 13 14  1  0  0  0
 14 15  2  0  0  0
 15 16  1  0  0  0
 16 17  2  0  0  0
 17 18  1  0  0  0
 18 19  1  0  0  0
 18 20  1  0  0  0
 18 21  1  0  0  0
  3 22  1  0  0  0
 22 23  1  0  0  0
 23 24  1  0  0  0
 24 25  1  0  0  0
 25 26  1  0  0  0
 26 27  1  0  0  0
 33 34  1  0  0  0
 34 35  2  0  0  0
 35 30  1  0  0  0
 11  1  1  0  0  0
 17 12  1  0  0  0
 27 22  1  0  0  0
 11  5  2  0  0  0
 28 29  1  0  0  0
M  END
> <minimizedAffinity>
-7.08151

> <CNNscore>
0.2323667109

> <CNNaffinity>
6.4958562851

> <CNN_VS>
1.5094207525

> <CNNaffinity_variance>
0.0385269299

$$$$
[H]c1nc(N2C([H])([H])C([H])([H])c3nc(-c4c([H])c([H])c([H])c([H])c4[H])nc(N([H])c4c([H])c([H])c(C(C([H])([H])[H])(C([H])([H])[H])C([H])([H])[H])c([H])c4[H])c3C([H])([H])C2([H])[H])c(C(F)(F)F)c([H])c1[H]


 39 43  0  0  0  0  0  0  0  0999 V2000
  153.2278  138.3998  183.6768 C   0  0  0  0  0  0  0  0  0  0  0  0
  152.1232  138.2807  182.9270 N   0  0  0  0  0  0  0  0  0  0  0  0
  151.6903  139.1554  182.0189 C   0  0  0  0  0  0  0  0  0  0  0  0
  152.4453  140.2520  181.8521 N   0  0  0  0  0  0  0  0  0  0  0  0
  153.5819  140.4862  182.5495 C   0  0  0  0  0  0  0  0  0  0  0  0
  154.2221  141.7847  182.1112 C   0  0  0  0  0  0  0  0  0  0  0  0
  155.6972  141.4748  181.8773 C   0  0  0  0  0  0  0  0  0  0  0  0
  156.3794  141.3246  183.1279 N   0  0  0  0  0  0  0  0  0  0  0  0
  155.7681  140.9855  184.3812 C   0  0  0  0  0  0  0  0  0  0  0  0
  155.1684  139.6045  184.3923 C   0  0  0  0  0  0  0  0  0  0  0  0
  153.9927  139.5538  183.4831 C   0  0  0  0  0  0  0  0  0  0  0  0
  157.7617  141.5391  183.1517 C   0  0  0  0  0  0  0  0  0  0  0  0
  158.4945  140.4988  183.6738 N   0  0  0  0  0  0  0  0  0  0  0  0
  159.8157  140.5152  183.7503 C   0  0  0  0  0  0  0  0  0  0  0  0
  160.5514  141.5959  183.3045 C   0  0  0  0  0  0  0  0  0  0  0  0
  159.8181  142.6451  182.7786 C   0  0  0  0  0  0  0  0  0  0  0  0
  158.4342  142.6317  182.6967 C   0  0  0  0  0  0  0  0  0  0  0  0
  157.7037  143.7917  182.1571 C   0  0  0  0  0  0  0  0  0  0  0  0
  156.6182  144.1663  182.9369 F   0  0  0  0  0  0  0  0  0  0  0  0
  158.5851  144.9004  182.2578 F   0  0  0  0  0  0  0  0  0  0  0  0
  157.4119  143.7128  180.8285 F   0  0  0  0  0  0  0  0  0  0  0  0
  150.4535  138.9487  181.2511 C   0  0  0  0  0  0  0  0  0  0  0  0
  150.4658  138.8481  179.8839 C   0  0  0  0  0  0  0  0  0  0  0  0
  149.3112  138.6464  179.1344 C   0  0  0  0  0  0  0  0  0  0  0  0
  148.1118  138.5481  179.8368 C   0  0  0  0  0  0  0  0  0  0  0  0
  148.0583  138.6442  181.2069 C   0  0  0  0  0  0  0  0  0  0  0  0
  149.2544  138.8468  181.9088 C   0  0  0  0  0  0  0  0  0  0  0  0
  153.6646  137.4167  184.5796 N   0  0  0  0  0  0  0  0  0  0  0  0
  153.7482  136.4252  184.1837 H   0  0  0  0  0  0  0  0  0  0  0  0
  154.7570  137.8326  188.6765 C   0  0  0  0  0  0  0  0  0  0  0  0
  153.6371  138.4609  188.1912 C   0  0  0  0  0  0  0  0  0  0  0  0
  153.2642  138.3434  186.8385 C   0  0  0  0  0  0  0  0  0  0  0  0
  153.9851  137.6078  185.9490 C   0  0  0  0  0  0  0  0  0  0  0  0
  155.1342  136.9674  186.4590 C   0  0  0  0  0  0  0  0  0  0  0  0
  155.4923  137.0865  187.7794 C   0  0  0  0  0  0  0  0  0  0  0  0
  154.5923  139.1474  190.7880 C   0  0  0  0  0  0  0  0  0  0  0  0
  155.1790  137.9364  190.1010 C   0  0  0  0  0  0  0  0  0  0  0  0
  154.7094  136.6526  190.7826 C   0  0  0  0  0  0  0  0  0  0  0  0
  156.6690  137.9707  190.1565 C   0  0  0  0  0  0  0  0  0  0  0  0
 36 37  1  0  0  0
 37 38  1  0  0  0
 37 39  1  0  0  0
 37 30  1  0  0  0
 30 31  2  0  0  0
 31 32  1  0  0  0
 32 33  2  0  0  0
 33 28  1  0  0  0
 28  1  1  0  0  0
  1  2  2  0  0  0
  2  3  1  0  0  0
  3  4  2  0  0  0
  4  5  1  0  0  0
  5  6  1  0  0  0
  6  7  1  0  0  0
  7  8  1  0  0  0
  8  9  1  0  0  0
  9 10  1  0  0  0
 10 11  1  0  0  0
  8 12  1  0  0  0
 12 13  2  0  0  0
 13 14  1  0  0  0
 14 15  2  0  0  0
 15 16  1  0  0  0
 16 17  2  0  0  0
 17 18  1  0  0  0
 18 19  1  0  0  0
 18 20  1  0  0  0
 18 21  1  0  0  0
  3 22  1  0  0  0
 22 23  2  0  0  0
 23 24  1  0  0  0
 24 25  2  0  0  0
 25 26  1  0  0  0
 26 27  2  0  0  0
 33 34  1  0  0  0
 34 35  2  0  0  0
 35 30  1  0  0  0
 11  1  1  0  0  0
 17 12  1  0  0  0
 27 22  1  0  0  0
 11  5  2  0  0  0
 28 29  1  0  0  0
M  END
> <minimizedAffinity>
-10.75717

> <CNNscore>
0.5341199040

> <CNNaffinity>
7.4230604172

> <CNN_VS>
3.9648044109

> <CNNaffinity_variance>
0.1532399952

$$$$
[H]c1nc(N2C([H])([H])C([H])([H])c3nc(-c4c([H])c([H])c([H])c([H])c4[H])nc(N([H])c4c([H])c([H])c(C(C([H])([H])[H])(C([H])([H])[H])C([H])([H])[H])c([H])c4[H])c3C([H])([H])C2([H])[H])c(C(F)(F)F)c([H])c1[H]


 39 43  0  0  0  0  0  0  0  0999 V2000
  154.7197  138.6171  184.4718 C   0  0  0  0  0  0  0  0  0  0  0  0
  153.9216  138.9202  183.4386 N   0  0  0  0  0  0  0  0  0  0  0  0
  152.7067  138.4213  183.2096 C   0  0  0  0  0  0  0  0  0  0  0  0
  152.2560  137.5344  184.1100 N   0  0  0  0  0  0  0  0  0  0  0  0
  152.9684  137.1475  185.1945 C   0  0  0  0  0  0  0  0  0  0  0  0
  152.1782  136.1676  186.0333 C   0  0  0  0  0  0  0  0  0  0  0  0
  152.2778  136.6620  187.4729 C   0  0  0  0  0  0  0  0  0  0  0  0
  153.5776  136.3836  188.0067 N   0  0  0  0  0  0  0  0  0  0  0  0
  154.7719  136.1730  187.2393 C   0  0  0  0  0  0  0  0  0  0  0  0
  155.2043  137.3937  186.4713 C   0  0  0  0  0  0  0  0  0  0  0  0
  154.2246  137.6881  185.3918 C   0  0  0  0  0  0  0  0  0  0  0  0
  153.7104  136.2894  189.3963 C   0  0  0  0  0  0  0  0  0  0  0  0
  153.2485  135.1125  189.9379 N   0  0  0  0  0  0  0  0  0  0  0  0
  153.3177  134.8384  191.2309 C   0  0  0  0  0  0  0  0  0  0  0  0
  153.8655  135.7322  192.1302 C   0  0  0  0  0  0  0  0  0  0  0  0
  154.3313  136.9179  191.5896 C   0  0  0  0  0  0  0  0  0  0  0  0
  154.2606  137.2087  190.2359 C   0  0  0  0  0  0  0  0  0  0  0  0
  154.7428  138.5020  189.7206 C   0  0  0  0  0  0  0  0  0  0  0  0
  153.8363  139.1271  188.8755 F   0  0  0  0  0  0  0  0  0  0  0  0
  154.8139  139.3753  190.8380 F   0  0  0  0  0  0  0  0  0  0  0  0
  156.0131  138.4807  189.2283 F   0  0  0  0  0  0  0  0  0  0  0  0
  151.9059  138.8013  182.0365 C   0  0  0  0  0  0  0  0  0  0  0  0
  152.4364  139.5484  181.0167 C   0  0  0  0  0  0  0  0  0  0  0  0
  151.7025  139.9159  179.8934 C   0  0  0  0  0  0  0  0  0  0  0  0
  150.3771  139.4895  179.8380 C   0  0  0  0  0  0  0  0  0  0  0  0
  149.8091  138.7398  180.8403 C   0  0  0  0  0  0  0  0  0  0  0  0
  150.5978  138.3990  181.9476 C   0  0  0  0  0  0  0  0  0  0  0  0
  155.9698  139.2182  184.6914 N   0  0  0  0  0  0  0  0  0  0  0  0
  156.5872  138.7516  185.4315 H   0  0  0  0  0  0  0  0  0  0  0  0
  157.6807  142.6183  182.7776 C   0  0  0  0  0  0  0  0  0  0  0  0
  156.3812  142.6528  183.2185 C   0  0  0  0  0  0  0  0  0  0  0  0
  155.7946  141.5366  183.8451 C   0  0  0  0  0  0  0  0  0  0  0  0
  156.4768  140.3764  184.0465 C   0  0  0  0  0  0  0  0  0  0  0  0
  157.8112  140.3526  183.5884 C   0  0  0  0  0  0  0  0  0  0  0  0
  158.3770  141.4448  182.9777 C   0  0  0  0  0  0  0  0  0  0  0  0
  158.7943  143.4557  180.7104 C   0  0  0  0  0  0  0  0  0  0  0  0
  158.3309  143.7808  182.1112 C   0  0  0  0  0  0  0  0  0  0  0  0
  157.2902  144.8987  182.0864 C   0  0  0  0  0  0  0  0  0  0  0  0
  159.4762  144.2343  182.9520 C   0  0  0  0  0  0  0  0  0  0  0  0
 36 37  1  0  0  0
 37 38  1  0  0  0
 37 39  1  0  0  0
 37 30  1  0  0  0
 30 31  2  0  0  0
 31 32  1  0  0  0
 32 33  2  0  0  0
 33 28  1  0  0  0
 28  1  1  0  0  0
  1  2  2  0  0  0
  2  3  1  0  0  0
  3  4  2  0  0  0
  4  5  1  0  0  0
  5  6  1  0  0  0
  6  7  1  0  0  0
  7  8  1  0  0  0
  8  9  1  0  0  0
  9 10  1  0  0  0
 10 11  1  0  0  0
  8 12  1  0  0  0
 12 13  2  0  0  0
 13 14  1  0  0  0
 14 15  2  0  0  0
 15 16  1  0  0  0
 16 17  2  0  0  0
 17 18  1  0  0  0
 18 19  1  0  0  0
 18 20  1  0  0  0
 18 21  1  0  0  0
  3 22  1  0  0  0
 22 23  2  0  0  0
 23 24  1  0  0  0
 24 25  2  0  0  0
 25 26  1  0  0  0
 26 27  2  0  0  0
 33 34  1  0  0  0
 34 35  2  0  0  0
 35 30  1  0  0  0
 11  1  1  0  0  0
 17 12  1  0  0  0
 27 22  1  0  0  0
 11  5  2  0  0  0
 28 29  1  0  0  0
M  END
> <minimizedAffinity>
-10.35802

> <CNNscore>
0.4742539823

> <CNNaffinity>
7.1073026657

> <CNN_VS>
3.3706665039

> <CNNaffinity_variance>
0.1882794797

$$$$
[H]c1nc(N2C([H])([H])C([H])([H])c3nc(-c4c([H])c([H])c([H])c([H])c4[H])nc(N([H])c4c([H])c([H])c(C(C([H])([H])[H])(C([H])([H])[H])C([H])([H])[H])c([H])c4[H])c3C([H])([H])C2([H])[H])c(C(F)(F)F)c([H])c1[H]


 39 43  0  0  0  0  0  0  0  0999 V2000
  154.9384  138.6458  184.4743 C   0  0  0  0  0  0  0  0  0  0  0  0
  155.9983  139.4561  184.6022 N   0  0  0  0  0  0  0  0  0  0  0  0
  156.3124  140.4737  183.8002 C   0  0  0  0  0  0  0  0  0  0  0  0
  155.4760  140.6935  182.7742 N   0  0  0  0  0  0  0  0  0  0  0  0
  154.3731  139.9440  182.5393 C   0  0  0  0  0  0  0  0  0  0  0  0
  153.6202  140.4612  181.3336 C   0  0  0  0  0  0  0  0  0  0  0  0
  152.1574  140.5593  181.7547 C   0  0  0  0  0  0  0  0  0  0  0  0
  151.5683  139.2551  181.8174 N   0  0  0  0  0  0  0  0  0  0  0  0
  152.2799  138.0207  181.9890 C   0  0  0  0  0  0  0  0  0  0  0  0
  152.9707  137.9168  183.3227 C   0  0  0  0  0  0  0  0  0  0  0  0
  154.0867  138.8971  183.3946 C   0  0  0  0  0  0  0  0  0  0  0  0
  150.1790  139.1553  181.6859 C   0  0  0  0  0  0  0  0  0  0  0  0
  149.5005  138.9985  182.8720 N   0  0  0  0  0  0  0  0  0  0  0  0
  148.1815  138.9140  182.9419 C   0  0  0  0  0  0  0  0  0  0  0  0
  147.3929  138.9777  181.8097 C   0  0  0  0  0  0  0  0  0  0  0  0
  148.0714  139.1351  180.6139 C   0  0  0  0  0  0  0  0  0  0  0  0
  149.4528  139.2241  180.5366 C   0  0  0  0  0  0  0  0  0  0  0  0
  150.1237  139.3582  179.2318 C   0  0  0  0  0  0  0  0  0  0  0  0
  149.2881  139.0900  178.1563 F   0  0  0  0  0  0  0  0  0  0  0  0
  150.4301  140.7363  179.0804 F   0  0  0  0  0  0  0  0  0  0  0  0
  151.3313  138.7330  179.1458 F   0  0  0  0  0  0  0  0  0  0  0  0
  157.5087  141.3027  184.0089 C   0  0  0  0  0  0  0  0  0  0  0  0
  157.8960  142.2471  183.0937 C   0  0  0  0  0  0  0  0  0  0  0  0
  159.0195  143.0484  183.2699 C   0  0  0  0  0  0  0  0  0  0  0  0
  159.7569  142.8541  184.4361 C   0  0  0  0  0  0  0  0  0  0  0  0
  159.4013  141.9173  185.3770 C   0  0  0  0  0  0  0  0  0  0  0  0
  158.2586  141.1395  185.1454 C   0  0  0  0  0  0  0  0  0  0  0  0
  154.6275  137.6226  185.3846 N   0  0  0  0  0  0  0  0  0  0  0  0
  154.3637  136.6790  184.9522 H   0  0  0  0  0  0  0  0  0  0  0  0
  154.7797  137.8522  189.6360 C   0  0  0  0  0  0  0  0  0  0  0  0
  153.5795  137.9626  188.9792 C   0  0  0  0  0  0  0  0  0  0  0  0
  153.5091  137.8986  187.5743 C   0  0  0  0  0  0  0  0  0  0  0  0
  154.6147  137.7243  186.8002 C   0  0  0  0  0  0  0  0  0  0  0  0
  155.8426  137.6129  187.4864 C   0  0  0  0  0  0  0  0  0  0  0  0
  155.9040  137.6767  188.8568 C   0  0  0  0  0  0  0  0  0  0  0  0
  153.7286  137.2387  191.8117 C   0  0  0  0  0  0  0  0  0  0  0  0
  154.8887  137.9158  191.1201 C   0  0  0  0  0  0  0  0  0  0  0  0
  156.2045  137.2303  191.4837 C   0  0  0  0  0  0  0  0  0  0  0  0
  154.9838  139.3462  191.5312 C   0  0  0  0  0  0  0  0  0  0  0  0
 36 37  1  0  0  0
 37 38  1  0  0  0
 37 39  1  0  0  0
 37 30  1  0  0  0
 30 31  2  0  0  0
 31 32  1  0  0  0
 32 33  2  0  0  0
 33 28  1  0  0  0
 28  1  1  0  0  0
  1  2  2  0  0  0
  2  3  1  0  0  0
  3  4  2  0  0  0
  4  5  1  0  0  0
  5  6  1  0  0  0
  6  7  1  0  0  0
  7  8  1  0  0  0
  8  9  1  0  0  0
  9 10  1  0  0  0
 10 11  1  0  0  0
  8 12  1  0  0  0
 12 13  2  0  0  0
 13 14  1  0  0  0
 14 15  2  0  0  0
 15 16  1  0  0  0
 16 17  2  0  0  0
 17 18  1  0  0  0
 18 19  1  0  0  0
 18 20  1  0  0  0
 18 21  1  0  0  0
  3 22  1  0  0  0
 22 23  2  0  0  0
 23 24  1  0  0  0
 24 25  2  0  0  0
 25 26  1  0  0  0
 26 27  2  0  0  0
 33 34  1  0  0  0
 34 35  2  0  0  0
 35 30  1  0  0  0
 11  1  1  0  0  0
 17 12  1  0  0  0
 27 22  1  0  0  0
 11  5  2  0  0  0
 28 29  1  0  0  0
M  END
> <minimizedAffinity>
-10.19470

> <CNNscore>
0.4317513704

> <CNNaffinity>
6.9459013939

> <CNN_VS>
2.9989025593

> <CNNaffinity_variance>
0.1081990376

$$$$
[H]c1nc(N2C([H])([H])C([H])([H])c3nc(-c4c([H])c([H])c([H])c([H])c4[H])nc(N([H])c4c([H])c([H])c(C(C([H])([H])[H])(C([H])([H])[H])C([H])([H])[H])c([H])c4[H])c3C([H])([H])C2([H])[H])c(C(F)(F)F)c([H])c1[H]


 39 43  0  0  0  0  0  0  0  0999 V2000
  153.5696  138.4459  185.1545 C   0  0  0  0  0  0  0  0  0  0  0  0
  154.2040  138.5656  186.3291 N   0  0  0  0  0  0  0  0  0  0  0  0
  154.1633  137.6951  187.3379 C   0  0  0  0  0  0  0  0  0  0  0  0
  153.4124  136.6007  187.1402 N   0  0  0  0  0  0  0  0  0  0  0  0
  152.7243  136.3666  185.9978 C   0  0  0  0  0  0  0  0  0  0  0  0
  152.0055  135.0375  186.0677 C   0  0  0  0  0  0  0  0  0  0  0  0
  152.3229  134.3125  184.7637 C   0  0  0  0  0  0  0  0  0  0  0  0
  151.5818  134.8871  183.6808 N   0  0  0  0  0  0  0  0  0  0  0  0
  151.0420  136.2163  183.6461 C   0  0  0  0  0  0  0  0  0  0  0  0
  152.1017  137.2857  183.6617 C   0  0  0  0  0  0  0  0  0  0  0  0
  152.7927  137.2970  184.9785 C   0  0  0  0  0  0  0  0  0  0  0  0
  151.3398  134.0914  182.5558 C   0  0  0  0  0  0  0  0  0  0  0  0
  150.1680  133.3727  182.6031 N   0  0  0  0  0  0  0  0  0  0  0  0
  149.7637  132.5881  181.6169 C   0  0  0  0  0  0  0  0  0  0  0  0
  150.5060  132.4396  180.4616 C   0  0  0  0  0  0  0  0  0  0  0  0
  151.6860  133.1608  180.4097 C   0  0  0  0  0  0  0  0  0  0  0  0
  152.1129  133.9836  181.4407 C   0  0  0  0  0  0  0  0  0  0  0  0
  153.3953  134.7026  181.3442 C   0  0  0  0  0  0  0  0  0  0  0  0
  154.2910  134.3620  182.3484 F   0  0  0  0  0  0  0  0  0  0  0  0
  154.0269  134.2350  180.1615 F   0  0  0  0  0  0  0  0  0  0  0  0
  153.2813  136.0473  181.1562 F   0  0  0  0  0  0  0  0  0  0  0  0
  154.8816  137.9173  188.6014 C   0  0  0  0  0  0  0  0  0  0  0  0
  156.1812  137.5142  188.7687 C   0  0  0  0  0  0  0  0  0  0  0  0
  156.8853  137.7178  189.9512 C   0  0  0  0  0  0  0  0  0  0  0  0
  156.2088  138.3606  190.9860 C   0  0  0  0  0  0  0  0  0  0  0  0
  154.9059  138.7791  190.8571 C   0  0  0  0  0  0  0  0  0  0  0  0
  154.2477  138.5472  189.6417 C   0  0  0  0  0  0  0  0  0  0  0  0
  153.6951  139.3707  184.1051 N   0  0  0  0  0  0  0  0  0  0  0  0
  152.7805  139.6658  183.6328 H   0  0  0  0  0  0  0  0  0  0  0  0
  157.2087  141.1400  182.4697 C   0  0  0  0  0  0  0  0  0  0  0  0
  157.3077  140.1117  183.3735 C   0  0  0  0  0  0  0  0  0  0  0  0
  156.1588  139.5197  183.9324 C   0  0  0  0  0  0  0  0  0  0  0  0
  154.9019  139.9296  183.6094 C   0  0  0  0  0  0  0  0  0  0  0  0
  154.8128  140.9876  182.6801 C   0  0  0  0  0  0  0  0  0  0  0  0
  155.9375  141.5606  182.1393 C   0  0  0  0  0  0  0  0  0  0  0  0
  159.6851  141.4102  182.5656 C   0  0  0  0  0  0  0  0  0  0  0  0
  158.4035  141.7877  181.8603 C   0  0  0  0  0  0  0  0  0  0  0  0
  158.4401  141.3351  180.4018 C   0  0  0  0  0  0  0  0  0  0  0  0
  158.2079  143.2661  181.8806 C   0  0  0  0  0  0  0  0  0  0  0  0
 36 37  1  0  0  0
 37 38  1  0  0  0
 37 39  1  0  0  0
 37 30  1  0  0  0
 30 31  2  0  0  0
 31 32  1  0  0  0
 32 33  2  0  0  0
 33 28  1  0  0  0
 28  1  1  0  0  0
  1  2  2  0  0  0
  2  3  1  0  0  0
  3  4  2  0  0  0
  4  5  1  0  0  0
  5  6  1  0  0  0
  6  7  1  0  0  0
  7  8  1  0  0  0
  8  9  1  0  0  0
  9 10  1  0  0  0
 10 11  1  0  0  0
  8 12  1  0  0  0
 12 13  2  0  0  0
 13 14  1  0  0  0
 14 15  2  0  0  0
 15 16  1  0  0  0
 16 17  2  0  0  0
 17 18  1  0  0  0
 18 19  1  0  0  0
 18 20  1  0  0  0
 18 21  1  0  0  0
  3 22  1  0  0  0
 22 23  2  0  0  0
 23 24  1  0  0  0
 24 25  2  0  0  0
 25 26  1  0  0  0
 26 27  2  0  0  0
 33 34  1  0  0  0
 34 35  2  0  0  0
 35 30  1  0  0  0
 11  1  1  0  0  0
 17 12  1  0  0  0
 27 22  1  0  0  0
 11  5  2  0  0  0
 28 29  1  0  0  0
M  END
> <minimizedAffinity>
-8.52169

> <CNNscore>
0.4080298543

> <CNNaffinity>
6.8880968094

> <CNN_VS>
2.8105490208

> <CNNaffinity_variance>
0.0600647330

$$$$
[H]c1nc(N2C([H])([H])C([H])([H])c3nc(-c4c([H])c([H])c([H])c([H])c4[H])nc(N([H])c4c([H])c([H])c(C(C([H])([H])[H])(C([H])([H])[H])C([H])([H])[H])c([H])c4[H])c3C([H])([H])C2([H])[H])c(C(F)(F)F)c([H])c1[H]


 39 43  0  0  0  0  0  0  0  0999 V2000
  154.2303  138.6418  183.7823 C   0  0  0  0  0  0  0  0  0  0  0  0
  153.1970  138.4404  182.9528 N   0  0  0  0  0  0  0  0  0  0  0  0
  152.7734  139.2774  182.0056 C   0  0  0  0  0  0  0  0  0  0  0  0
  153.4595  140.4241  181.8846 N   0  0  0  0  0  0  0  0  0  0  0  0
  154.5206  140.7423  182.6631 C   0  0  0  0  0  0  0  0  0  0  0  0
  155.0988  142.0809  182.2606 C   0  0  0  0  0  0  0  0  0  0  0  0
  156.6056  141.8756  182.1416 C   0  0  0  0  0  0  0  0  0  0  0  0
  157.1999  141.7809  183.4415 N   0  0  0  0  0  0  0  0  0  0  0  0
  156.5208  141.4055  184.6488 C   0  0  0  0  0  0  0  0  0  0  0  0
  156.0211  139.9853  184.6292 C   0  0  0  0  0  0  0  0  0  0  0  0
  154.9242  139.8464  183.6347 C   0  0  0  0  0  0  0  0  0  0  0  0
  158.5578  142.0934  183.5670 C   0  0  0  0  0  0  0  0  0  0  0  0
  159.2919  141.1810  184.2883 N   0  0  0  0  0  0  0  0  0  0  0  0
  160.5952  141.2999  184.4862 C   0  0  0  0  0  0  0  0  0  0  0  0
  161.3092  142.3652  183.9733 C   0  0  0  0  0  0  0  0  0  0  0  0
  160.5744  143.2859  183.2470 C   0  0  0  0  0  0  0  0  0  0  0  0
  159.2093  143.1649  183.0376 C   0  0  0  0  0  0  0  0  0  0  0  0
  158.4723  144.1939  182.2834 C   0  0  0  0  0  0  0  0  0  0  0  0
  157.3223  144.6272  182.9287 F   0  0  0  0  0  0  0  0  0  0  0  0
  159.3005  145.3471  182.2678 F   0  0  0  0  0  0  0  0  0  0  0  0
  158.2751  143.9028  180.9670 F   0  0  0  0  0  0  0  0  0  0  0  0
  151.6161  138.9791  181.1491 C   0  0  0  0  0  0  0  0  0  0  0  0
  150.7351  137.9749  181.4570 C   0  0  0  0  0  0  0  0  0  0  0  0
  149.6293  137.6764  180.6672 C   0  0  0  0  0  0  0  0  0  0  0  0
  149.4425  138.4509  179.5240 C   0  0  0  0  0  0  0  0  0  0  0  0
  150.3037  139.4658  179.1813 C   0  0  0  0  0  0  0  0  0  0  0  0
  151.4003  139.7210  180.0160 C   0  0  0  0  0  0  0  0  0  0  0  0
  154.6658  137.6970  184.7258 N   0  0  0  0  0  0  0  0  0  0  0  0
  155.0268  136.7716  184.3255 H   0  0  0  0  0  0  0  0  0  0  0  0
  154.7999  138.0111  188.9724 C   0  0  0  0  0  0  0  0  0  0  0  0
  153.7016  138.4559  188.2795 C   0  0  0  0  0  0  0  0  0  0  0  0
  153.6417  138.3694  186.8753 C   0  0  0  0  0  0  0  0  0  0  0  0
  154.6576  137.8447  186.1373 C   0  0  0  0  0  0  0  0  0  0  0  0
  155.7814  137.3916  186.8603 C   0  0  0  0  0  0  0  0  0  0  0  0
  155.8333  137.4794  188.2298 C   0  0  0  0  0  0  0  0  0  0  0  0
  156.2958  137.8252  190.9579 C   0  0  0  0  0  0  0  0  0  0  0  0
  154.8949  138.0881  190.4567 C   0  0  0  0  0  0  0  0  0  0  0  0
  154.4416  139.4946  190.8436 C   0  0  0  0  0  0  0  0  0  0  0  0
  153.9333  137.1136  191.0482 C   0  0  0  0  0  0  0  0  0  0  0  0
 36 37  1  0  0  0
 37 38  1  0  0  0
 37 39  1  0  0  0
 37 30  1  0  0  0
 30 31  2  0  0  0
 31 32  1  0  0  0
 32 33  2  0  0  0
 33 28  1  0  0  0
 28  1  1  0  0  0
  1  2  2  0  0  0
  2  3  1  0  0  0
  3  4  2  0  0  0
  4  5  1  0  0  0
  5  6  1  0  0  0
  6  7  1  0  0  0
  7  8  1  0  0  0
  8  9  1  0  0  0
  9 10  1  0  0  0
 10 11  1  0  0  0
  8 12  1  0  0  0
 12 13  2  0  0  0
 13 14  1  0  0  0
 14 15  2  0  0  0
 15 16  1  0  0  0
 16 17  2  0  0  0
 17 18  1  0  0  0
 18 19  1  0  0  0
 18 20  1  0  0  0
 18 21  1  0  0  0
  3 22  1  0  0  0
 22 23  2  0  0  0
 23 24  1  0  0  0
 24 25  2  0  0  0
 25 26  1  0  0  0
 26 27  2  0  0  0
 33 34  1  0  0  0
 34 35  2  0  0  0
 35 30  1  0  0  0
 11  1  1  0  0  0
 17 12  1  0  0  0
 27 22  1  0  0  0
 11  5  2  0  0  0
 28 29  1  0  0  0
M  END
> <minimizedAffinity>
-10.30913

> <CNNscore>
0.3519890010

> <CNNaffinity>
7.3936538696

> <CNN_VS>
2.6024849415

> <CNNaffinity_variance>
0.0808678269

$$$$
[H]c1nc(N2C([H])([H])C([H])([H])c3nc(-c4c([H])c([H])c([H])c([H])c4[H])nc(N([H])c4c([H])c([H])c(C(C([H])([H])[H])(C([H])([H])[H])C([H])([H])[H])c([H])c4[H])c3C([H])([H])C2([H])[H])c(C(F)(F)F)c([H])c1[H]


 39 43  0  0  0  0  0  0  0  0999 V2000
  153.6771  137.0114  184.9611 C   0  0  0  0  0  0  0  0  0  0  0  0
  154.4405  136.0023  185.4033 N   0  0  0  0  0  0  0  0  0  0  0  0
  154.2456  134.7052  185.1654 C   0  0  0  0  0  0  0  0  0  0  0  0
  153.1806  134.3998  184.4084 N   0  0  0  0  0  0  0  0  0  0  0  0
  152.3350  135.3292  183.9038 C   0  0  0  0  0  0  0  0  0  0  0  0
  151.2576  134.6757  183.0670 C   0  0  0  0  0  0  0  0  0  0  0  0
  151.1969  135.4619  181.7612 C   0  0  0  0  0  0  0  0  0  0  0  0
  150.5538  136.7248  181.9693 N   0  0  0  0  0  0  0  0  0  0  0  0
  150.4437  137.4134  183.2237 C   0  0  0  0  0  0  0  0  0  0  0  0
  151.7739  137.8509  183.7769 C   0  0  0  0  0  0  0  0  0  0  0  0
  152.5732  136.6625  184.1775 C   0  0  0  0  0  0  0  0  0  0  0  0
  149.9613  137.3495  180.8665 C   0  0  0  0  0  0  0  0  0  0  0  0
  148.7498  136.8188  180.4893 N   0  0  0  0  0  0  0  0  0  0  0  0
  148.0339  137.2995  179.4853 C   0  0  0  0  0  0  0  0  0  0  0  0
  148.4670  138.3801  178.7419 C   0  0  0  0  0  0  0  0  0  0  0  0
  149.6857  138.9171  179.1178 C   0  0  0  0  0  0  0  0  0  0  0  0
  150.4386  138.4165  180.1689 C   0  0  0  0  0  0  0  0  0  0  0  0
  151.7457  139.0082  180.5035 C   0  0  0  0  0  0  0  0  0  0  0  0
  152.7505  138.0634  180.6599 F   0  0  0  0  0  0  0  0  0  0  0  0
  152.1550  139.7442  179.3604 F   0  0  0  0  0  0  0  0  0  0  0  0
  151.7129  139.9316  181.5049 F   0  0  0  0  0  0  0  0  0  0  0  0
  155.1292  133.6622  185.7069 C   0  0  0  0  0  0  0  0  0  0  0  0
  154.9664  133.1716  186.9766 C   0  0  0  0  0  0  0  0  0  0  0  0
  155.7843  132.1810  187.5106 C   0  0  0  0  0  0  0  0  0  0  0  0
  156.8002  131.6920  186.6918 C   0  0  0  0  0  0  0  0  0  0  0  0
  156.9958  132.1584  185.4137 C   0  0  0  0  0  0  0  0  0  0  0  0
  156.1397  133.1569  184.9294 C   0  0  0  0  0  0  0  0  0  0  0  0
  153.9644  138.3655  185.1980 N   0  0  0  0  0  0  0  0  0  0  0  0
  153.2765  138.8828  185.8352 H   0  0  0  0  0  0  0  0  0  0  0  0
  157.1313  140.6023  183.4322 C   0  0  0  0  0  0  0  0  0  0  0  0
  157.3430  139.8992  184.5919 C   0  0  0  0  0  0  0  0  0  0  0  0
  156.3071  139.1613  185.1962 C   0  0  0  0  0  0  0  0  0  0  0  0
  155.0540  139.1047  184.6683 C   0  0  0  0  0  0  0  0  0  0  0  0
  154.8482  139.8320  183.4769 C   0  0  0  0  0  0  0  0  0  0  0  0
  155.8629  140.5499  182.8931 C   0  0  0  0  0  0  0  0  0  0  0  0
  157.9319  142.8781  182.8041 C   0  0  0  0  0  0  0  0  0  0  0  0
  158.2048  141.3925  182.7679 C   0  0  0  0  0  0  0  0  0  0  0  0
  159.4996  141.0665  183.5100 C   0  0  0  0  0  0  0  0  0  0  0  0
  158.3464  140.9180  181.3612 C   0  0  0  0  0  0  0  0  0  0  0  0
 36 37  1  0  0  0
 37 38  1  0  0  0
 37 39  1  0  0  0
 37 30  1  0  0  0
 30 31  2  0  0  0
 31 32  1  0  0  0
 32 33  2  0  0  0
 33 28  1  0  0  0
 28  1  1  0  0  0
  1  2  2  0  0  0
  2  3  1  0  0  0
  3  4  2  0  0  0
  4  5  1  0  0  0
  5  6  1  0  0  0
  6  7  1  0  0  0
  7  8  1  0  0  0
  8  9  1  0  0  0
  9 10  1  0  0  0
 10 11  1  0  0  0
  8 12  1  0  0  0
 12 13  2  0  0  0
 13 14  1  0  0  0
 14 15  2  0  0  0
 15 16  1  0  0  0
 16 17  2  0  0  0
 17 18  1  0  0  0
 18 19  1  0  0  0
 18 20  1  0  0  0
 18 21  1  0  0  0
  3 22  1  0  0  0
 22 23  2  0  0  0
 23 24  1  0  0  0
 24 25  2  0  0  0
 25 26  1  0  0  0
 26 27  2  0  0  0
 33 34  1  0  0  0
 34 35  2  0  0  0
 35 30  1  0  0  0
 11  1  1  0  0  0
 17 12  1  0  0  0
 27 22  1  0  0  0
 11  5  2  0  0  0
 28 29  1  0  0  0
M  END
> <minimizedAffinity>
-7.89648

> <CNNscore>
0.3089157343

> <CNNaffinity>
6.7586884499

> <CNN_VS>
2.0878651142

> <CNNaffinity_variance>
0.0778812021

$$$$
[H]c1nc(N2C([H])([H])C([H])([H])c3nc(-c4c([H])c([H])c([H])c([H])c4[H])nc(N([H])c4c([H])c([H])c(C(C([H])([H])[H])(C([H])([H])[H])C([H])([H])[H])c([H])c4[H])c3C([H])([H])C2([H])[H])c(C(F)(F)F)c([H])c1[H]


 39 43  0  0  0  0  0  0  0  0999 V2000
  154.0221  138.4750  185.0205 C   0  0  0  0  0  0  0  0  0  0  0  0
  154.4965  138.5962  186.2682 N   0  0  0  0  0  0  0  0  0  0  0  0
  154.6218  137.6145  187.1614 C   0  0  0  0  0  0  0  0  0  0  0  0
  154.2328  136.3964  186.7547 N   0  0  0  0  0  0  0  0  0  0  0  0
  153.7370  136.1472  185.5196 C   0  0  0  0  0  0  0  0  0  0  0  0
  153.4232  134.6767  185.3545 C   0  0  0  0  0  0  0  0  0  0  0  0
  154.0409  134.2560  184.0247 C   0  0  0  0  0  0  0  0  0  0  0  0
  153.2593  134.7540  182.9324 N   0  0  0  0  0  0  0  0  0  0  0  0
  152.3681  135.8778  182.9825 C   0  0  0  0  0  0  0  0  0  0  0  0
  153.0744  137.1815  183.2434 C   0  0  0  0  0  0  0  0  0  0  0  0
  153.6219  137.1949  184.6261 C   0  0  0  0  0  0  0  0  0  0  0  0
  153.3480  134.0889  181.7047 C   0  0  0  0  0  0  0  0  0  0  0  0
  154.4366  134.4388  180.9404 N   0  0  0  0  0  0  0  0  0  0  0  0
  154.6958  133.8926  179.7630 C   0  0  0  0  0  0  0  0  0  0  0  0
  153.8752  132.9231  179.2203 C   0  0  0  0  0  0  0  0  0  0  0  0
  152.7784  132.5681  179.9859 C   0  0  0  0  0  0  0  0  0  0  0  0
  152.5035  133.1379  181.2196 C   0  0  0  0  0  0  0  0  0  0  0  0
  151.3022  132.7444  181.9763 C   0  0  0  0  0  0  0  0  0  0  0  0
  150.3251  133.7299  182.0038 F   0  0  0  0  0  0  0  0  0  0  0  0
  150.6943  131.6926  181.2413 F   0  0  0  0  0  0  0  0  0  0  0  0
  151.5532  132.1993  183.1996 F   0  0  0  0  0  0  0  0  0  0  0  0
  155.1398  137.8435  188.5183 C   0  0  0  0  0  0  0  0  0  0  0  0
  156.4073  137.4632  188.8764 C   0  0  0  0  0  0  0  0  0  0  0  0
  156.9235  137.6737  190.1510 C   0  0  0  0  0  0  0  0  0  0  0  0
  156.0888  138.2992  191.0748 C   0  0  0  0  0  0  0  0  0  0  0  0
  154.8120  138.6948  190.7542 C   0  0  0  0  0  0  0  0  0  0  0  0
  154.3465  138.4569  189.4538 C   0  0  0  0  0  0  0  0  0  0  0  0
  153.9657  139.5371  184.1035 N   0  0  0  0  0  0  0  0  0  0  0  0
  152.9848  139.8943  183.8646 H   0  0  0  0  0  0  0  0  0  0  0  0
  157.1415  141.4939  182.0454 C   0  0  0  0  0  0  0  0  0  0  0  0
  157.4108  140.4782  182.9286 C   0  0  0  0  0  0  0  0  0  0  0  0
  156.3761  139.8251  183.6255 C   0  0  0  0  0  0  0  0  0  0  0  0
  155.0675  140.1608  183.4621 C   0  0  0  0  0  0  0  0  0  0  0  0
  154.8031  141.2066  182.5524 C   0  0  0  0  0  0  0  0  0  0  0  0
  155.8171  141.8395  181.8764 C   0  0  0  0  0  0  0  0  0  0  0  0
  158.1781  141.8960  179.8142 C   0  0  0  0  0  0  0  0  0  0  0  0
  158.2121  142.2049  181.2927 C   0  0  0  0  0  0  0  0  0  0  0  0
  157.9889  143.6965  181.5347 C   0  0  0  0  0  0  0  0  0  0  0  0
  159.5334  141.8345  181.8770 C   0  0  0  0  0  0  0  0  0  0  0  0
 36 37  1  0  0  0
 37 38  1  0  0  0
 37 39  1  0  0  0
 37 30  1  0  0  0
 30 31  2  0  0  0
 31 32  1  0  0  0
 32 33  2  0  0  0
 33 28  1  0  0  0
 28  1  1  0  0  0
  1  2  2  0  0  0
  2  3  1  0  0  0
  3  4  2  0  0  0
  4  5  1  0  0  0
  5  6  1  0  0  0
  6  7  1  0  0  0
  7  8  1  0  0  0
  8  9  1  0  0  0
  9 10  1  0  0  0
 10 11  1  0  0  0
  8 12  1  0  0  0
 12 13  2  0  0  0
 13 14  1  0  0  0
 14 15  2  0  0  0
 15 16  1  0  0  0
 16 17  2  0  0  0
 17 18  1  0  0  0
 18 19  1  0  0  0
 18 20  1  0  0  0
 18 21  1  0  0  0
  3 22  1  0  0  0
 22 23  2  0  0  0
 23 24  1  0  0  0
 24 25  2  0  0  0
 25 26  1  0  0  0
 26 27  2  0  0  0
 33 34  1  0  0  0
 34 35  2  0  0  0
 35 30  1  0  0  0
 11  1  1  0  0  0
 17 12  1  0  0  0
 27 22  1  0  0  0
 11  5  2  0  0  0
 28 29  1  0  0  0
M  END
> <minimizedAffinity>
-8.77109

> <CNNscore>
0.3086147606

> <CNNaffinity>
6.7805643082

> <CNN_VS>
2.0925822258

> <CNNaffinity_variance>
0.0622036271

$$$$
[H]c1nc(N2C([H])([H])C([H])([H])c3nc(-c4c([H])c([H])c([H])c([H])c4[H])nc(N([H])c4c([H])c([H])c(C(C([H])([H])[H])(C([H])([H])[H])C([H])([H])[H])c([H])c4[H])c3C([H])([H])C2([H])[H])c(C(F)(F)F)c([H])c1[H]


 39 43  0  0  0  0  0  0  0  0999 V2000
  153.4830  138.5910  183.5606 C   0  0  0  0  0  0  0  0  0  0  0  0
  152.3986  138.4334  182.7888 N   0  0  0  0  0  0  0  0  0  0  0  0
  151.9145  139.3219  181.9208 C   0  0  0  0  0  0  0  0  0  0  0  0
  152.5907  140.4767  181.8227 N   0  0  0  0  0  0  0  0  0  0  0  0
  153.6995  140.7539  182.5487 C   0  0  0  0  0  0  0  0  0  0  0  0
  154.2498  142.1160  182.1882 C   0  0  0  0  0  0  0  0  0  0  0  0
  155.7460  141.9245  181.9612 C   0  0  0  0  0  0  0  0  0  0  0  0
  156.4226  141.7573  183.2126 N   0  0  0  0  0  0  0  0  0  0  0  0
  155.8227  141.3098  184.4372 C   0  0  0  0  0  0  0  0  0  0  0  0
  155.3237  139.8911  184.3674 C   0  0  0  0  0  0  0  0  0  0  0  0
  154.1652  139.8051  183.4389 C   0  0  0  0  0  0  0  0  0  0  0  0
  157.7856  142.0679  183.2687 C   0  0  0  0  0  0  0  0  0  0  0  0
  158.0840  143.3867  183.0163 N   0  0  0  0  0  0  0  0  0  0  0  0
  159.3171  143.8660  183.0526 C   0  0  0  0  0  0  0  0  0  0  0  0
  160.3975  143.0583  183.3496 C   0  0  0  0  0  0  0  0  0  0  0  0
  160.1019  141.7305  183.6040 C   0  0  0  0  0  0  0  0  0  0  0  0
  158.8116  141.2245  183.5669 C   0  0  0  0  0  0  0  0  0  0  0  0
  158.5597  139.7941  183.8141 C   0  0  0  0  0  0  0  0  0  0  0  0
  157.9723  139.1472  182.7356 F   0  0  0  0  0  0  0  0  0  0  0  0
  159.8341  139.1769  183.9195 F   0  0  0  0  0  0  0  0  0  0  0  0
  157.9532  139.5201  185.0031 F   0  0  0  0  0  0  0  0  0  0  0  0
  150.7047  139.0687  181.1244 C   0  0  0  0  0  0  0  0  0  0  0  0
  149.4958  138.8111  181.7175 C   0  0  0  0  0  0  0  0  0  0  0  0
  148.3355  138.5745  180.9875 C   0  0  0  0  0  0  0  0  0  0  0  0
  148.4453  138.6082  179.5988 C   0  0  0  0  0  0  0  0  0  0  0  0
  149.6393  138.8625  178.9671 C   0  0  0  0  0  0  0  0  0  0  0  0
  150.7751  139.0943  179.7550 C   0  0  0  0  0  0  0  0  0  0  0  0
  153.9787  137.5951  184.4178 N   0  0  0  0  0  0  0  0  0  0  0  0
  154.3061  136.6928  183.9430 H   0  0  0  0  0  0  0  0  0  0  0  0
  154.3760  137.6402  188.6594 C   0  0  0  0  0  0  0  0  0  0  0  0
  153.3903  138.3746  188.0484 C   0  0  0  0  0  0  0  0  0  0  0  0
  153.2481  138.3802  186.6475 C   0  0  0  0  0  0  0  0  0  0  0  0
  154.0703  137.6649  185.8324 C   0  0  0  0  0  0  0  0  0  0  0  0
  155.0801  136.9148  186.4717 C   0  0  0  0  0  0  0  0  0  0  0  0
  155.2132  136.9141  187.8385 C   0  0  0  0  0  0  0  0  0  0  0  0
  154.7799  138.9899  190.7160 C   0  0  0  0  0  0  0  0  0  0  0  0
  154.5535  137.6126  190.1379 C   0  0  0  0  0  0  0  0  0  0  0  0
  153.2809  136.9922  190.7115 C   0  0  0  0  0  0  0  0  0  0  0  0
  155.6954  136.7107  190.4651 C   0  0  0  0  0  0  0  0  0  0  0  0
 36 37  1  0  0  0
 37 38  1  0  0  0
 37 39  1  0  0  0
 37 30  1  0  0  0
 30 31  2  0  0  0
 31 32  1  0  0  0
 32 33  2  0  0  0
 33 28  1  0  0  0
 28  1  1  0  0  0
  1  2  2  0  0  0
  2  3  1  0  0  0
  3  4  2  0  0  0
  4  5  1  0  0  0
  5  6  1  0  0  0
  6  7  1  0  0  0
  7  8  1  0  0  0
  8  9  1  0  0  0
  9 10  1  0  0  0
 10 11  1  0  0  0
  8 12  1  0  0  0
 12 13  2  0  0  0
 13 14  1  0  0  0
 14 15  2  0  0  0
 15 16  1  0  0  0
 16 17  2  0  0  0
 17 18  1  0  0  0
 18 19  1  0  0  0
 18 20  1  0  0  0
 18 21  1  0  0  0
  3 22  1  0  0  0
 22 23  2  0  0  0
 23 24  1  0  0  0
 24 25  2  0  0  0
 25 26  1  0  0  0
 26 27  2  0  0  0
 33 34  1  0  0  0
 34 35  2  0  0  0
 35 30  1  0  0  0
 11  1  1  0  0  0
 17 12  1  0  0  0
 27 22  1  0  0  0
 11  5  2  0  0  0
 28 29  1  0  0  0
M  END
> <minimizedAffinity>
-10.40917

> <CNNscore>
0.3013078570

> <CNNaffinity>
7.1447958946

> <CNN_VS>
2.1527831554

> <CNNaffinity_variance>
0.2493361980

$$$$
[H]c1nc(N2C([H])([H])C([H])([H])c3nc(-c4c([H])c([H])c([H])c([H])c4[H])nc(N([H])c4c([H])c([H])c(C(C([H])([H])[H])(C([H])([H])[H])C([H])([H])[H])c([H])c4[H])c3C([H])([H])C2([H])[H])c(C(F)(F)F)c([H])c1[H]


 39 43  0  0  0  0  0  0  0  0999 V2000
  153.7344  139.6328  183.6817 C   0  0  0  0  0  0  0  0  0  0  0  0
  152.7807  139.3058  182.7985 N   0  0  0  0  0  0  0  0  0  0  0  0
  152.1709  138.1245  182.6999 C   0  0  0  0  0  0  0  0  0  0  0  0
  152.5605  137.1867  183.5770 N   0  0  0  0  0  0  0  0  0  0  0  0
  153.5136  137.3956  184.5157 C   0  0  0  0  0  0  0  0  0  0  0  0
  153.7028  136.1627  185.3714 C   0  0  0  0  0  0  0  0  0  0  0  0
  153.6834  136.6421  186.8194 C   0  0  0  0  0  0  0  0  0  0  0  0
  154.9126  137.3032  187.1419 N   0  0  0  0  0  0  0  0  0  0  0  0
  155.8115  137.9082  186.2010 C   0  0  0  0  0  0  0  0  0  0  0  0
  155.2115  139.0890  185.4850 C   0  0  0  0  0  0  0  0  0  0  0  0
  154.1218  138.6347  184.5807 C   0  0  0  0  0  0  0  0  0  0  0  0
  155.2943  137.3600  188.4868 C   0  0  0  0  0  0  0  0  0  0  0  0
  154.7831  138.4303  189.1831 N   0  0  0  0  0  0  0  0  0  0  0  0
  155.0161  138.6297  190.4706 C   0  0  0  0  0  0  0  0  0  0  0  0
  155.8005  137.7621  191.2054 C   0  0  0  0  0  0  0  0  0  0  0  0
  156.3172  136.6839  190.5086 C   0  0  0  0  0  0  0  0  0  0  0  0
  156.0754  136.4715  189.1601 C   0  0  0  0  0  0  0  0  0  0  0  0
  156.6792  135.3233  188.4618 C   0  0  0  0  0  0  0  0  0  0  0  0
  157.6347  135.6927  187.5252 F   0  0  0  0  0  0  0  0  0  0  0  0
  157.4260  134.6110  189.4370 F   0  0  0  0  0  0  0  0  0  0  0  0
  155.7850  134.4102  187.9890 F   0  0  0  0  0  0  0  0  0  0  0  0
  151.1427  137.8495  181.6855 C   0  0  0  0  0  0  0  0  0  0  0  0
  150.4656  136.6578  181.6544 C   0  0  0  0  0  0  0  0  0  0  0  0
  149.4844  136.3750  180.7097 C   0  0  0  0  0  0  0  0  0  0  0  0
  149.2059  137.3675  179.7721 C   0  0  0  0  0  0  0  0  0  0  0  0
  149.8633  138.5746  179.7701 C   0  0  0  0  0  0  0  0  0  0  0  0
  150.8418  138.8033  180.7471 C   0  0  0  0  0  0  0  0  0  0  0  0
  154.3020  140.9140  183.7746 N   0  0  0  0  0  0  0  0  0  0  0  0
  153.7874  141.6062  184.4093 H   0  0  0  0  0  0  0  0  0  0  0  0
  157.7068  142.4816  181.7498 C   0  0  0  0  0  0  0  0  0  0  0  0
  157.5466  141.1253  181.8871 C   0  0  0  0  0  0  0  0  0  0  0  0
  156.4332  140.5876  182.5608 C   0  0  0  0  0  0  0  0  0  0  0  0
  155.4656  141.3747  183.1051 C   0  0  0  0  0  0  0  0  0  0  0  0
  155.6414  142.7670  182.9583 C   0  0  0  0  0  0  0  0  0  0  0  0
  156.7301  143.2846  182.3004 C   0  0  0  0  0  0  0  0  0  0  0  0
  160.1805  142.4411  181.4436 C   0  0  0  0  0  0  0  0  0  0  0  0
  158.8724  143.0824  181.0434 C   0  0  0  0  0  0  0  0  0  0  0  0
  158.6151  142.8903  179.5500 C   0  0  0  0  0  0  0  0  0  0  0  0
  158.8974  144.5471  181.3233 C   0  0  0  0  0  0  0  0  0  0  0  0
 36 37  1  0  0  0
 37 38  1  0  0  0
 37 39  1  0  0  0
 37 30  1  0  0  0
 30 31  2  0  0  0
 31 32  1  0  0  0
 32 33  2  0  0  0
 33 28  1  0  0  0
 28  1  1  0  0  0
  1  2  2  0  0  0
  2  3  1  0  0  0
  3  4  2  0  0  0
  4  5  1  0  0  0
  5  6  1  0  0  0
  6  7  1  0  0  0
  7  8  1  0  0  0
  8  9  1  0  0  0
  9 10  1  0  0  0
 10 11  1  0  0  0
  8 12  1  0  0  0
 12 13  2  0  0  0
 13 14  1  0  0  0
 14 15  2  0  0  0
 15 16  1  0  0  0
 16 17  2  0  0  0
 17 18  1  0  0  0
 18 19  1  0  0  0
 18 20  1  0  0  0
 18 21  1  0  0  0
  3 22  1  0  0  0
 22 23  2  0  0  0
 23 24  1  0  0  0
 24 25  2  0  0  0
 25 26  1  0  0  0
 26 27  2  0  0  0
 33 34  1  0  0  0
 34 35  2  0  0  0
 35 30  1  0  0  0
 11  1  1  0  0  0
 17 12  1  0  0  0
 27 22  1  0  0  0
 11  5  2  0  0  0
 28 29  1  0  0  0
M  END
> <minimizedAffinity>
-8.86480

> <CNNscore>
0.2913827300

> <CNNaffinity>
6.9313750267

> <CNN_VS>
2.0196828842

> <CNNaffinity_variance>
0.1430120170

$$$$
[H]c1nc(N2C([H])([H])C([H])([H])c3nc(N4C([H])([H])C([H])([H])OC([H])([H])C4([H])[H])nc(N([H])c4c([H])nc(C(F)(F)F)c([H])c4[H])c3C([H])([H])C2([H])[H])c(C(F)(F)F)c([H])c1[H]


 39 43  0  0  0  0  0  0  0  0999 V2000
  154.7484  139.2816  184.2763 C   0  0  0  0  0  0  0  0  0  0  0  0
  153.6080  139.0766  183.5914 N   0  0  0  0  0  0  0  0  0  0  0  0
  153.3437  139.6344  182.3967 C   0  0  0  0  0  0  0  0  0  0  0  0
  154.2818  140.4547  181.8301 N   0  0  0  0  0  0  0  0  0  0  0  0
  155.4594  140.7383  182.4179 C   0  0  0  0  0  0  0  0  0  0  0  0
  156.3853  141.5493  181.5588 C   0  0  0  0  0  0  0  0  0  0  0  0
  157.8229  141.0844  181.7633 C   0  0  0  0  0  0  0  0  0  0  0  0
  158.2479  141.3519  183.1617 N   0  0  0  0  0  0  0  0  0  0  0  0
  158.0719  140.3970  184.2381 C   0  0  0  0  0  0  0  0  0  0  0  0
  156.6438  140.5537  184.6574 C   0  0  0  0  0  0  0  0  0  0  0  0
  155.6753  140.1531  183.6467 C   0  0  0  0  0  0  0  0  0  0  0  0
  158.7909  142.6164  183.3033 C   0  0  0  0  0  0  0  0  0  0  0  0
  158.1863  143.6202  182.5915 N   0  0  0  0  0  0  0  0  0  0  0  0
  158.6465  144.8862  182.5619 C   0  0  0  0  0  0  0  0  0  0  0  0
  159.7741  145.2514  183.2620 C   0  0  0  0  0  0  0  0  0  0  0  0
  160.3954  144.2530  183.9815 C   0  0  0  0  0  0  0  0  0  0  0  0
  159.9090  142.9404  184.0062 C   0  0  0  0  0  0  0  0  0  0  0  0
  160.6119  141.9624  184.8432 C   0  0  0  0  0  0  0  0  0  0  0  0
  161.1581  140.8890  184.1951 F   0  0  0  0  0  0  0  0  0  0  0  0
  159.9853  141.6798  186.0398 F   0  0  0  0  0  0  0  0  0  0  0  0
  161.8145  142.6305  185.3119 F   0  0  0  0  0  0  0  0  0  0  0  0
  152.1173  139.4774  181.6658 N   0  0  0  0  0  0  0  0  0  0  0  0
  152.0672  139.9753  180.2967 C   0  0  0  0  0  0  0  0  0  0  0  0
  150.6631  139.9232  179.7817 C   0  0  0  0  0  0  0  0  0  0  0  0
  150.2416  138.5980  179.9475 O   0  0  0  0  0  0  0  0  0  0  0  0
  149.9068  138.4561  181.2930 C   0  0  0  0  0  0  0  0  0  0  0  0
  150.9787  138.8621  182.2432 C   0  0  0  0  0  0  0  0  0  0  0  0
  155.2767  138.5958  185.3646 N   0  0  0  0  0  0  0  0  0  0  0  0
  156.0341  137.8469  185.0102 H   0  0  0  0  0  0  0  0  0  0  0  0
  155.0407  138.1485  189.5189 C   0  0  0  0  0  0  0  0  0  0  0  0
  153.8837  138.3843  188.8318 C   0  0  0  0  0  0  0  0  0  0  0  0
  153.9011  138.5332  187.4467 C   0  0  0  0  0  0  0  0  0  0  0  0
  155.0505  138.4558  186.7172 C   0  0  0  0  0  0  0  0  0  0  0  0
  156.2013  138.2090  187.5153 C   0  0  0  0  0  0  0  0  0  0  0  0
  156.1831  138.0637  188.8288 N   0  0  0  0  0  0  0  0  0  0  0  0
  156.3444  137.5253  191.3616 F   0  0  0  0  0  0  0  0  0  0  0  0
  155.0843  137.9455  191.0213 C   0  0  0  0  0  0  0  0  0  0  0  0
  154.9299  139.2250  191.5515 F   0  0  0  0  0  0  0  0  0  0  0  0
  154.0858  137.1257  191.4729 F   0  0  0  0  0  0  0  0  0  0  0  0
 36 37  1  0  0  0
 37 38  1  0  0  0
 37 39  1  0  0  0
 37 30  1  0  0  0
 30 31  2  0  0  0
 31 32  1  0  0  0
 32 33  2  0  0  0
 33 28  1  0  0  0
 28  1  1  0  0  0
  1  2  2  0  0  0
  2  3  1  0  0  0
  3  4  2  0  0  0
  4  5  1  0  0  0
  5  6  1  0  0  0
  6  7  1  0  0  0
  7  8  1  0  0  0
  8  9  1  0  0  0
  9 10  1  0  0  0
 10 11  1  0  0  0
  8 12  1  0  0  0
 12 13  2  0  0  0
 13 14  1  0  0  0
 14 15  2  0  0  0
 15 16  1  0  0  0
 16 17  2  0  0  0
 17 18  1  0  0  0
 18 19  1  0  0  0
 18 20  1  0  0  0
 18 21  1  0  0  0
  3 22  1  0  0  0
 22 23  1  0  0  0
 23 24  1  0  0  0
 24 25  1  0  0  0
 25 26  1  0  0  0
 26 27  1  0  0  0
 33 34  1  0  0  0
 34 35  2  0  0  0
 35 30  1  0  0  0
 11  1  1  0  0  0
 17 12  1  0  0  0
 27 22  1  0  0  0
 11  5  2  0  0  0
 28 29  1  0  0  0
M  END
> <minimizedAffinity>
-10.66815

> <CNNscore>
0.5703952312

> <CNNaffinity>
7.6938772202

> <CNN_VS>
4.3885507584

> <CNNaffinity_variance>
0.0089390343

$$$$
[H]c1nc(N2C([H])([H])C([H])([H])c3nc(N4C([H])([H])C([H])([H])OC([H])([H])C4([H])[H])nc(N([H])c4c([H])nc(C(F)(F)F)c([H])c4[H])c3C([H])([H])C2([H])[H])c(C(F)(F)F)c([H])c1[H]


 39 43  0  0  0  0  0  0  0  0999 V2000
  155.1750  139.1651  184.4813 C   0  0  0  0  0  0  0  0  0  0  0  0
  154.0129  138.9237  183.8465 N   0  0  0  0  0  0  0  0  0  0  0  0
  153.6704  139.4882  182.6751 C   0  0  0  0  0  0  0  0  0  0  0  0
  154.5469  140.3550  182.0798 N   0  0  0  0  0  0  0  0  0  0  0  0
  155.7384  140.6779  182.6171 C   0  0  0  0  0  0  0  0  0  0  0  0
  156.5893  141.5394  181.7301 C   0  0  0  0  0  0  0  0  0  0  0  0
  158.0526  141.1311  181.8597 C   0  0  0  0  0  0  0  0  0  0  0  0
  158.5316  141.3946  183.2413 N   0  0  0  0  0  0  0  0  0  0  0  0
  158.4451  140.4171  184.3082 C   0  0  0  0  0  0  0  0  0  0  0  0
  157.0332  140.5083  184.7958 C   0  0  0  0  0  0  0  0  0  0  0  0
  156.0353  140.0836  183.8244 C   0  0  0  0  0  0  0  0  0  0  0  0
  159.0290  142.6781  183.3792 C   0  0  0  0  0  0  0  0  0  0  0  0
  158.4109  143.6520  182.6380 N   0  0  0  0  0  0  0  0  0  0  0  0
  158.8301  144.9320  182.6026 C   0  0  0  0  0  0  0  0  0  0  0  0
  159.9263  145.3435  183.3265 C   0  0  0  0  0  0  0  0  0  0  0  0
  160.5607  144.3757  184.0758 C   0  0  0  0  0  0  0  0  0  0  0  0
  160.1170  143.0481  184.1063 C   0  0  0  0  0  0  0  0  0  0  0  0
  160.8291  142.1050  184.9749 C   0  0  0  0  0  0  0  0  0  0  0  0
  161.4691  141.0692  184.3517 F   0  0  0  0  0  0  0  0  0  0  0  0
  160.1572  141.7782  186.1351 F   0  0  0  0  0  0  0  0  0  0  0  0
  161.9654  142.8364  185.5101 F   0  0  0  0  0  0  0  0  0  0  0  0
  152.4184  139.2920  181.9992 N   0  0  0  0  0  0  0  0  0  0  0  0
  151.4528  138.3784  182.5974 C   0  0  0  0  0  0  0  0  0  0  0  0
  150.3190  138.1368  181.6511 C   0  0  0  0  0  0  0  0  0  0  0  0
  149.8154  139.4018  181.3233 O   0  0  0  0  0  0  0  0  0  0  0  0
  150.6837  139.9379  180.3739 C   0  0  0  0  0  0  0  0  0  0  0  0
  152.1145  139.9560  180.7847 C   0  0  0  0  0  0  0  0  0  0  0  0
  155.7812  138.4852  185.5320 N   0  0  0  0  0  0  0  0  0  0  0  0
  156.5864  137.8117  185.1342 H   0  0  0  0  0  0  0  0  0  0  0  0
  154.7820  137.8876  189.5518 C   0  0  0  0  0  0  0  0  0  0  0  0
  156.0970  137.7871  189.1953 C   0  0  0  0  0  0  0  0  0  0  0  0
  156.4887  137.9843  187.8730 C   0  0  0  0  0  0  0  0  0  0  0  0
  155.5989  138.2798  186.8829 C   0  0  0  0  0  0  0  0  0  0  0  0
  154.2571  138.3635  187.3465 C   0  0  0  0  0  0  0  0  0  0  0  0
  153.8871  138.1804  188.6020 N   0  0  0  0  0  0  0  0  0  0  0  0
  153.0214  137.2112  190.9397 F   0  0  0  0  0  0  0  0  0  0  0  0
  154.2958  137.7160  190.9782 C   0  0  0  0  0  0  0  0  0  0  0  0
  155.1092  136.7154  191.5067 F   0  0  0  0  0  0  0  0  0  0  0  0
  154.4165  138.8604  191.7188 F   0  0  0  0  0  0  0  0  0  0  0  0
 36 37  1  0  0  0
 37 38  1  0  0  0
 37 39  1  0  0  0
 37 30  1  0  0  0
 30 31  2  0  0  0
 31 32  1  0  0  0
 32 33  2  0  0  0
 33 28  1  0  0  0
 28  1  1  0  0  0
  1  2  2  0  0  0
  2  3  1  0  0  0
  3  4  2  0  0  0
  4  5  1  0  0  0
  5  6  1  0  0  0
  6  7  1  0  0  0
  7  8  1  0  0  0
  8  9  1  0  0  0
  9 10  1  0  0  0
 10 11  1  0  0  0
  8 12  1  0  0  0
 12 13  2  0  0  0
 13 14  1  0  0  0
 14 15  2  0  0  0
 15 16  1  0  0  0
 16 17  2  0  0  0
 17 18  1  0  0  0
 18 19  1  0  0  0
 18 20  1  0  0  0
 18 21  1  0  0  0
  3 22  1  0  0  0
 22 23  1  0  0  0
 23 24  1  0  0  0
 24 25  1  0  0  0
 25 26  1  0  0  0
 26 27  1  0  0  0
 33 34  1  0  0  0
 34 35  2  0  0  0
 35 30  1  0  0  0
 11  1  1  0  0  0
 17 12  1  0  0  0
 27 22  1  0  0  0
 11  5  2  0  0  0
 28 29  1  0  0  0
M  END
> <minimizedAffinity>
-10.32257

> <CNNscore>
0.5018392801

> <CNNaffinity>
7.6249670982

> <CNN_VS>
3.8265080452

> <CNNaffinity_variance>
0.0042477585

$$$$
[H]c1nc(N2C([H])([H])C([H])([H])c3nc(N4C([H])([H])C([H])([H])OC([H])([H])C4([H])[H])nc(N([H])c4c([H])nc(C(F)(F)F)c([H])c4[H])c3C([H])([H])C2([H])[H])c(C(F)(F)F)c([H])c1[H]


 39 43  0  0  0  0  0  0  0  0999 V2000
  156.1449  139.1640  185.3723 C   0  0  0  0  0  0  0  0  0  0  0  0
  155.1920  138.2439  185.6113 N   0  0  0  0  0  0  0  0  0  0  0  0
  154.0862  138.1013  184.8595 C   0  0  0  0  0  0  0  0  0  0  0  0
  153.9097  138.9282  183.7830 N   0  0  0  0  0  0  0  0  0  0  0  0
  154.7904  139.8881  183.4430 C   0  0  0  0  0  0  0  0  0  0  0  0
  154.4610  140.5835  182.1542 C   0  0  0  0  0  0  0  0  0  0  0  0
  155.7428  140.8870  181.3864 C   0  0  0  0  0  0  0  0  0  0  0  0
  156.5757  141.8504  182.1517 N   0  0  0  0  0  0  0  0  0  0  0  0
  157.5735  141.4388  183.1194 C   0  0  0  0  0  0  0  0  0  0  0  0
  156.7979  141.1423  184.3645 C   0  0  0  0  0  0  0  0  0  0  0  0
  155.8992  140.0022  184.2533 C   0  0  0  0  0  0  0  0  0  0  0  0
  156.2570  143.1623  181.8495 C   0  0  0  0  0  0  0  0  0  0  0  0
  157.2119  143.8797  181.1762 N   0  0  0  0  0  0  0  0  0  0  0  0
  157.0831  145.1883  180.8824 C   0  0  0  0  0  0  0  0  0  0  0  0
  155.9594  145.8940  181.2486 C   0  0  0  0  0  0  0  0  0  0  0  0
  154.9902  145.1876  181.9285 C   0  0  0  0  0  0  0  0  0  0  0  0
  155.1332  143.8276  182.2286 C   0  0  0  0  0  0  0  0  0  0  0  0
  154.0232  143.1535  182.9102 C   0  0  0  0  0  0  0  0  0  0  0  0
  154.2697  142.7093  184.1801 F   0  0  0  0  0  0  0  0  0  0  0  0
  153.2982  142.2949  182.1092 F   0  0  0  0  0  0  0  0  0  0  0  0
  153.0341  144.1847  183.1764 F   0  0  0  0  0  0  0  0  0  0  0  0
  153.0274  137.1658  185.1181 N   0  0  0  0  0  0  0  0  0  0  0  0
  152.4081  136.5000  183.9789 C   0  0  0  0  0  0  0  0  0  0  0  0
  151.1964  135.7421  184.4227 C   0  0  0  0  0  0  0  0  0  0  0  0
  151.6297  134.8890  185.4454 O   0  0  0  0  0  0  0  0  0  0  0  0
  151.7378  135.6726  186.5930 C   0  0  0  0  0  0  0  0  0  0  0  0
  152.5831  136.8879  186.4348 C   0  0  0  0  0  0  0  0  0  0  0  0
  157.4367  139.2691  185.8762 N   0  0  0  0  0  0  0  0  0  0  0  0
  157.6324  138.4312  186.5973 H   0  0  0  0  0  0  0  0  0  0  0  0
  160.7631  141.7769  185.4755 C   0  0  0  0  0  0  0  0  0  0  0  0
  159.8809  142.0369  186.4857 C   0  0  0  0  0  0  0  0  0  0  0  0
  158.7603  141.2304  186.6717 C   0  0  0  0  0  0  0  0  0  0  0  0
  158.4877  140.1612  185.8706 C   0  0  0  0  0  0  0  0  0  0  0  0
  159.4582  139.9685  184.8492 C   0  0  0  0  0  0  0  0  0  0  0  0
  160.5231  140.7318  184.6762 N   0  0  0  0  0  0  0  0  0  0  0  0
  162.7369  142.6251  186.4071 F   0  0  0  0  0  0  0  0  0  0  0  0
  162.0172  142.5968  185.2403 C   0  0  0  0  0  0  0  0  0  0  0  0
  162.7584  141.8481  184.3282 F   0  0  0  0  0  0  0  0  0  0  0  0
  161.7493  143.8357  184.7243 F   0  0  0  0  0  0  0  0  0  0  0  0
 36 37  1  0  0  0
 37 38  1  0  0  0
 37 39  1  0  0  0
 37 30  1  0  0  0
 30 31  2  0  0  0
 31 32  1  0  0  0
 32 33  2  0  0  0
 33 28  1  0  0  0
 28  1  1  0  0  0
  1  2  2  0  0  0
  2  3  1  0  0  0
  3  4  2  0  0  0
  4  5  1  0  0  0
  5  6  1  0  0  0
  6  7  1  0  0  0
  7  8  1  0  0  0
  8  9  1  0  0  0
  9 10  1  0  0  0
 10 11  1  0  0  0
  8 12  1  0  0  0
 12 13  2  0  0  0
 13 14  1  0  0  0
 14 15  2  0  0  0
 15 16  1  0  0  0
 16 17  2  0  0  0
 17 18  1  0  0  0
 18 19  1  0  0  0
 18 20  1  0  0  0
 18 21  1  0  0  0
  3 22  1  0  0  0
 22 23  1  0  0  0
 23 24  1  0  0  0
 24 25  1  0  0  0
 25 26  1  0  0  0
 26 27  1  0  0  0
 33 34  1  0  0  0
 34 35  2  0  0  0
 35 30  1  0  0  0
 11  1  1  0  0  0
 17 12  1  0  0  0
 27 22  1  0  0  0
 11  5  2  0  0  0
 28 29  1  0  0  0
M  END
> <minimizedAffinity>
0.40949

> <CNNscore>
0.4265239537

> <CNNaffinity>
7.3438882828

> <CNN_VS>
3.1323442459

> <CNNaffinity_variance>
0.2740888596

$$$$
[H]c1nc(N2C([H])([H])C([H])([H])c3nc(N4C([H])([H])C([H])([H])OC([H])([H])C4([H])[H])nc(N([H])c4c([H])nc(C(F)(F)F)c([H])c4[H])c3C([H])([H])C2([H])[H])c(C(F)(F)F)c([H])c1[H]


 39 43  0  0  0  0  0  0  0  0999 V2000
  154.2085  139.4663  183.5751 C   0  0  0  0  0  0  0  0  0  0  0  0
  153.3747  139.4982  182.5190 N   0  0  0  0  0  0  0  0  0  0  0  0
  152.3022  138.6974  182.3896 C   0  0  0  0  0  0  0  0  0  0  0  0
  152.0272  137.7980  183.3843 N   0  0  0  0  0  0  0  0  0  0  0  0
  152.7872  137.6698  184.4883 C   0  0  0  0  0  0  0  0  0  0  0  0
  152.2248  136.7181  185.5036 C   0  0  0  0  0  0  0  0  0  0  0  0
  152.4837  137.2475  186.9098 C   0  0  0  0  0  0  0  0  0  0  0  0
  153.9452  137.2875  187.1749 N   0  0  0  0  0  0  0  0  0  0  0  0
  154.7710  138.4420  186.8805 C   0  0  0  0  0  0  0  0  0  0  0  0
  155.0543  138.3445  185.4142 C   0  0  0  0  0  0  0  0  0  0  0  0
  153.8817  138.5034  184.5657 C   0  0  0  0  0  0  0  0  0  0  0  0
  154.4081  136.0929  187.6970 C   0  0  0  0  0  0  0  0  0  0  0  0
  154.7599  135.1286  186.7880 N   0  0  0  0  0  0  0  0  0  0  0  0
  155.1509  133.8882  187.1401 C   0  0  0  0  0  0  0  0  0  0  0  0
  155.2224  133.5116  188.4623 C   0  0  0  0  0  0  0  0  0  0  0  0
  154.8698  134.4693  189.3892 C   0  0  0  0  0  0  0  0  0  0  0  0
  154.4652  135.7558  189.0132 C   0  0  0  0  0  0  0  0  0  0  0  0
  154.1600  136.7188  190.0765 C   0  0  0  0  0  0  0  0  0  0  0  0
  152.8411  137.0378  190.2472 F   0  0  0  0  0  0  0  0  0  0  0  0
  155.0441  137.7750  190.1612 F   0  0  0  0  0  0  0  0  0  0  0  0
  154.4314  136.0302  191.3274 F   0  0  0  0  0  0  0  0  0  0  0  0
  151.4244  138.6707  181.2531 N   0  0  0  0  0  0  0  0  0  0  0  0
  150.2179  137.8572  181.3383 C   0  0  0  0  0  0  0  0  0  0  0  0
  149.5539  137.7805  179.9993 C   0  0  0  0  0  0  0  0  0  0  0  0
  149.3492  139.1057  179.5952 O   0  0  0  0  0  0  0  0  0  0  0  0
  150.5760  139.5673  179.1213 C   0  0  0  0  0  0  0  0  0  0  0  0
  151.7080  139.4048  180.0745 C   0  0  0  0  0  0  0  0  0  0  0  0
  155.1797  140.3758  183.9789 N   0  0  0  0  0  0  0  0  0  0  0  0
  155.3216  140.3114  185.0906 H   0  0  0  0  0  0  0  0  0  0  0  0
  157.7641  143.3103  182.4874 C   0  0  0  0  0  0  0  0  0  0  0  0
  156.4201  143.4983  182.3303 C   0  0  0  0  0  0  0  0  0  0  0  0
  155.5127  142.5585  182.8142 C   0  0  0  0  0  0  0  0  0  0  0  0
  155.9088  141.4223  183.4555 C   0  0  0  0  0  0  0  0  0  0  0  0
  157.3218  141.3120  183.5721 C   0  0  0  0  0  0  0  0  0  0  0  0
  158.1816  142.2063  183.1163 N   0  0  0  0  0  0  0  0  0  0  0  0
  158.2628  145.5674  182.1130 F   0  0  0  0  0  0  0  0  0  0  0  0
  158.8009  144.3102  182.0122 C   0  0  0  0  0  0  0  0  0  0  0  0
  159.8211  144.2320  182.9582 F   0  0  0  0  0  0  0  0  0  0  0  0
  159.2890  144.0143  180.7684 F   0  0  0  0  0  0  0  0  0  0  0  0
 36 37  1  0  0  0
 37 38  1  0  0  0
 37 39  1  0  0  0
 37 30  1  0  0  0
 30 31  2  0  0  0
 31 32  1  0  0  0
 32 33  2  0  0  0
 33 28  1  0  0  0
 28  1  1  0  0  0
  1  2  2  0  0  0
  2  3  1  0  0  0
  3  4  2  0  0  0
  4  5  1  0  0  0
  5  6  1  0  0  0
  6  7  1  0  0  0
  7  8  1  0  0  0
  8  9  1  0  0  0
  9 10  1  0  0  0
 10 11  1  0  0  0
  8 12  1  0  0  0
 12 13  2  0  0  0
 13 14  1  0  0  0
 14 15  2  0  0  0
 15 16  1  0  0  0
 16 17  2  0  0  0
 17 18  1  0  0  0
 18 19  1  0  0  0
 18 20  1  0  0  0
 18 21  1  0  0  0
  3 22  1  0  0  0
 22 23  1  0  0  0
 23 24  1  0  0  0
 24 25  1  0  0  0
 25 26  1  0  0  0
 26 27  1  0  0  0
 33 34  1  0  0  0
 34 35  2  0  0  0
 35 30  1  0  0  0
 11  1  1  0  0  0
 17 12  1  0  0  0
 27 22  1  0  0  0
 11  5  2  0  0  0
 28 29  1  0  0  0
M  END
> <minimizedAffinity>
-8.00435

> <CNNscore>
0.4200864136

> <CNNaffinity>
7.0493369102

> <CNN_VS>
2.9613306522

> <CNNaffinity_variance>
0.0542524569

$$$$
[H]c1nc(N2C([H])([H])C([H])([H])c3nc(N4C([H])([H])C([H])([H])OC([H])([H])C4([H])[H])nc(N([H])c4c([H])nc(C(F)(F)F)c([H])c4[H])c3C([H])([H])C2([H])[H])c(C(F)(F)F)c([H])c1[H]


 39 43  0  0  0  0  0  0  0  0999 V2000
  155.8820  135.6744  189.0694 C   0  0  0  0  0  0  0  0  0  0  0  0
  156.9648  134.9659  188.6989 N   0  0  0  0  0  0  0  0  0  0  0  0
  156.9752  133.6268  188.5765 C   0  0  0  0  0  0  0  0  0  0  0  0
  155.8240  132.9323  188.8341 N   0  0  0  0  0  0  0  0  0  0  0  0
  154.6776  133.5273  189.2142 C   0  0  0  0  0  0  0  0  0  0  0  0
  153.5111  132.5878  189.3121 C   0  0  0  0  0  0  0  0  0  0  0  0
  152.2438  133.2822  188.8260 C   0  0  0  0  0  0  0  0  0  0  0  0
  151.9115  134.4175  189.7252 N   0  0  0  0  0  0  0  0  0  0  0  0
  152.4057  135.7639  189.5147 C   0  0  0  0  0  0  0  0  0  0  0  0
  153.7959  135.7510  190.0686 C   0  0  0  0  0  0  0  0  0  0  0  0
  154.7238  134.8990  189.3385 C   0  0  0  0  0  0  0  0  0  0  0  0
  151.1135  134.0213  190.7836 C   0  0  0  0  0  0  0  0  0  0  0  0
  149.8112  133.7168  190.4816 N   0  0  0  0  0  0  0  0  0  0  0  0
  148.8924  133.3940  191.4128 C   0  0  0  0  0  0  0  0  0  0  0  0
  149.2176  133.3492  192.7497 C   0  0  0  0  0  0  0  0  0  0  0  0
  150.5230  133.6549  193.0705 C   0  0  0  0  0  0  0  0  0  0  0  0
  151.4705  133.9887  192.0953 C   0  0  0  0  0  0  0  0  0  0  0  0
  152.8461  134.2476  192.5334 C   0  0  0  0  0  0  0  0  0  0  0  0
  153.8387  133.6584  191.7997 F   0  0  0  0  0  0  0  0  0  0  0  0
  153.0234  134.2246  193.9018 F   0  0  0  0  0  0  0  0  0  0  0  0
  153.0987  135.6496  192.2454 F   0  0  0  0  0  0  0  0  0  0  0  0
  158.1259  132.8383  188.2343 N   0  0  0  0  0  0  0  0  0  0  0  0
  158.4808  132.7196  186.8255 C   0  0  0  0  0  0  0  0  0  0  0  0
  159.5576  131.6953  186.6511 C   0  0  0  0  0  0  0  0  0  0  0  0
  160.6031  132.0888  187.4957 O   0  0  0  0  0  0  0  0  0  0  0  0
  160.2389  131.6971  188.7828 C   0  0  0  0  0  0  0  0  0  0  0  0
  158.9032  132.1855  189.2232 C   0  0  0  0  0  0  0  0  0  0  0  0
  155.6341  137.0404  188.9912 N   0  0  0  0  0  0  0  0  0  0  0  0
  156.1740  137.4744  188.1078 H   0  0  0  0  0  0  0  0  0  0  0  0
  154.2010  140.0046  191.5747 C   0  0  0  0  0  0  0  0  0  0  0  0
  153.5777  139.8473  190.3693 C   0  0  0  0  0  0  0  0  0  0  0  0
  154.0066  138.8710  189.4729 C   0  0  0  0  0  0  0  0  0  0  0  0
  155.0519  138.0383  189.7435 C   0  0  0  0  0  0  0  0  0  0  0  0
  155.6376  138.2752  191.0175 C   0  0  0  0  0  0  0  0  0  0  0  0
  155.2272  139.1989  191.8689 N   0  0  0  0  0  0  0  0  0  0  0  0
  154.8441  141.8055  192.9262 F   0  0  0  0  0  0  0  0  0  0  0  0
  153.7622  141.0262  192.6064 C   0  0  0  0  0  0  0  0  0  0  0  0
  152.8630  141.8454  191.9265 F   0  0  0  0  0  0  0  0  0  0  0  0
  153.1514  140.4545  193.6894 F   0  0  0  0  0  0  0  0  0  0  0  0
 36 37  1  0  0  0
 37 38  1  0  0  0
 37 39  1  0  0  0
 37 30  1  0  0  0
 30 31  2  0  0  0
 31 32  1  0  0  0
 32 33  2  0  0  0
 33 28  1  0  0  0
 28  1  1  0  0  0
  1  2  2  0  0  0
  2  3  1  0  0  0
  3  4  2  0  0  0
  4  5  1  0  0  0
  5  6  1  0  0  0
  6  7  1  0  0  0
  7  8  1  0  0  0
  8  9  1  0  0  0
  9 10  1  0  0  0
 10 11  1  0  0  0
  8 12  1  0  0  0
 12 13  2  0  0  0
 13 14  1  0  0  0
 14 15  2  0  0  0
 15 16  1  0  0  0
 16 17  2  0  0  0
 17 18  1  0  0  0
 18 19  1  0  0  0
 18 20  1  0  0  0
 18 21  1  0  0  0
  3 22  1  0  0  0
 22 23  1  0  0  0
 23 24  1  0  0  0
 24 25  1  0  0  0
 25 26  1  0  0  0
 26 27  1  0  0  0
 33 34  1  0  0  0
 34 35  2  0  0  0
 35 30  1  0  0  0
 11  1  1  0  0  0
 17 12  1  0  0  0
 27 22  1  0  0  0
 11  5  2  0  0  0
 28 29  1  0  0  0
M  END
> <minimizedAffinity>
1.42079

> <CNNscore>
0.4005923867

> <CNNaffinity>
6.7033209801

> <CNN_VS>
2.6852993965

> <CNNaffinity_variance>
1.1266334057

$$$$
[H]c1nc(N2C([H])([H])C([H])([H])c3nc(N4C([H])([H])C([H])([H])OC([H])([H])C4([H])[H])nc(N([H])c4c([H])nc(C(F)(F)F)c([H])c4[H])c3C([H])([H])C2([H])[H])c(C(F)(F)F)c([H])c1[H]


 39 43  0  0  0  0  0  0  0  0999 V2000
  153.5098  139.3115  183.4881 C   0  0  0  0  0  0  0  0  0  0  0  0
  153.8714  139.0466  184.7572 N   0  0  0  0  0  0  0  0  0  0  0  0
  153.3414  138.0537  185.4931 C   0  0  0  0  0  0  0  0  0  0  0  0
  152.3828  137.2551  184.9299 N   0  0  0  0  0  0  0  0  0  0  0  0
  151.9365  137.4213  183.6706 C   0  0  0  0  0  0  0  0  0  0  0  0
  150.9846  136.3521  183.2193 C   0  0  0  0  0  0  0  0  0  0  0  0
  151.2343  136.0212  181.7520 C   0  0  0  0  0  0  0  0  0  0  0  0
  150.9274  137.2039  180.9066 N   0  0  0  0  0  0  0  0  0  0  0  0
  151.9135  138.2107  180.5672 C   0  0  0  0  0  0  0  0  0  0  0  0
  151.9765  139.1029  181.7671 C   0  0  0  0  0  0  0  0  0  0  0  0
  152.5013  138.4609  182.9640 C   0  0  0  0  0  0  0  0  0  0  0  0
  149.5986  137.2334  180.5228 C   0  0  0  0  0  0  0  0  0  0  0  0
  149.1266  136.1169  179.8819 N   0  0  0  0  0  0  0  0  0  0  0  0
  147.8808  136.0254  179.3770 C   0  0  0  0  0  0  0  0  0  0  0  0
  146.9913  137.0710  179.4800 C   0  0  0  0  0  0  0  0  0  0  0  0
  147.4510  138.2022  180.1200 C   0  0  0  0  0  0  0  0  0  0  0  0
  148.7474  138.2872  180.6418 C   0  0  0  0  0  0  0  0  0  0  0  0
  149.1242  139.5149  181.3502 C   0  0  0  0  0  0  0  0  0  0  0  0
  149.9438  140.3781  180.6766 F   0  0  0  0  0  0  0  0  0  0  0  0
  149.4176  139.3358  182.6867 F   0  0  0  0  0  0  0  0  0  0  0  0
  147.9122  140.3123  181.4377 F   0  0  0  0  0  0  0  0  0  0  0  0
  153.6676  137.7783  186.8645 N   0  0  0  0  0  0  0  0  0  0  0  0
  152.6083  137.2822  187.7343 C   0  0  0  0  0  0  0  0  0  0  0  0
  153.0760  137.2650  189.1557 C   0  0  0  0  0  0  0  0  0  0  0  0
  154.2542  136.5079  189.1637 O   0  0  0  0  0  0  0  0  0  0  0  0
  155.2635  137.3443  188.6901 C   0  0  0  0  0  0  0  0  0  0  0  0
  154.9742  137.9795  187.3751 C   0  0  0  0  0  0  0  0  0  0  0  0
  154.1256  140.1059  182.5272 N   0  0  0  0  0  0  0  0  0  0  0  0
  154.0270  139.6256  181.5173 H   0  0  0  0  0  0  0  0  0  0  0  0
  156.9368  143.1954  182.2699 C   0  0  0  0  0  0  0  0  0  0  0  0
  155.6145  143.5336  182.3265 C   0  0  0  0  0  0  0  0  0  0  0  0
  154.6352  142.5473  182.4212 C   0  0  0  0  0  0  0  0  0  0  0  0
  154.9372  141.2182  182.4594 C   0  0  0  0  0  0  0  0  0  0  0  0
  156.3346  140.9623  182.3950 C   0  0  0  0  0  0  0  0  0  0  0  0
  157.2630  141.8989  182.3094 N   0  0  0  0  0  0  0  0  0  0  0  0
  159.0576  143.8221  183.0400 F   0  0  0  0  0  0  0  0  0  0  0  0
  158.0513  144.2217  182.1986 C   0  0  0  0  0  0  0  0  0  0  0  0
  158.5450  144.1118  180.9001 F   0  0  0  0  0  0  0  0  0  0  0  0
  157.6107  145.4969  182.4279 F   0  0  0  0  0  0  0  0  0  0  0  0
 36 37  1  0  0  0
 37 38  1  0  0  0
 37 39  1  0  0  0
 37 30  1  0  0  0
 30 31  2  0  0  0
 31 32  1  0  0  0
 32 33  2  0  0  0
 33 28  1  0  0  0
 28  1  1  0  0  0
  1  2  2  0  0  0
  2  3  1  0  0  0
  3  4  2  0  0  0
  4  5  1  0  0  0
  5  6  1  0  0  0
  6  7  1  0  0  0
  7  8  1  0  0  0
  8  9  1  0  0  0
  9 10  1  0  0  0
 10 11  1  0  0  0
  8 12  1  0  0  0
 12 13  2  0  0  0
 13 14  1  0  0  0
 14 15  2  0  0  0
 15 16  1  0  0  0
 16 17  2  0  0  0
 17 18  1  0  0  0
 18 19  1  0  0  0
 18 20  1  0  0  0
 18 21  1  0  0  0
  3 22  1  0  0  0
 22 23  1  0  0  0
 23 24  1  0  0  0
 24 25  1  0  0  0
 25 26  1  0  0  0
 26 27  1  0  0  0
 33 34  1  0  0  0
 34 35  2  0  0  0
 35 30  1  0  0  0
 11  1  1  0  0  0
 17 12  1  0  0  0
 27 22  1  0  0  0
 11  5  2  0  0  0
 28 29  1  0  0  0
M  END
> <minimizedAffinity>
-8.18163

> <CNNscore>
0.3928006589

> <CNNaffinity>
6.9338469505

> <CNN_VS>
2.7236196995

> <CNNaffinity_variance>
0.0140218232

$$$$
[H]c1nc(N2C([H])([H])C([H])([H])c3nc(N4C([H])([H])C([H])([H])OC([H])([H])C4([H])[H])nc(N([H])c4c([H])nc(C(F)(F)F)c([H])c4[H])c3C([H])([H])C2([H])[H])c(C(F)(F)F)c([H])c1[H]


 39 43  0  0  0  0  0  0  0  0999 V2000
  155.3636  139.1093  184.3682 C   0  0  0  0  0  0  0  0  0  0  0  0
  154.4577  139.2397  183.3813 N   0  0  0  0  0  0  0  0  0  0  0  0
  153.1941  138.7872  183.4628 C   0  0  0  0  0  0  0  0  0  0  0  0
  152.7906  138.1619  184.6118 N   0  0  0  0  0  0  0  0  0  0  0  0
  153.6043  137.9696  185.6671 C   0  0  0  0  0  0  0  0  0  0  0  0
  152.9148  137.3840  186.8648 C   0  0  0  0  0  0  0  0  0  0  0  0
  153.4739  138.0050  188.1401 C   0  0  0  0  0  0  0  0  0  0  0  0
  154.9066  137.6424  188.2943 N   0  0  0  0  0  0  0  0  0  0  0  0
  155.9875  138.4425  187.7531 C   0  0  0  0  0  0  0  0  0  0  0  0
  156.0605  138.0580  186.3086 C   0  0  0  0  0  0  0  0  0  0  0  0
  154.8923  138.4391  185.5274 C   0  0  0  0  0  0  0  0  0  0  0  0
  155.0668  136.4506  188.9782 C   0  0  0  0  0  0  0  0  0  0  0  0
  154.6873  135.3131  188.3134 N   0  0  0  0  0  0  0  0  0  0  0  0
  154.7068  134.0879  188.8738 C   0  0  0  0  0  0  0  0  0  0  0  0
  155.1199  133.9053  190.1742 C   0  0  0  0  0  0  0  0  0  0  0  0
  155.5030  135.0397  190.8575 C   0  0  0  0  0  0  0  0  0  0  0  0
  155.4796  136.3084  190.2661 C   0  0  0  0  0  0  0  0  0  0  0  0
  155.9555  137.4460  191.0601 C   0  0  0  0  0  0  0  0  0  0  0  0
  154.9969  138.2939  191.5424 F   0  0  0  0  0  0  0  0  0  0  0  0
  157.0922  138.0521  190.5652 F   0  0  0  0  0  0  0  0  0  0  0  0
  156.4607  136.8822  192.3008 F   0  0  0  0  0  0  0  0  0  0  0  0
  152.2203  138.8641  182.4098 N   0  0  0  0  0  0  0  0  0  0  0  0
  152.4050  139.8777  181.3787 C   0  0  0  0  0  0  0  0  0  0  0  0
  151.1923  139.9490  180.5047 C   0  0  0  0  0  0  0  0  0  0  0  0
  150.9846  138.6485  180.0285 O   0  0  0  0  0  0  0  0  0  0  0  0
  150.3746  137.9422  181.0638 C   0  0  0  0  0  0  0  0  0  0  0  0
  151.1053  137.9908  182.3600 C   0  0  0  0  0  0  0  0  0  0  0  0
  156.5935  139.7337  184.5450 N   0  0  0  0  0  0  0  0  0  0  0  0
  157.0972  139.3275  185.4623 H   0  0  0  0  0  0  0  0  0  0  0  0
  158.3699  143.1575  182.9213 C   0  0  0  0  0  0  0  0  0  0  0  0
  159.1890  142.1604  183.3697 C   0  0  0  0  0  0  0  0  0  0  0  0
  158.6530  140.9945  183.9121 C   0  0  0  0  0  0  0  0  0  0  0  0
  157.3095  140.7907  184.0248 C   0  0  0  0  0  0  0  0  0  0  0  0
  156.5377  141.8796  183.5340 C   0  0  0  0  0  0  0  0  0  0  0  0
  157.0472  142.9834  183.0157 N   0  0  0  0  0  0  0  0  0  0  0  0
  159.2531  144.1608  180.9986 F   0  0  0  0  0  0  0  0  0  0  0  0
  158.8901  144.4357  182.2920 C   0  0  0  0  0  0  0  0  0  0  0  0
  157.7772  145.2721  182.2284 F   0  0  0  0  0  0  0  0  0  0  0  0
  159.8793  145.0245  183.0320 F   0  0  0  0  0  0  0  0  0  0  0  0
 36 37  1  0  0  0
 37 38  1  0  0  0
 37 39  1  0  0  0
 37 30  1  0  0  0
 30 31  2  0  0  0
 31 32  1  0  0  0
 32 33  2  0  0  0
 33 28  1  0  0  0
 28  1  1  0  0  0
  1  2  2  0  0  0
  2  3  1  0  0  0
  3  4  2  0  0  0
  4  5  1  0  0  0
  5  6  1  0  0  0
  6  7  1  0  0  0
  7  8  1  0  0  0
  8  9  1  0  0  0
  9 10  1  0  0  0
 10 11  1  0  0  0
  8 12  1  0  0  0
 12 13  2  0  0  0
 13 14  1  0  0  0
 14 15  2  0  0  0
 15 16  1  0  0  0
 16 17  2  0  0  0
 17 18  1  0  0  0
 18 19  1  0  0  0
 18 20  1  0  0  0
 18 21  1  0  0  0
  3 22  1  0  0  0
 22 23  1  0  0  0
 23 24  1  0  0  0
 24 25  1  0  0  0
 25 26  1  0  0  0
 26 27  1  0  0  0
 33 34  1  0  0  0
 34 35  2  0  0  0
 35 30  1  0  0  0
 11  1  1  0  0  0
 17 12  1  0  0  0
 27 22  1  0  0  0
 11  5  2  0  0  0
 28 29  1  0  0  0
M  END
> <minimizedAffinity>
-8.75036

> <CNNscore>
0.3730709553

> <CNNaffinity>
7.0631422997

> <CNN_VS>
2.6350531578

> <CNNaffinity_variance>
0.0412472822

$$$$
[H]c1nc(N2C([H])([H])C([H])([H])c3nc(N4C([H])([H])C([H])([H])OC([H])([H])C4([H])[H])nc(N([H])c4c([H])nc(C(F)(F)F)c([H])c4[H])c3C([H])([H])C2([H])[H])c(C(F)(F)F)c([H])c1[H]


 39 43  0  0  0  0  0  0  0  0999 V2000
  156.1183  139.2245  185.4020 C   0  0  0  0  0  0  0  0  0  0  0  0
  155.1472  138.3390  185.6925 N   0  0  0  0  0  0  0  0  0  0  0  0
  153.9891  138.2514  185.0146 C   0  0  0  0  0  0  0  0  0  0  0  0
  153.7749  139.1011  183.9629 N   0  0  0  0  0  0  0  0  0  0  0  0
  154.6689  140.0309  183.5771 C   0  0  0  0  0  0  0  0  0  0  0  0
  154.2829  140.7583  182.3222 C   0  0  0  0  0  0  0  0  0  0  0  0
  155.5220  141.0232  181.4742 C   0  0  0  0  0  0  0  0  0  0  0  0
  156.4419  141.9413  182.1944 N   0  0  0  0  0  0  0  0  0  0  0  0
  157.4843  141.4760  183.0878 C   0  0  0  0  0  0  0  0  0  0  0  0
  156.7819  141.1911  184.3781 C   0  0  0  0  0  0  0  0  0  0  0  0
  155.8327  140.0889  184.3128 C   0  0  0  0  0  0  0  0  0  0  0  0
  156.1567  143.2692  181.9309 C   0  0  0  0  0  0  0  0  0  0  0  0
  154.8292  143.6108  181.9007 N   0  0  0  0  0  0  0  0  0  0  0  0
  154.3902  144.8434  181.5788 C   0  0  0  0  0  0  0  0  0  0  0  0
  155.2699  145.8519  181.2566 C   0  0  0  0  0  0  0  0  0  0  0  0
  156.6088  145.5242  181.2802 C   0  0  0  0  0  0  0  0  0  0  0  0
  157.0550  144.2405  181.6165 C   0  0  0  0  0  0  0  0  0  0  0  0
  158.5020  144.0058  181.6628 C   0  0  0  0  0  0  0  0  0  0  0  0
  158.9982  143.0917  180.7746 F   0  0  0  0  0  0  0  0  0  0  0  0
  159.0303  143.9462  182.9362 F   0  0  0  0  0  0  0  0  0  0  0  0
  159.1192  145.2235  181.1641 F   0  0  0  0  0  0  0  0  0  0  0  0
  152.9131  137.3543  185.3315 N   0  0  0  0  0  0  0  0  0  0  0  0
  152.1729  136.7554  184.2278 C   0  0  0  0  0  0  0  0  0  0  0  0
  150.9680  136.0357  184.7473 C   0  0  0  0  0  0  0  0  0  0  0  0
  151.4437  135.1302  185.7039 O   0  0  0  0  0  0  0  0  0  0  0  0
  151.6809  135.8685  186.8620 C   0  0  0  0  0  0  0  0  0  0  0  0
  152.5654  137.0509  186.6715 C   0  0  0  0  0  0  0  0  0  0  0  0
  157.4438  139.2712  185.8197 N   0  0  0  0  0  0  0  0  0  0  0  0
  157.6672  138.3865  186.4736 H   0  0  0  0  0  0  0  0  0  0  0  0
  160.8153  141.7065  185.3543 C   0  0  0  0  0  0  0  0  0  0  0  0
  159.9631  141.9801  186.3864 C   0  0  0  0  0  0  0  0  0  0  0  0
  158.8294  141.1977  186.5944 C   0  0  0  0  0  0  0  0  0  0  0  0
  158.5141  140.1396  185.7942 C   0  0  0  0  0  0  0  0  0  0  0  0
  159.4558  139.9315  184.7491 C   0  0  0  0  0  0  0  0  0  0  0  0
  160.5333  140.6718  184.5552 N   0  0  0  0  0  0  0  0  0  0  0  0
  162.8511  142.4646  186.2285 F   0  0  0  0  0  0  0  0  0  0  0  0
  162.0816  142.4997  185.0941 C   0  0  0  0  0  0  0  0  0  0  0  0
  162.7610  141.7652  184.1240 F   0  0  0  0  0  0  0  0  0  0  0  0
  161.8283  143.7638  184.6351 F   0  0  0  0  0  0  0  0  0  0  0  0
 36 37  1  0  0  0
 37 38  1  0  0  0
 37 39  1  0  0  0
 37 30  1  0  0  0
 30 31  2  0  0  0
 31 32  1  0  0  0
 32 33  2  0  0  0
 33 28  1  0  0  0
 28  1  1  0  0  0
  1  2  2  0  0  0
  2  3  1  0  0  0
  3  4  2  0  0  0
  4  5  1  0  0  0
  5  6  1  0  0  0
  6  7  1  0  0  0
  7  8  1  0  0  0
  8  9  1  0  0  0
  9 10  1  0  0  0
 10 11  1  0  0  0
  8 12  1  0  0  0
 12 13  2  0  0  0
 13 14  1  0  0  0
 14 15  2  0  0  0
 15 16  1  0  0  0
 16 17  2  0  0  0
 17 18  1  0  0  0
 18 19  1  0  0  0
 18 20  1  0  0  0
 18 21  1  0  0  0
  3 22  1  0  0  0
 22 23  1  0  0  0
 23 24  1  0  0  0
 24 25  1  0  0  0
 25 26  1  0  0  0
 26 27  1  0  0  0
 33 34  1  0  0  0
 34 35  2  0  0  0
 35 30  1  0  0  0
 11  1  1  0  0  0
 17 12  1  0  0  0
 27 22  1  0  0  0
 11  5  2  0  0  0
 28 29  1  0  0  0
M  END
> <minimizedAffinity>
0.46263

> <CNNscore>
0.3440124691

> <CNNaffinity>
7.4183073044

> <CNN_VS>
2.5519902706

> <CNNaffinity_variance>
0.3166275620

$$$$
[H]c1nc(N2C([H])([H])C([H])([H])c3nc(N4C([H])([H])C([H])([H])OC([H])([H])C4([H])[H])nc(N([H])c4c([H])nc(C(F)(F)F)c([H])c4[H])c3C([H])([H])C2([H])[H])c(C(F)(F)F)c([H])c1[H]


 39 43  0  0  0  0  0  0  0  0999 V2000
  154.2524  138.6821  184.3923 C   0  0  0  0  0  0  0  0  0  0  0  0
  155.1404  139.6285  184.0353 N   0  0  0  0  0  0  0  0  0  0  0  0
  155.0365  140.3657  182.9155 C   0  0  0  0  0  0  0  0  0  0  0  0
  153.9684  140.1565  182.0852 N   0  0  0  0  0  0  0  0  0  0  0  0
  153.0157  139.2379  182.3325 C   0  0  0  0  0  0  0  0  0  0  0  0
  151.8729  139.2737  181.3601 C   0  0  0  0  0  0  0  0  0  0  0  0
  150.5626  138.9988  182.0896 C   0  0  0  0  0  0  0  0  0  0  0  0
  150.5687  137.6183  182.6392 N   0  0  0  0  0  0  0  0  0  0  0  0
  151.0603  137.2970  183.9645 C   0  0  0  0  0  0  0  0  0  0  0  0
  152.5476  137.2280  183.8134 C   0  0  0  0  0  0  0  0  0  0  0  0
  153.1761  138.4996  183.4850 C   0  0  0  0  0  0  0  0  0  0  0  0
  150.0850  136.6974  181.7272 C   0  0  0  0  0  0  0  0  0  0  0  0
  150.8549  135.5810  181.5250 N   0  0  0  0  0  0  0  0  0  0  0  0
  150.5597  134.6347  180.6124 C   0  0  0  0  0  0  0  0  0  0  0  0
  149.4424  134.7373  179.8149 C   0  0  0  0  0  0  0  0  0  0  0  0
  148.6584  135.8554  180.0042 C   0  0  0  0  0  0  0  0  0  0  0  0
  148.9735  136.8329  180.9557 C   0  0  0  0  0  0  0  0  0  0  0  0
  148.0482  137.9595  181.1163 C   0  0  0  0  0  0  0  0  0  0  0  0
  148.3781  139.1149  180.4629 F   0  0  0  0  0  0  0  0  0  0  0  0
  147.5589  138.1184  182.3968 F   0  0  0  0  0  0  0  0  0  0  0  0
  146.8384  137.5862  180.4024 F   0  0  0  0  0  0  0  0  0  0  0  0
  155.9928  141.3451  182.4805 N   0  0  0  0  0  0  0  0  0  0  0  0
  155.6623  142.7531  182.6622 C   0  0  0  0  0  0  0  0  0  0  0  0
  156.6656  143.6118  181.9582 C   0  0  0  0  0  0  0  0  0  0  0  0
  157.9172  143.2267  182.4549 O   0  0  0  0  0  0  0  0  0  0  0  0
  158.2546  142.0440  181.7993 C   0  0  0  0  0  0  0  0  0  0  0  0
  157.2249  140.9723  181.8877 C   0  0  0  0  0  0  0  0  0  0  0  0
  154.0733  138.0337  185.6094 N   0  0  0  0  0  0  0  0  0  0  0  0
  153.2156  137.3134  185.5333 H   0  0  0  0  0  0  0  0  0  0  0  0
  155.0233  138.2622  189.6787 C   0  0  0  0  0  0  0  0  0  0  0  0
  156.0492  138.1305  188.7863 C   0  0  0  0  0  0  0  0  0  0  0  0
  155.7927  138.0580  187.4189 C   0  0  0  0  0  0  0  0  0  0  0  0
  154.5297  138.1109  186.9079 C   0  0  0  0  0  0  0  0  0  0  0  0
  153.5289  138.2478  187.9090 C   0  0  0  0  0  0  0  0  0  0  0  0
  153.7737  138.3208  189.2057 N   0  0  0  0  0  0  0  0  0  0  0  0
  155.0749  139.6926  191.5320 F   0  0  0  0  0  0  0  0  0  0  0  0
  155.2382  138.3786  191.1756 C   0  0  0  0  0  0  0  0  0  0  0  0
  154.1750  137.6742  191.7372 F   0  0  0  0  0  0  0  0  0  0  0  0
  156.4278  137.8379  191.5822 F   0  0  0  0  0  0  0  0  0  0  0  0
 36 37  1  0  0  0
 37 38  1  0  0  0
 37 39  1  0  0  0
 37 30  1  0  0  0
 30 31  2  0  0  0
 31 32  1  0  0  0
 32 33  2  0  0  0
 33 28  1  0  0  0
 28  1  1  0  0  0
  1  2  2  0  0  0
  2  3  1  0  0  0
  3  4  2  0  0  0
  4  5  1  0  0  0
  5  6  1  0  0  0
  6  7  1  0  0  0
  7  8  1  0  0  0
  8  9  1  0  0  0
  9 10  1  0  0  0
 10 11  1  0  0  0
  8 12  1  0  0  0
 12 13  2  0  0  0
 13 14  1  0  0  0
 14 15  2  0  0  0
 15 16  1  0  0  0
 16 17  2  0  0  0
 17 18  1  0  0  0
 18 19  1  0  0  0
 18 20  1  0  0  0
 18 21  1  0  0  0
  3 22  1  0  0  0
 22 23  1  0  0  0
 23 24  1  0  0  0
 24 25  1  0  0  0
 25 26  1  0  0  0
 26 27  1  0  0  0
 33 34  1  0  0  0
 34 35  2  0  0  0
 35 30  1  0  0  0
 11  1  1  0  0  0
 17 12  1  0  0  0
 27 22  1  0  0  0
 11  5  2  0  0  0
 28 29  1  0  0  0
M  END
> <minimizedAffinity>
-8.62974

> <CNNscore>
0.3316299319

> <CNNaffinity>
6.7905745506

> <CNN_VS>
2.2519578934

> <CNNaffinity_variance>
0.0436740406

$$$$
[H]c1nc(N2C([H])([H])C([H])([H])c3nc(N4C([H])([H])C([H])([H])C([H])([H])C4([H])[H])nc(N([H])c4c([H])c([H])c(C(F)(F)F)c([H])c4[H])c3C([H])([H])C2([H])[H])c(C(F)(F)F)c([H])c1[H]


 38 42  0  0  0  0  0  0  0  0999 V2000
  153.9001  138.8181  183.8861 C   0  0  0  0  0  0  0  0  0  0  0  0
  154.6275  139.7036  183.2325 N   0  0  0  0  0  0  0  0  0  0  0  0
  155.8585  140.1185  183.6815 C   0  0  0  0  0  0  0  0  0  0  0  0
  156.3380  139.5974  184.8327 N   0  0  0  0  0  0  0  0  0  0  0  0
  155.6578  138.6757  185.5717 C   0  0  0  0  0  0  0  0  0  0  0  0
  156.4604  138.3589  186.7439 C   0  0  0  0  0  0  0  0  0  0  0  0
  155.8923  137.5337  187.8081 C   0  0  0  0  0  0  0  0  0  0  0  0
  154.4821  137.4924  188.0159 N   0  0  0  0  0  0  0  0  0  0  0  0
  153.4214  138.0010  187.2314 C   0  0  0  0  0  0  0  0  0  0  0  0
  153.4765  137.4157  185.7918 C   0  0  0  0  0  0  0  0  0  0  0  0
  154.4624  138.3129  185.0815 C   0  0  0  0  0  0  0  0  0  0  0  0
  154.0338  136.7855  189.1788 C   0  0  0  0  0  0  0  0  0  0  0  0
  153.3946  135.5850  188.9100 N   0  0  0  0  0  0  0  0  0  0  0  0
  152.9809  134.8129  189.9291 C   0  0  0  0  0  0  0  0  0  0  0  0
  153.1954  135.2097  191.2301 C   0  0  0  0  0  0  0  0  0  0  0  0
  153.8194  136.3842  191.4824 C   0  0  0  0  0  0  0  0  0  0  0  0
  154.2645  137.2228  190.4234 C   0  0  0  0  0  0  0  0  0  0  0  0
  154.9012  138.4779  190.8410 C   0  0  0  0  0  0  0  0  0  0  0  0
  154.5432  139.5164  190.0065 F   0  0  0  0  0  0  0  0  0  0  0  0
  156.2830  138.4265  191.0182 F   0  0  0  0  0  0  0  0  0  0  0  0
  154.4349  138.8636  192.1138 F   0  0  0  0  0  0  0  0  0  0  0  0
  156.6328  141.0522  182.9764 N   0  0  0  0  0  0  0  0  0  0  0  0
  156.4411  141.8236  181.7953 C   0  0  0  0  0  0  0  0  0  0  0  0
  157.7192  141.5329  181.0104 C   0  0  0  0  0  0  0  0  0  0  0  0
  158.7450  141.2491  182.0913 C   0  0  0  0  0  0  0  0  0  0  0  0
  158.0101  141.4550  183.3970 C   0  0  0  0  0  0  0  0  0  0  0  0
  152.7243  138.2110  183.4996 N   0  0  0  0  0  0  0  0  0  0  0  0
  152.4047  137.2922  184.0761 H   0  0  0  0  0  0  0  0  0  0  0  0
  149.9910  138.5403  180.2586 C   0  0  0  0  0  0  0  0  0  0  0  0
  149.6790  138.0408  181.5124 C   0  0  0  0  0  0  0  0  0  0  0  0
  150.5624  137.9986  182.5404 C   0  0  0  0  0  0  0  0  0  0  0  0
  151.9043  138.4754  182.4032 C   0  0  0  0  0  0  0  0  0  0  0  0
  152.2073  138.9703  181.1787 C   0  0  0  0  0  0  0  0  0  0  0  0
  151.2812  139.0112  180.1051 C   0  0  0  0  0  0  0  0  0  0  0  0
  147.7801  139.0941  179.6255 F   0  0  0  0  0  0  0  0  0  0  0  0
  148.9530  138.5043  179.2060 C   0  0  0  0  0  0  0  0  0  0  0  0
  148.6354  137.1752  178.8771 F   0  0  0  0  0  0  0  0  0  0  0  0
  149.3580  139.1274  178.0633 F   0  0  0  0  0  0  0  0  0  0  0  0
 35 36  1  0  0  0
 36 37  1  0  0  0
 36 38  1  0  0  0
 36 29  1  0  0  0
 29 30  2  0  0  0
 30 31  1  0  0  0
 31 32  2  0  0  0
 32 27  1  0  0  0
 27  1  1  0  0  0
  1  2  2  0  0  0
  2  3  1  0  0  0
  3  4  2  0  0  0
  4  5  1  0  0  0
  5  6  1  0  0  0
  6  7  1  0  0  0
  7  8  1  0  0  0
  8  9  1  0  0  0
  9 10  1  0  0  0
 10 11  1  0  0  0
  8 12  1  0  0  0
 12 13  2  0  0  0
 13 14  1  0  0  0
 14 15  2  0  0  0
 15 16  1  0  0  0
 16 17  2  0  0  0
 17 18  1  0  0  0
 18 19  1  0  0  0
 18 20  1  0  0  0
 18 21  1  0  0  0
  3 22  1  0  0  0
 22 23  1  0  0  0
 23 24  1  0  0  0
 24 25  1  0  0  0
 25 26  1  0  0  0
 32 33  1  0  0  0
 33 34  2  0  0  0
 34 29  1  0  0  0
 11  1  1  0  0  0
 17 12  1  0  0  0
 26 22  1  0  0  0
 11  5  2  0  0  0
 27 28  1  0  0  0
M  END
> <minimizedAffinity>
-9.06430

> <CNNscore>
0.4541022182

> <CNNaffinity>
6.8242120743

> <CNN_VS>
3.0988898277

> <CNNaffinity_variance>
0.0578848347

$$$$
[H]c1nc(N2C([H])([H])C([H])([H])c3nc(N4C([H])([H])C([H])([H])C([H])([H])C4([H])[H])nc(N([H])c4c([H])c([H])c(C(F)(F)F)c([H])c4[H])c3C([H])([H])C2([H])[H])c(C(F)(F)F)c([H])c1[H]


 38 42  0  0  0  0  0  0  0  0999 V2000
  154.6022  138.8990  184.2413 C   0  0  0  0  0  0  0  0  0  0  0  0
  153.4428  138.8564  183.6133 N   0  0  0  0  0  0  0  0  0  0  0  0
  153.1932  139.5935  182.4805 C   0  0  0  0  0  0  0  0  0  0  0  0
  154.1732  140.3875  181.9948 N   0  0  0  0  0  0  0  0  0  0  0  0
  155.4021  140.4917  182.5755 C   0  0  0  0  0  0  0  0  0  0  0  0
  156.1859  141.4425  181.8009 C   0  0  0  0  0  0  0  0  0  0  0  0
  157.4845  141.8880  182.3024 C   0  0  0  0  0  0  0  0  0  0  0  0
  157.7604  141.8799  183.7014 N   0  0  0  0  0  0  0  0  0  0  0  0
  157.0316  141.3273  184.7796 C   0  0  0  0  0  0  0  0  0  0  0  0
  156.8057  139.8041  184.5634 C   0  0  0  0  0  0  0  0  0  0  0  0
  155.5827  139.7489  183.6785 C   0  0  0  0  0  0  0  0  0  0  0  0
  158.9954  142.4829  184.1068 C   0  0  0  0  0  0  0  0  0  0  0  0
  159.6426  141.8257  185.1419 N   0  0  0  0  0  0  0  0  0  0  0  0
  160.8365  142.2734  185.5659 C   0  0  0  0  0  0  0  0  0  0  0  0
  161.4144  143.3735  184.9726 C   0  0  0  0  0  0  0  0  0  0  0  0
  160.7740  144.0091  183.9634 C   0  0  0  0  0  0  0  0  0  0  0  0
  159.5080  143.5593  183.4969 C   0  0  0  0  0  0  0  0  0  0  0  0
  158.9168  144.3575  182.4160 C   0  0  0  0  0  0  0  0  0  0  0  0
  157.6286  144.7387  182.7293 F   0  0  0  0  0  0  0  0  0  0  0  0
  158.9806  143.7941  181.1425 F   0  0  0  0  0  0  0  0  0  0  0  0
  159.6210  145.5683  182.2599 F   0  0  0  0  0  0  0  0  0  0  0  0
  151.9620  139.5356  181.8102 N   0  0  0  0  0  0  0  0  0  0  0  0
  150.7524  138.8091  181.9993 C   0  0  0  0  0  0  0  0  0  0  0  0
  150.5044  138.2297  180.6076 C   0  0  0  0  0  0  0  0  0  0  0  0
  151.1512  139.2406  179.6797 C   0  0  0  0  0  0  0  0  0  0  0  0
  151.6600  140.3393  180.5859 C   0  0  0  0  0  0  0  0  0  0  0  0
  155.0430  138.1279  185.2957 N   0  0  0  0  0  0  0  0  0  0  0  0
  155.5136  137.1310  185.0440 H   0  0  0  0  0  0  0  0  0  0  0  0
  154.9012  138.3020  189.5422 C   0  0  0  0  0  0  0  0  0  0  0  0
  156.0412  138.0530  188.7956 C   0  0  0  0  0  0  0  0  0  0  0  0
  156.0613  138.0565  187.4397 C   0  0  0  0  0  0  0  0  0  0  0  0
  154.8867  138.3226  186.6675 C   0  0  0  0  0  0  0  0  0  0  0  0
  153.7731  138.5730  187.3979 C   0  0  0  0  0  0  0  0  0  0  0  0
  153.7554  138.5666  188.8163 C   0  0  0  0  0  0  0  0  0  0  0  0
  154.9287  139.4917  191.5865 F   0  0  0  0  0  0  0  0  0  0  0  0
  154.9952  138.2387  191.0166 C   0  0  0  0  0  0  0  0  0  0  0  0
  156.2290  137.6889  191.4052 F   0  0  0  0  0  0  0  0  0  0  0  0
  154.0101  137.4702  191.5618 F   0  0  0  0  0  0  0  0  0  0  0  0
 35 36  1  0  0  0
 36 37  1  0  0  0
 36 38  1  0  0  0
 36 29  1  0  0  0
 29 30  2  0  0  0
 30 31  1  0  0  0
 31 32  2  0  0  0
 32 27  1  0  0  0
 27  1  1  0  0  0
  1  2  2  0  0  0
  2  3  1  0  0  0
  3  4  2  0  0  0
  4  5  1  0  0  0
  5  6  1  0  0  0
  6  7  1  0  0  0
  7  8  1  0  0  0
  8  9  1  0  0  0
  9 10  1  0  0  0
 10 11  1  0  0  0
  8 12  1  0  0  0
 12 13  2  0  0  0
 13 14  1  0  0  0
 14 15  2  0  0  0
 15 16  1  0  0  0
 16 17  2  0  0  0
 17 18  1  0  0  0
 18 19  1  0  0  0
 18 20  1  0  0  0
 18 21  1  0  0  0
  3 22  1  0  0  0
 22 23  1  0  0  0
 23 24  1  0  0  0
 24 25  1  0  0  0
 25 26  1  0  0  0
 32 33  1  0  0  0
 33 34  2  0  0  0
 34 29  1  0  0  0
 11  1  1  0  0  0
 17 12  1  0  0  0
 26 22  1  0  0  0
 11  5  2  0  0  0
 27 28  1  0  0  0
M  END
> <minimizedAffinity>
-11.30111

> <CNNscore>
0.4087522626

> <CNNaffinity>
7.3987131119

> <CNN_VS>
3.0242407322

> <CNNaffinity_variance>
0.0147541538

$$$$
[H]c1nc(N2C([H])([H])C([H])([H])c3nc(N4C([H])([H])C([H])([H])C([H])([H])C4([H])[H])nc(N([H])c4c([H])c([H])c(C(F)(F)F)c([H])c4[H])c3C([H])([H])C2([H])[H])c(C(F)(F)F)c([H])c1[H]


 38 42  0  0  0  0  0  0  0  0999 V2000
  154.9364  138.7780  184.3766 C   0  0  0  0  0  0  0  0  0  0  0  0
  154.1005  138.7596  183.3561 N   0  0  0  0  0  0  0  0  0  0  0  0
  152.8486  138.1986  183.4417 C   0  0  0  0  0  0  0  0  0  0  0  0
  152.4635  137.6491  184.6149 N   0  0  0  0  0  0  0  0  0  0  0  0
  153.2589  137.6256  185.7216 C   0  0  0  0  0  0  0  0  0  0  0  0
  152.5321  136.9443  186.7827 C   0  0  0  0  0  0  0  0  0  0  0  0
  153.2168  136.6117  188.0305 C   0  0  0  0  0  0  0  0  0  0  0  0
  154.6298  136.4205  188.0507 N   0  0  0  0  0  0  0  0  0  0  0  0
  155.6061  136.6697  187.0589 C   0  0  0  0  0  0  0  0  0  0  0  0
  155.5646  138.1587  186.6126 C   0  0  0  0  0  0  0  0  0  0  0  0
  154.4686  138.1873  185.5735 C   0  0  0  0  0  0  0  0  0  0  0  0
  155.1865  135.9416  189.2811 C   0  0  0  0  0  0  0  0  0  0  0  0
  155.1883  134.5614  189.4117 N   0  0  0  0  0  0  0  0  0  0  0  0
  155.7367  134.0006  190.5029 C   0  0  0  0  0  0  0  0  0  0  0  0
  156.2969  134.7917  191.4808 C   0  0  0  0  0  0  0  0  0  0  0  0
  156.2892  136.1386  191.3448 C   0  0  0  0  0  0  0  0  0  0  0  0
  155.7126  136.7590  190.2023 C   0  0  0  0  0  0  0  0  0  0  0  0
  155.7504  138.2265  190.1980 C   0  0  0  0  0  0  0  0  0  0  0  0
  156.0090  138.7191  191.4603 F   0  0  0  0  0  0  0  0  0  0  0  0
  154.6477  138.8591  189.6257 F   0  0  0  0  0  0  0  0  0  0  0  0
  156.8223  138.6864  189.4071 F   0  0  0  0  0  0  0  0  0  0  0  0
  151.9594  138.1920  182.3564 N   0  0  0  0  0  0  0  0  0  0  0  0
  152.0761  138.4692  180.9649 C   0  0  0  0  0  0  0  0  0  0  0  0
  150.9215  139.4425  180.7331 C   0  0  0  0  0  0  0  0  0  0  0  0
  149.9030  139.0448  181.7846 C   0  0  0  0  0  0  0  0  0  0  0  0
  150.5093  137.8527  182.4907 C   0  0  0  0  0  0  0  0  0  0  0  0
  156.1553  139.4131  184.4841 N   0  0  0  0  0  0  0  0  0  0  0  0
  156.5912  139.5197  185.5220 H   0  0  0  0  0  0  0  0  0  0  0  0
  157.9616  141.6249  181.3332 C   0  0  0  0  0  0  0  0  0  0  0  0
  156.9035  142.0687  182.1094 C   0  0  0  0  0  0  0  0  0  0  0  0
  156.3852  141.3582  183.1416 C   0  0  0  0  0  0  0  0  0  0  0  0
  156.9023  140.0766  183.5115 C   0  0  0  0  0  0  0  0  0  0  0  0
  157.9418  139.6456  182.7566 C   0  0  0  0  0  0  0  0  0  0  0  0
  158.4801  140.3906  181.6762 C   0  0  0  0  0  0  0  0  0  0  0  0
  157.8534  143.7295  180.2588 F   0  0  0  0  0  0  0  0  0  0  0  0
  158.4198  142.4739  180.2125 C   0  0  0  0  0  0  0  0  0  0  0  0
  158.0383  141.9095  178.9831 F   0  0  0  0  0  0  0  0  0  0  0  0
  159.7752  142.6185  180.1982 F   0  0  0  0  0  0  0  0  0  0  0  0
 35 36  1  0  0  0
 36 37  1  0  0  0
 36 38  1  0  0  0
 36 29  1  0  0  0
 29 30  2  0  0  0
 30 31  1  0  0  0
 31 32  2  0  0  0
 32 27  1  0  0  0
 27  1  1  0  0  0
  1  2  2  0  0  0
  2  3  1  0  0  0
  3  4  2  0  0  0
  4  5  1  0  0  0
  5  6  1  0  0  0
  6  7  1  0  0  0
  7  8  1  0  0  0
  8  9  1  0  0  0
  9 10  1  0  0  0
 10 11  1  0  0  0
  8 12  1  0  0  0
 12 13  2  0  0  0
 13 14  1  0  0  0
 14 15  2  0  0  0
 15 16  1  0  0  0
 16 17  2  0  0  0
 17 18  1  0  0  0
 18 19  1  0  0  0
 18 20  1  0  0  0
 18 21  1  0  0  0
  3 22  1  0  0  0
 22 23  1  0  0  0
 23 24  1  0  0  0
 24 25  1  0  0  0
 25 26  1  0  0  0
 32 33  1  0  0  0
 33 34  2  0  0  0
 34 29  1  0  0  0
 11  1  1  0  0  0
 17 12  1  0  0  0
 26 22  1  0  0  0
 11  5  2  0  0  0
 27 28  1  0  0  0
M  END
> <minimizedAffinity>
-9.68123

> <CNNscore>
0.3930997252

> <CNNaffinity>
6.8337225914

> <CNN_VS>
2.6863343716

> <CNNaffinity_variance>
0.0815072507

$$$$
[H]c1nc(N2C([H])([H])C([H])([H])c3nc(N4C([H])([H])C([H])([H])C([H])([H])C4([H])[H])nc(N([H])c4c([H])c([H])c(C(F)(F)F)c([H])c4[H])c3C([H])([H])C2([H])[H])c(C(F)(F)F)c([H])c1[H]


 38 42  0  0  0  0  0  0  0  0999 V2000
  155.3920  138.9083  185.1641 C   0  0  0  0  0  0  0  0  0  0  0  0
  156.6037  139.4014  184.9939 N   0  0  0  0  0  0  0  0  0  0  0  0
  156.8983  140.2991  183.9957 C   0  0  0  0  0  0  0  0  0  0  0  0
  155.9084  140.6892  183.1621 N   0  0  0  0  0  0  0  0  0  0  0  0
  154.6274  140.2350  183.2650 C   0  0  0  0  0  0  0  0  0  0  0  0
  153.8467  140.8472  182.2001 C   0  0  0  0  0  0  0  0  0  0  0  0
  152.4773  140.3978  181.9568 C   0  0  0  0  0  0  0  0  0  0  0  0
  152.0762  139.0766  182.3130 N   0  0  0  0  0  0  0  0  0  0  0  0
  152.7440  138.0844  183.0672 C   0  0  0  0  0  0  0  0  0  0  0  0
  153.1053  138.6226  184.4806 C   0  0  0  0  0  0  0  0  0  0  0  0
  154.4045  139.3602  184.2580 C   0  0  0  0  0  0  0  0  0  0  0  0
  150.7667  138.6768  181.8908 C   0  0  0  0  0  0  0  0  0  0  0  0
  150.0295  138.0119  182.8586 N   0  0  0  0  0  0  0  0  0  0  0  0
  148.7670  137.6390  182.5887 C   0  0  0  0  0  0  0  0  0  0  0  0
  148.2089  137.9204  181.3617 C   0  0  0  0  0  0  0  0  0  0  0  0
  148.9372  138.5690  180.4228 C   0  0  0  0  0  0  0  0  0  0  0  0
  150.2767  138.9721  180.6799 C   0  0  0  0  0  0  0  0  0  0  0  0
  150.9563  139.6422  179.5646 C   0  0  0  0  0  0  0  0  0  0  0  0
  152.2289  139.1404  179.3866 F   0  0  0  0  0  0  0  0  0  0  0  0
  150.9653  141.0355  179.6099 F   0  0  0  0  0  0  0  0  0  0  0  0
  150.2913  139.3711  178.3520 F   0  0  0  0  0  0  0  0  0  0  0  0
  158.1863  140.8290  183.8264 N   0  0  0  0  0  0  0  0  0  0  0  0
  159.3598  140.8840  184.6305 C   0  0  0  0  0  0  0  0  0  0  0  0
  159.7287  142.3649  184.5601 C   0  0  0  0  0  0  0  0  0  0  0  0
  159.1904  142.8030  183.2113 C   0  0  0  0  0  0  0  0  0  0  0  0
  158.6169  141.5496  182.5889 C   0  0  0  0  0  0  0  0  0  0  0  0
  154.9174  138.1149  186.1868 N   0  0  0  0  0  0  0  0  0  0  0  0
  153.7957  138.0584  186.3174 H   0  0  0  0  0  0  0  0  0  0  0  0
  156.6954  135.6826  189.1878 C   0  0  0  0  0  0  0  0  0  0  0  0
  156.2301  135.2233  187.9665 C   0  0  0  0  0  0  0  0  0  0  0  0
  155.7158  136.0356  187.0101 C   0  0  0  0  0  0  0  0  0  0  0  0
  155.6148  137.4506  187.1952 C   0  0  0  0  0  0  0  0  0  0  0  0
  156.0763  137.9005  188.3871 C   0  0  0  0  0  0  0  0  0  0  0  0
  156.6119  137.0477  189.3860 C   0  0  0  0  0  0  0  0  0  0  0  0
  156.4023  133.5779  190.2270 F   0  0  0  0  0  0  0  0  0  0  0  0
  157.2048  134.6967  190.1651 C   0  0  0  0  0  0  0  0  0  0  0  0
  157.2175  135.2500  191.4571 F   0  0  0  0  0  0  0  0  0  0  0  0
  158.4745  134.2944  189.8751 F   0  0  0  0  0  0  0  0  0  0  0  0
 35 36  1  0  0  0
 36 37  1  0  0  0
 36 38  1  0  0  0
 36 29  1  0  0  0
 29 30  2  0  0  0
 30 31  1  0  0  0
 31 32  2  0  0  0
 32 27  1  0  0  0
 27  1  1  0  0  0
  1  2  2  0  0  0
  2  3  1  0  0  0
  3  4  2  0  0  0
  4  5  1  0  0  0
  5  6  1  0  0  0
  6  7  1  0  0  0
  7  8  1  0  0  0
  8  9  1  0  0  0
  9 10  1  0  0  0
 10 11  1  0  0  0
  8 12  1  0  0  0
 12 13  2  0  0  0
 13 14  1  0  0  0
 14 15  2  0  0  0
 15 16  1  0  0  0
 16 17  2  0  0  0
 17 18  1  0  0  0
 18 19  1  0  0  0
 18 20  1  0  0  0
 18 21  1  0  0  0
  3 22  1  0  0  0
 22 23  1  0  0  0
 23 24  1  0  0  0
 24 25  1  0  0  0
 25 26  1  0  0  0
 32 33  1  0  0  0
 33 34  2  0  0  0
 34 29  1  0  0  0
 11  1  1  0  0  0
 17 12  1  0  0  0
 26 22  1  0  0  0
 11  5  2  0  0  0
 27 28  1  0  0  0
M  END
> <minimizedAffinity>
-9.11597

> <CNNscore>
0.3740715384

> <CNNaffinity>
6.6694421768

> <CNN_VS>
2.4948484898

> <CNNaffinity_variance>
0.0882513151

$$$$
[H]c1nc(N2C([H])([H])C([H])([H])c3nc(N4C([H])([H])C([H])([H])C([H])([H])C4([H])[H])nc(N([H])c4c([H])c([H])c(C(F)(F)F)c([H])c4[H])c3C([H])([H])C2([H])[H])c(C(F)(F)F)c([H])c1[H]


 38 42  0  0  0  0  0  0  0  0999 V2000
  152.4525  137.0517  184.9665 C   0  0  0  0  0  0  0  0  0  0  0  0
  151.1859  136.6874  184.9080 N   0  0  0  0  0  0  0  0  0  0  0  0
  150.3466  137.1059  183.9033 C   0  0  0  0  0  0  0  0  0  0  0  0
  150.8405  137.9179  182.9422 N   0  0  0  0  0  0  0  0  0  0  0  0
  152.1358  138.3419  182.9205 C   0  0  0  0  0  0  0  0  0  0  0  0
  152.3051  139.2095  181.7642 C   0  0  0  0  0  0  0  0  0  0  0  0
  153.5506  139.9556  181.5956 C   0  0  0  0  0  0  0  0  0  0  0  0
  154.3447  140.3016  182.7284 N   0  0  0  0  0  0  0  0  0  0  0  0
  154.2486  139.8932  184.0786 C   0  0  0  0  0  0  0  0  0  0  0  0
  154.3240  138.3438  184.1879 C   0  0  0  0  0  0  0  0  0  0  0  0
  152.9034  137.9004  183.9288 C   0  0  0  0  0  0  0  0  0  0  0  0
  155.4588  141.1678  182.4800 C   0  0  0  0  0  0  0  0  0  0  0  0
  156.6406  140.5100  182.1751 N   0  0  0  0  0  0  0  0  0  0  0  0
  157.7366  141.2254  181.8709 C   0  0  0  0  0  0  0  0  0  0  0  0
  157.6839  142.6013  181.8572 C   0  0  0  0  0  0  0  0  0  0  0  0
  156.5256  143.2345  182.1575 C   0  0  0  0  0  0  0  0  0  0  0  0
  155.3514  142.5026  182.4866 C   0  0  0  0  0  0  0  0  0  0  0  0
  154.1752  143.3168  182.8161 C   0  0  0  0  0  0  0  0  0  0  0  0
  154.1988  144.5182  182.1385 F   0  0  0  0  0  0  0  0  0  0  0  0
  153.9331  143.5091  184.1755 F   0  0  0  0  0  0  0  0  0  0  0  0
  152.9988  142.6790  182.3741 F   0  0  0  0  0  0  0  0  0  0  0  0
  149.0033  136.7061  183.8397 N   0  0  0  0  0  0  0  0  0  0  0  0
  148.2314  135.9312  182.9284 C   0  0  0  0  0  0  0  0  0  0  0  0
  147.0272  136.8367  182.6759 C   0  0  0  0  0  0  0  0  0  0  0  0
  146.9030  137.6320  183.9617 C   0  0  0  0  0  0  0  0  0  0  0  0
  147.9871  137.0910  184.8669 C   0  0  0  0  0  0  0  0  0  0  0  0
  153.4393  136.6135  185.8238 N   0  0  0  0  0  0  0  0  0  0  0  0
  153.8459  135.5724  185.6526 H   0  0  0  0  0  0  0  0  0  0  0  0
  155.1424  137.9373  189.4885 C   0  0  0  0  0  0  0  0  0  0  0  0
  155.7021  136.9864  188.6508 C   0  0  0  0  0  0  0  0  0  0  0  0
  155.1579  136.6253  187.4624 C   0  0  0  0  0  0  0  0  0  0  0  0
  153.9454  137.2102  186.9780 C   0  0  0  0  0  0  0  0  0  0  0  0
  153.4017  138.1452  187.7942 C   0  0  0  0  0  0  0  0  0  0  0  0
  153.9727  138.5191  189.0377 C   0  0  0  0  0  0  0  0  0  0  0  0
  155.6032  137.2178  191.6943 F   0  0  0  0  0  0  0  0  0  0  0  0
  155.8104  138.2245  190.7761 C   0  0  0  0  0  0  0  0  0  0  0  0
  155.2889  139.3982  191.3469 F   0  0  0  0  0  0  0  0  0  0  0  0
  157.1547  138.3976  190.6302 F   0  0  0  0  0  0  0  0  0  0  0  0
 35 36  1  0  0  0
 36 37  1  0  0  0
 36 38  1  0  0  0
 36 29  1  0  0  0
 29 30  2  0  0  0
 30 31  1  0  0  0
 31 32  2  0  0  0
 32 27  1  0  0  0
 27  1  1  0  0  0
  1  2  2  0  0  0
  2  3  1  0  0  0
  3  4  2  0  0  0
  4  5  1  0  0  0
  5  6  1  0  0  0
  6  7  1  0  0  0
  7  8  1  0  0  0
  8  9  1  0  0  0
  9 10  1  0  0  0
 10 11  1  0  0  0
  8 12  1  0  0  0
 12 13  2  0  0  0
 13 14  1  0  0  0
 14 15  2  0  0  0
 15 16  1  0  0  0
 16 17  2  0  0  0
 17 18  1  0  0  0
 18 19  1  0  0  0
 18 20  1  0  0  0
 18 21  1  0  0  0
  3 22  1  0  0  0
 22 23  1  0  0  0
 23 24  1  0  0  0
 24 25  1  0  0  0
 25 26  1  0  0  0
 32 33  1  0  0  0
 33 34  2  0  0  0
 34 29  1  0  0  0
 11  1  1  0  0  0
 17 12  1  0  0  0
 26 22  1  0  0  0
 11  5  2  0  0  0
 27 28  1  0  0  0
M  END
> <minimizedAffinity>
-9.05738

> <CNNscore>
0.3556881845

> <CNNaffinity>
6.7573232651

> <CNN_VS>
2.4035000801

> <CNNaffinity_variance>
0.1689216644

$$$$
[H]c1nc(N2C([H])([H])C([H])([H])c3nc(N4C([H])([H])C([H])([H])C([H])([H])C4([H])[H])nc(N([H])c4c([H])c([H])c(C(F)(F)F)c([H])c4[H])c3C([H])([H])C2([H])[H])c(C(F)(F)F)c([H])c1[H]


 38 42  0  0  0  0  0  0  0  0999 V2000
  155.2035  138.7607  184.4873 C   0  0  0  0  0  0  0  0  0  0  0  0
  156.3994  139.2803  184.2865 N   0  0  0  0  0  0  0  0  0  0  0  0
  156.6146  140.3086  183.4003 C   0  0  0  0  0  0  0  0  0  0  0  0
  155.5609  140.8035  182.7136 N   0  0  0  0  0  0  0  0  0  0  0  0
  154.2905  140.3313  182.8591 C   0  0  0  0  0  0  0  0  0  0  0  0
  153.4271  141.0793  181.9571 C   0  0  0  0  0  0  0  0  0  0  0  0
  152.0399  140.6590  181.7690 C   0  0  0  0  0  0  0  0  0  0  0  0
  151.6630  139.2988  181.9720 N   0  0  0  0  0  0  0  0  0  0  0  0
  152.3860  138.2165  182.5243 C   0  0  0  0  0  0  0  0  0  0  0  0
  152.8664  138.5573  183.9634 C   0  0  0  0  0  0  0  0  0  0  0  0
  154.1464  139.3268  183.7372 C   0  0  0  0  0  0  0  0  0  0  0  0
  150.3208  138.9526  181.6090 C   0  0  0  0  0  0  0  0  0  0  0  0
  149.5397  138.5012  182.6618 N   0  0  0  0  0  0  0  0  0  0  0  0
  148.2480  138.2000  182.4456 C   0  0  0  0  0  0  0  0  0  0  0  0
  147.7041  138.3440  181.1889 C   0  0  0  0  0  0  0  0  0  0  0  0
  148.4752  138.7844  180.1671 C   0  0  0  0  0  0  0  0  0  0  0  0
  149.8460  139.1070  180.3664 C   0  0  0  0  0  0  0  0  0  0  0  0
  150.5688  139.5468  179.1668 C   0  0  0  0  0  0  0  0  0  0  0  0
  149.9016  139.1689  178.0200 F   0  0  0  0  0  0  0  0  0  0  0  0
  151.9156  139.1918  179.1070 F   0  0  0  0  0  0  0  0  0  0  0  0
  150.6116  140.9543  179.1093 F   0  0  0  0  0  0  0  0  0  0  0  0
  157.8867  140.8649  183.1992 N   0  0  0  0  0  0  0  0  0  0  0  0
  159.1830  140.3337  182.9458 C   0  0  0  0  0  0  0  0  0  0  0  0
  160.0346  141.0506  183.9920 C   0  0  0  0  0  0  0  0  0  0  0  0
  159.3094  142.3664  184.2017 C   0  0  0  0  0  0  0  0  0  0  0  0
  158.1491  142.3367  183.2319 C   0  0  0  0  0  0  0  0  0  0  0  0
  154.8116  137.8311  185.4268 N   0  0  0  0  0  0  0  0  0  0  0  0
  154.1327  136.9979  185.0757 H   0  0  0  0  0  0  0  0  0  0  0  0
  155.0999  138.2122  189.6524 C   0  0  0  0  0  0  0  0  0  0  0  0
  153.9318  138.3508  188.9208 C   0  0  0  0  0  0  0  0  0  0  0  0
  153.8658  138.1708  187.5783 C   0  0  0  0  0  0  0  0  0  0  0  0
  155.0172  137.8180  186.8060 C   0  0  0  0  0  0  0  0  0  0  0  0
  156.1584  137.6757  187.5226 C   0  0  0  0  0  0  0  0  0  0  0  0
  156.2242  137.8667  188.9267 C   0  0  0  0  0  0  0  0  0  0  0  0
  155.0149  139.8142  191.3907 F   0  0  0  0  0  0  0  0  0  0  0  0
  155.0552  138.4658  191.1085 C   0  0  0  0  0  0  0  0  0  0  0  0
  156.2120  137.9631  191.7286 F   0  0  0  0  0  0  0  0  0  0  0  0
  153.9788  137.8746  191.7002 F   0  0  0  0  0  0  0  0  0  0  0  0
 35 36  1  0  0  0
 36 37  1  0  0  0
 36 38  1  0  0  0
 36 29  1  0  0  0
 29 30  2  0  0  0
 30 31  1  0  0  0
 31 32  2  0  0  0
 32 27  1  0  0  0
 27  1  1  0  0  0
  1  2  2  0  0  0
  2  3  1  0  0  0
  3  4  2  0  0  0
  4  5  1  0  0  0
  5  6  1  0  0  0
  6  7  1  0  0  0
  7  8  1  0  0  0
  8  9  1  0  0  0
  9 10  1  0  0  0
 10 11  1  0  0  0
  8 12  1  0  0  0
 12 13  2  0  0  0
 13 14  1  0  0  0
 14 15  2  0  0  0
 15 16  1  0  0  0
 16 17  2  0  0  0
 17 18  1  0  0  0
 18 19  1  0  0  0
 18 20  1  0  0  0
 18 21  1  0  0  0
  3 22  1  0  0  0
 22 23  1  0  0  0
 23 24  1  0  0  0
 24 25  1  0  0  0
 25 26  1  0  0  0
 32 33  1  0  0  0
 33 34  2  0  0  0
 34 29  1  0  0  0
 11  1  1  0  0  0
 17 12  1  0  0  0
 26 22  1  0  0  0
 11  5  2  0  0  0
 27 28  1  0  0  0
M  END
> <minimizedAffinity>
-10.35436

> <CNNscore>
0.3390641212

> <CNNaffinity>
6.7973976135

> <CNN_VS>
2.3047535419

> <CNNaffinity_variance>
0.0618947148

$$$$
[H]c1nc(N2C([H])([H])C([H])([H])c3nc(N4C([H])([H])C([H])([H])C([H])([H])C4([H])[H])nc(N([H])c4c([H])c([H])c(C(F)(F)F)c([H])c4[H])c3C([H])([H])C2([H])[H])c(C(F)(F)F)c([H])c1[H]


 38 42  0  0  0  0  0  0  0  0999 V2000
  154.0408  139.4600  184.3450 C   0  0  0  0  0  0  0  0  0  0  0  0
  154.6449  138.8843  185.3668 N   0  0  0  0  0  0  0  0  0  0  0  0
  154.6419  137.5222  185.5500 C   0  0  0  0  0  0  0  0  0  0  0  0
  153.9977  136.7484  184.6484 N   0  0  0  0  0  0  0  0  0  0  0  0
  153.3498  137.2554  183.5615 C   0  0  0  0  0  0  0  0  0  0  0  0
  152.7604  136.1433  182.8306 C   0  0  0  0  0  0  0  0  0  0  0  0
  151.8495  136.4098  181.7190 C   0  0  0  0  0  0  0  0  0  0  0  0
  151.1026  137.6236  181.6718 N   0  0  0  0  0  0  0  0  0  0  0  0
  151.1949  138.7919  182.4627 C   0  0  0  0  0  0  0  0  0  0  0  0
  152.6317  139.3832  182.3990 C   0  0  0  0  0  0  0  0  0  0  0  0
  153.3877  138.5913  183.4397 C   0  0  0  0  0  0  0  0  0  0  0  0
  150.1211  137.7231  180.6326 C   0  0  0  0  0  0  0  0  0  0  0  0
  149.1154  136.7712  180.6997 N   0  0  0  0  0  0  0  0  0  0  0  0
  148.1120  136.8046  179.8065 C   0  0  0  0  0  0  0  0  0  0  0  0
  148.0812  137.7805  178.8355 C   0  0  0  0  0  0  0  0  0  0  0  0
  149.0685  138.7049  178.7775 C   0  0  0  0  0  0  0  0  0  0  0  0
  150.1443  138.6913  179.7076 C   0  0  0  0  0  0  0  0  0  0  0  0
  151.1575  139.7353  179.5117 C   0  0  0  0  0  0  0  0  0  0  0  0
  152.4200  139.1881  179.4133 F   0  0  0  0  0  0  0  0  0  0  0  0
  151.1324  140.7837  180.4303 F   0  0  0  0  0  0  0  0  0  0  0  0
  150.9538  140.3905  178.2808 F   0  0  0  0  0  0  0  0  0  0  0  0
  155.2958  136.9145  186.6324 N   0  0  0  0  0  0  0  0  0  0  0  0
  155.3427  135.5930  187.1598 C   0  0  0  0  0  0  0  0  0  0  0  0
  155.0529  135.8275  188.6413 C   0  0  0  0  0  0  0  0  0  0  0  0
  155.5829  137.2266  188.8915 C   0  0  0  0  0  0  0  0  0  0  0  0
  156.1845  137.6624  187.5741 C   0  0  0  0  0  0  0  0  0  0  0  0
  154.0688  140.7827  183.9576 N   0  0  0  0  0  0  0  0  0  0  0  0
  153.1098  141.3720  184.0658 H   0  0  0  0  0  0  0  0  0  0  0  0
  157.4936  142.6722  182.2891 C   0  0  0  0  0  0  0  0  0  0  0  0
  157.3748  141.3130  182.5292 C   0  0  0  0  0  0  0  0  0  0  0  0
  156.2475  140.7362  183.0142 C   0  0  0  0  0  0  0  0  0  0  0  0
  155.0779  141.5020  183.3182 C   0  0  0  0  0  0  0  0  0  0  0  0
  155.1919  142.8305  183.0769 C   0  0  0  0  0  0  0  0  0  0  0  0
  156.3734  143.4308  182.5713 C   0  0  0  0  0  0  0  0  0  0  0  0
  159.5330  142.2021  181.1867 F   0  0  0  0  0  0  0  0  0  0  0  0
  158.7853  143.1905  181.7896 C   0  0  0  0  0  0  0  0  0  0  0  0
  159.5598  143.6829  182.8541 F   0  0  0  0  0  0  0  0  0  0  0  0
  158.6202  144.2053  180.8945 F   0  0  0  0  0  0  0  0  0  0  0  0
 35 36  1  0  0  0
 36 37  1  0  0  0
 36 38  1  0  0  0
 36 29  1  0  0  0
 29 30  2  0  0  0
 30 31  1  0  0  0
 31 32  2  0  0  0
 32 27  1  0  0  0
 27  1  1  0  0  0
  1  2  2  0  0  0
  2  3  1  0  0  0
  3  4  2  0  0  0
  4  5  1  0  0  0
  5  6  1  0  0  0
  6  7  1  0  0  0
  7  8  1  0  0  0
  8  9  1  0  0  0
  9 10  1  0  0  0
 10 11  1  0  0  0
  8 12  1  0  0  0
 12 13  2  0  0  0
 13 14  1  0  0  0
 14 15  2  0  0  0
 15 16  1  0  0  0
 16 17  2  0  0  0
 17 18  1  0  0  0
 18 19  1  0  0  0
 18 20  1  0  0  0
 18 21  1  0  0  0
  3 22  1  0  0  0
 22 23  1  0  0  0
 23 24  1  0  0  0
 24 25  1  0  0  0
 25 26  1  0  0  0
 32 33  1  0  0  0
 33 34  2  0  0  0
 34 29  1  0  0  0
 11  1  1  0  0  0
 17 12  1  0  0  0
 26 22  1  0  0  0
 11  5  2  0  0  0
 27 28  1  0  0  0
M  END
> <minimizedAffinity>
-9.33002

> <CNNscore>
0.3345450163

> <CNNaffinity>
6.8217668533

> <CNN_VS>
2.2821881771

> <CNNaffinity_variance>
0.1231931075

$$$$
[H]c1nc(N2C([H])([H])C([H])([H])c3nc(N4C([H])([H])C([H])([H])C([H])([H])C4([H])[H])nc(N([H])c4c([H])c([H])c(C(F)(F)F)c([H])c4[H])c3C([H])([H])C2([H])[H])c(C(F)(F)F)c([H])c1[H]


 38 42  0  0  0  0  0  0  0  0999 V2000
  155.3898  138.9033  184.4248 C   0  0  0  0  0  0  0  0  0  0  0  0
  156.5768  139.4108  184.1528 N   0  0  0  0  0  0  0  0  0  0  0  0
  156.7578  140.3899  183.2054 C   0  0  0  0  0  0  0  0  0  0  0  0
  155.6790  140.8477  182.5321 N   0  0  0  0  0  0  0  0  0  0  0  0
  154.4155  140.3846  182.7491 C   0  0  0  0  0  0  0  0  0  0  0  0
  153.5186  141.0834  181.8405 C   0  0  0  0  0  0  0  0  0  0  0  0
  152.1261  140.6543  181.7260 C   0  0  0  0  0  0  0  0  0  0  0  0
  151.7589  139.3072  182.0155 N   0  0  0  0  0  0  0  0  0  0  0  0
  152.5032  138.2557  182.5982 C   0  0  0  0  0  0  0  0  0  0  0  0
  153.0354  138.6732  183.9984 C   0  0  0  0  0  0  0  0  0  0  0  0
  154.3051  139.4288  183.6846 C   0  0  0  0  0  0  0  0  0  0  0  0
  150.4048  138.9426  181.7209 C   0  0  0  0  0  0  0  0  0  0  0  0
  149.6825  138.4868  182.8130 N   0  0  0  0  0  0  0  0  0  0  0  0
  148.3857  138.1685  182.6625 C   0  0  0  0  0  0  0  0  0  0  0  0
  147.7784  138.2996  181.4336 C   0  0  0  0  0  0  0  0  0  0  0  0
  148.4924  138.7444  180.3729 C   0  0  0  0  0  0  0  0  0  0  0  0
  149.8672  139.0850  180.5027 C   0  0  0  0  0  0  0  0  0  0  0  0
  150.5242  139.5277  179.2668 C   0  0  0  0  0  0  0  0  0  0  0  0
  149.7808  139.1790  178.1583 F   0  0  0  0  0  0  0  0  0  0  0  0
  151.8575  139.1477  179.1200 F   0  0  0  0  0  0  0  0  0  0  0  0
  150.5917  140.9348  179.2251 F   0  0  0  0  0  0  0  0  0  0  0  0
  158.0210  140.9340  182.9283 N   0  0  0  0  0  0  0  0  0  0  0  0
  158.8967  141.8281  183.6069 C   0  0  0  0  0  0  0  0  0  0  0  0
  159.2258  142.8458  182.5160 C   0  0  0  0  0  0  0  0  0  0  0  0
  159.1047  142.0454  181.2331 C   0  0  0  0  0  0  0  0  0  0  0  0
  158.7819  140.6358  181.6760 C   0  0  0  0  0  0  0  0  0  0  0  0
  155.0338  138.0258  185.4267 N   0  0  0  0  0  0  0  0  0  0  0  0
  154.6984  136.9928  185.1120 H   0  0  0  0  0  0  0  0  0  0  0  0
  154.9670  138.3021  189.6696 C   0  0  0  0  0  0  0  0  0  0  0  0
  156.1038  138.0956  188.9054 C   0  0  0  0  0  0  0  0  0  0  0  0
  156.0968  138.0650  187.5497 C   0  0  0  0  0  0  0  0  0  0  0  0
  154.8943  138.2473  186.7963 C   0  0  0  0  0  0  0  0  0  0  0  0
  153.7835  138.4561  187.5437 C   0  0  0  0  0  0  0  0  0  0  0  0
  153.7943  138.4856  188.9618 C   0  0  0  0  0  0  0  0  0  0  0  0
  154.1218  137.4994  191.7280 F   0  0  0  0  0  0  0  0  0  0  0  0
  155.0935  138.2822  191.1428 C   0  0  0  0  0  0  0  0  0  0  0  0
  154.9308  139.5768  191.6655 F   0  0  0  0  0  0  0  0  0  0  0  0
  156.3114  137.8230  191.5478 F   0  0  0  0  0  0  0  0  0  0  0  0
 35 36  1  0  0  0
 36 37  1  0  0  0
 36 38  1  0  0  0
 36 29  1  0  0  0
 29 30  2  0  0  0
 30 31  1  0  0  0
 31 32  2  0  0  0
 32 27  1  0  0  0
 27  1  1  0  0  0
  1  2  2  0  0  0
  2  3  1  0  0  0
  3  4  2  0  0  0
  4  5  1  0  0  0
  5  6  1  0  0  0
  6  7  1  0  0  0
  7  8  1  0  0  0
  8  9  1  0  0  0
  9 10  1  0  0  0
 10 11  1  0  0  0
  8 12  1  0  0  0
 12 13  2  0  0  0
 13 14  1  0  0  0
 14 15  2  0  0  0
 15 16  1  0  0  0
 16 17  2  0  0  0
 17 18  1  0  0  0
 18 19  1  0  0  0
 18 20  1  0  0  0
 18 21  1  0  0  0
  3 22  1  0  0  0
 22 23  1  0  0  0
 23 24  1  0  0  0
 24 25  1  0  0  0
 25 26  1  0  0  0
 32 33  1  0  0  0
 33 34  2  0  0  0
 34 29  1  0  0  0
 11  1  1  0  0  0
 17 12  1  0  0  0
 26 22  1  0  0  0
 11  5  2  0  0  0
 27 28  1  0  0  0
M  END
> <minimizedAffinity>
-10.64993

> <CNNscore>
0.3158906400

> <CNNaffinity>
6.8435554504

> <CNN_VS>
2.1618151665

> <CNNaffinity_variance>
0.0945813879

$$$$
[H]c1nc(N2C([H])([H])C([H])([H])c3nc(N4C([H])([H])C([H])([H])C([H])([H])C4([H])[H])nc(N([H])c4c([H])c([H])c(C(F)(F)F)c([H])c4[H])c3C([H])([H])C2([H])[H])c(C(F)(F)F)c([H])c1[H]


 38 42  0  0  0  0  0  0  0  0999 V2000
  153.0955  139.2436  182.5666 C   0  0  0  0  0  0  0  0  0  0  0  0
  152.8138  138.0196  182.9702 N   0  0  0  0  0  0  0  0  0  0  0  0
  153.5713  137.3633  183.9107 C   0  0  0  0  0  0  0  0  0  0  0  0
  154.6407  137.9985  184.4397 N   0  0  0  0  0  0  0  0  0  0  0  0
  155.0045  139.2635  184.0852 C   0  0  0  0  0  0  0  0  0  0  0  0
  156.2023  139.6130  184.8346 C   0  0  0  0  0  0  0  0  0  0  0  0
  156.9201  140.8461  184.5173 C   0  0  0  0  0  0  0  0  0  0  0  0
  156.8415  141.4123  183.2109 N   0  0  0  0  0  0  0  0  0  0  0  0
  156.0091  141.0862  182.1154 C   0  0  0  0  0  0  0  0  0  0  0  0
  154.5106  141.1860  182.5186 C   0  0  0  0  0  0  0  0  0  0  0  0
  154.2265  139.8492  183.1620 C   0  0  0  0  0  0  0  0  0  0  0  0
  157.7034  142.5270  182.9509 C   0  0  0  0  0  0  0  0  0  0  0  0
  157.0448  143.6839  182.5637 N   0  0  0  0  0  0  0  0  0  0  0  0
  157.7511  144.8064  182.3468 C   0  0  0  0  0  0  0  0  0  0  0  0
  159.1179  144.8078  182.5132 C   0  0  0  0  0  0  0  0  0  0  0  0
  159.7521  143.6727  182.8904 C   0  0  0  0  0  0  0  0  0  0  0  0
  159.0303  142.4697  183.1232 C   0  0  0  0  0  0  0  0  0  0  0  0
  159.8471  141.3099  183.5010 C   0  0  0  0  0  0  0  0  0  0  0  0
  159.5300  140.2092  182.7323 F   0  0  0  0  0  0  0  0  0  0  0  0
  159.8560  140.9916  184.8582 F   0  0  0  0  0  0  0  0  0  0  0  0
  161.2070  141.5587  183.2272 F   0  0  0  0  0  0  0  0  0  0  0  0
  153.2605  136.0658  184.3446 N   0  0  0  0  0  0  0  0  0  0  0  0
  153.2277  134.7842  183.7256 C   0  0  0  0  0  0  0  0  0  0  0  0
  151.8464  134.2690  184.1261 C   0  0  0  0  0  0  0  0  0  0  0  0
  151.5800  134.9556  185.4523 C   0  0  0  0  0  0  0  0  0  0  0  0
  152.8321  135.7528  185.7426 C   0  0  0  0  0  0  0  0  0  0  0  0
  152.3637  140.0719  181.7426 N   0  0  0  0  0  0  0  0  0  0  0  0
  152.5258  141.1853  181.8553 H   0  0  0  0  0  0  0  0  0  0  0  0
  149.1608  138.6704  179.3217 C   0  0  0  0  0  0  0  0  0  0  0  0
  149.2161  138.5680  180.7021 C   0  0  0  0  0  0  0  0  0  0  0  0
  150.2296  139.0731  181.4483 C   0  0  0  0  0  0  0  0  0  0  0  0
  151.3346  139.7610  180.8545 C   0  0  0  0  0  0  0  0  0  0  0  0
  151.2769  139.8672  179.5049 C   0  0  0  0  0  0  0  0  0  0  0  0
  150.2162  139.3359  178.7273 C   0  0  0  0  0  0  0  0  0  0  0  0
  146.8124  138.5252  179.0778 F   0  0  0  0  0  0  0  0  0  0  0  0
  148.0202  138.0511  178.6131 C   0  0  0  0  0  0  0  0  0  0  0  0
  148.0101  136.6613  178.8226 F   0  0  0  0  0  0  0  0  0  0  0  0
  148.0729  138.2661  177.2680 F   0  0  0  0  0  0  0  0  0  0  0  0
 35 36  1  0  0  0
 36 37  1  0  0  0
 36 38  1  0  0  0
 36 29  1  0  0  0
 29 30  2  0  0  0
 30 31  1  0  0  0
 31 32  2  0  0  0
 32 27  1  0  0  0
 27  1  1  0  0  0
  1  2  2  0  0  0
  2  3  1  0  0  0
  3  4  2  0  0  0
  4  5  1  0  0  0
  5  6  1  0  0  0
  6  7  1  0  0  0
  7  8  1  0  0  0
  8  9  1  0  0  0
  9 10  1  0  0  0
 10 11  1  0  0  0
  8 12  1  0  0  0
 12 13  2  0  0  0
 13 14  1  0  0  0
 14 15  2  0  0  0
 15 16  1  0  0  0
 16 17  2  0  0  0
 17 18  1  0  0  0
 18 19  1  0  0  0
 18 20  1  0  0  0
 18 21  1  0  0  0
  3 22  1  0  0  0
 22 23  1  0  0  0
 23 24  1  0  0  0
 24 25  1  0  0  0
 25 26  1  0  0  0
 32 33  1  0  0  0
 33 34  2  0  0  0
 34 29  1  0  0  0
 11  1  1  0  0  0
 17 12  1  0  0  0
 26 22  1  0  0  0
 11  5  2  0  0  0
 27 28  1  0  0  0
M  END
> <minimizedAffinity>
-9.59919

> <CNNscore>
0.3122031987

> <CNNaffinity>
6.8517446518

> <CNN_VS>
2.1391365528

> <CNNaffinity_variance>
0.1583532244

$$$$
[H]c1nc(N2C([H])([H])C([H])([H])c3nc(N4C([H])([H])C([H])([H])C([H])([H])C([H])([H])C4([H])[H])nc(N([H])c4c([H])c([H])c(C(C([H])([H])[H])(C([H])([H])[H])C([H])([H])[H])c([H])c4[H])c3C([H])([H])C2([H])[H])c(C(F)(F)F)c([H])c1[H]


 39 43  0  0  0  0  0  0  0  0999 V2000
  154.1367  138.7046  183.9343 C   0  0  0  0  0  0  0  0  0  0  0  0
  155.1602  139.5446  183.8670 N   0  0  0  0  0  0  0  0  0  0  0  0
  155.2577  140.5821  182.9858 C   0  0  0  0  0  0  0  0  0  0  0  0
  154.2194  140.7061  182.1624 N   0  0  0  0  0  0  0  0  0  0  0  0
  153.1128  139.9301  182.1134 C   0  0  0  0  0  0  0  0  0  0  0  0
  152.2340  140.4803  181.0838 C   0  0  0  0  0  0  0  0  0  0  0  0
  151.2911  139.5795  180.3836 C   0  0  0  0  0  0  0  0  0  0  0  0
  150.7918  138.5143  181.2425 N   0  0  0  0  0  0  0  0  0  0  0  0
  151.5676  137.4260  181.7816 C   0  0  0  0  0  0  0  0  0  0  0  0
  152.0612  137.8415  183.1743 C   0  0  0  0  0  0  0  0  0  0  0  0
  153.0769  138.8949  183.0305 C   0  0  0  0  0  0  0  0  0  0  0  0
  149.4278  138.4974  181.6177 C   0  0  0  0  0  0  0  0  0  0  0  0
  149.0974  139.0621  182.8217 N   0  0  0  0  0  0  0  0  0  0  0  0
  147.8447  139.1288  183.2767 C   0  0  0  0  0  0  0  0  0  0  0  0
  146.8331  138.6069  182.5033 C   0  0  0  0  0  0  0  0  0  0  0  0
  147.1493  138.0370  181.2947 C   0  0  0  0  0  0  0  0  0  0  0  0
  148.4626  137.9600  180.8052 C   0  0  0  0  0  0  0  0  0  0  0  0
  148.6705  137.3124  179.5133 C   0  0  0  0  0  0  0  0  0  0  0  0
  149.1439  138.1225  178.5063 F   0  0  0  0  0  0  0  0  0  0  0  0
  147.4210  136.8697  179.0388 F   0  0  0  0  0  0  0  0  0  0  0  0
  149.4174  136.1330  179.5941 F   0  0  0  0  0  0  0  0  0  0  0  0
  156.3618  141.4703  182.9508 N   0  0  0  0  0  0  0  0  0  0  0  0
  157.6797  140.8831  182.9786 C   0  0  0  0  0  0  0  0  0  0  0  0
  158.7353  141.7366  182.3446 C   0  0  0  0  0  0  0  0  0  0  0  0
  158.5048  143.1981  182.4556 C   0  0  0  0  0  0  0  0  0  0  0  0
  157.1364  143.5517  181.9414 C   0  0  0  0  0  0  0  0  0  0  0  0
  156.1234  142.8910  182.8656 C   0  0  0  0  0  0  0  0  0  0  0  0
  154.0157  137.7482  184.9468 N   0  0  0  0  0  0  0  0  0  0  0  0
  153.5121  136.8408  184.6542 H   0  0  0  0  0  0  0  0  0  0  0  0
  154.8698  137.9864  189.0877 C   0  0  0  0  0  0  0  0  0  0  0  0
  155.8804  137.7737  188.2007 C   0  0  0  0  0  0  0  0  0  0  0  0
  155.6532  137.6987  186.8163 C   0  0  0  0  0  0  0  0  0  0  0  0
  154.4031  137.8374  186.3015 C   0  0  0  0  0  0  0  0  0  0  0  0
  153.3803  138.0578  187.2396 C   0  0  0  0  0  0  0  0  0  0  0  0
  153.5957  138.1306  188.5842 C   0  0  0  0  0  0  0  0  0  0  0  0
  154.4144  136.8812  191.2405 C   0  0  0  0  0  0  0  0  0  0  0  0
  155.1314  138.0181  190.5425 C   0  0  0  0  0  0  0  0  0  0  0  0
  154.6945  139.3161  191.1178 C   0  0  0  0  0  0  0  0  0  0  0  0
  156.6108  137.8278  190.8380 C   0  0  0  0  0  0  0  0  0  0  0  0
 36 37  1  0  0  0
 37 38  1  0  0  0
 37 39  1  0  0  0
 37 30  1  0  0  0
 30 31  2  0  0  0
 31 32  1  0  0  0
 32 33  2  0  0  0
 33 28  1  0  0  0
 28  1  1  0  0  0
  1  2  2  0  0  0
  2  3  1  0  0  0
  3  4  2  0  0  0
  4  5  1  0  0  0
  5  6  1  0  0  0
  6  7  1  0  0  0
  7  8  1  0  0  0
  8  9  1  0  0  0
  9 10  1  0  0  0
 10 11  1  0  0  0
  8 12  1  0  0  0
 12 13  2  0  0  0
 13 14  1  0  0  0
 14 15  2  0  0  0
 15 16  1  0  0  0
 16 17  2  0  0  0
 17 18  1  0  0  0
 18 19  1  0  0  0
 18 20  1  0  0  0
 18 21  1  0  0  0
  3 22  1  0  0  0
 22 23  1  0  0  0
 23 24  1  0  0  0
 24 25  1  0  0  0
 25 26  1  0  0  0
 26 27  1  0  0  0
 33 34  1  0  0  0
 34 35  2  0  0  0
 35 30  1  0  0  0
 11  1  1  0  0  0
 17 12  1  0  0  0
 27 22  1  0  0  0
 11  5  2  0  0  0
 28 29  1  0  0  0
M  END
> <minimizedAffinity>
-9.95990

> <CNNscore>
0.6353432536

> <CNNaffinity>
7.2213783264

> <CNN_VS>
4.5880541801

> <CNNaffinity_variance>
0.0167571846

$$$$
[H]c1nc(N2C([H])([H])C([H])([H])c3nc(N4C([H])([H])C([H])([H])C([H])([H])C([H])([H])C4([H])[H])nc(N([H])c4c([H])c([H])c(C(C([H])([H])[H])(C([H])([H])[H])C([H])([H])[H])c([H])c4[H])c3C([H])([H])C2([H])[H])c(C(F)(F)F)c([H])c1[H]


 39 43  0  0  0  0  0  0  0  0999 V2000
  154.2683  139.7867  183.0834 C   0  0  0  0  0  0  0  0  0  0  0  0
  153.6654  138.9940  183.9586 N   0  0  0  0  0  0  0  0  0  0  0  0
  154.2117  138.5819  185.1393 C   0  0  0  0  0  0  0  0  0  0  0  0
  155.4387  139.0429  185.3702 N   0  0  0  0  0  0  0  0  0  0  0  0
  156.1747  139.8529  184.5758 C   0  0  0  0  0  0  0  0  0  0  0  0
  157.4323  140.1252  185.2683 C   0  0  0  0  0  0  0  0  0  0  0  0
  158.6400  140.4412  184.4729 C   0  0  0  0  0  0  0  0  0  0  0  0
  158.3313  141.1770  183.2544 N   0  0  0  0  0  0  0  0  0  0  0  0
  157.6086  140.6675  182.1163 C   0  0  0  0  0  0  0  0  0  0  0  0
  156.1283  141.0312  182.2948 C   0  0  0  0  0  0  0  0  0  0  0  0
  155.5652  140.2321  183.3930 C   0  0  0  0  0  0  0  0  0  0  0  0
  158.7521  142.5212  183.1214 C   0  0  0  0  0  0  0  0  0  0  0  0
  157.9786  143.3515  182.3532 N   0  0  0  0  0  0  0  0  0  0  0  0
  158.2563  144.6438  182.1693 C   0  0  0  0  0  0  0  0  0  0  0  0
  159.3716  145.1721  182.7783 C   0  0  0  0  0  0  0  0  0  0  0  0
  160.1566  144.3517  183.5505 C   0  0  0  0  0  0  0  0  0  0  0  0
  159.8759  142.9912  183.7513 C   0  0  0  0  0  0  0  0  0  0  0  0
  160.7990  142.2208  184.5795 C   0  0  0  0  0  0  0  0  0  0  0  0
  160.3338  141.8678  185.8259 F   0  0  0  0  0  0  0  0  0  0  0  0
  161.9229  143.0253  184.8478 F   0  0  0  0  0  0  0  0  0  0  0  0
  161.3476  141.1148  183.9228 F   0  0  0  0  0  0  0  0  0  0  0  0
  153.5322  137.7442  186.0591 N   0  0  0  0  0  0  0  0  0  0  0  0
  154.0661  137.6673  187.3975 C   0  0  0  0  0  0  0  0  0  0  0  0
  153.0461  137.3120  188.4357 C   0  0  0  0  0  0  0  0  0  0  0  0
  151.9492  136.4350  187.9571 C   0  0  0  0  0  0  0  0  0  0  0  0
  151.3007  137.0282  186.7366 C   0  0  0  0  0  0  0  0  0  0  0  0
  152.3473  137.0402  185.6315 C   0  0  0  0  0  0  0  0  0  0  0  0
  153.6145  140.2974  181.9583 N   0  0  0  0  0  0  0  0  0  0  0  0
  154.0151  141.2263  181.5849 H   0  0  0  0  0  0  0  0  0  0  0  0
  150.0636  138.7469  180.2494 C   0  0  0  0  0  0  0  0  0  0  0  0
  150.9457  139.4309  179.4699 C   0  0  0  0  0  0  0  0  0  0  0  0
  152.1436  139.9550  179.9839 C   0  0  0  0  0  0  0  0  0  0  0  0
  152.4737  139.7982  181.2929 C   0  0  0  0  0  0  0  0  0  0  0  0
  151.5462  139.0869  182.0730 C   0  0  0  0  0  0  0  0  0  0  0  0
  150.3820  138.5770  181.5788 C   0  0  0  0  0  0  0  0  0  0  0  0
  148.7027  138.5357  178.2082 C   0  0  0  0  0  0  0  0  0  0  0  0
  148.7903  138.2433  179.6916 C   0  0  0  0  0  0  0  0  0  0  0  0
  147.6376  138.8627  180.3946 C   0  0  0  0  0  0  0  0  0  0  0  0
  148.6904  136.7324  179.8300 C   0  0  0  0  0  0  0  0  0  0  0  0
 36 37  1  0  0  0
 37 38  1  0  0  0
 37 39  1  0  0  0
 37 30  1  0  0  0
 30 31  2  0  0  0
 31 32  1  0  0  0
 32 33  2  0  0  0
 33 28  1  0  0  0
 28  1  1  0  0  0
  1  2  2  0  0  0
  2  3  1  0  0  0
  3  4  2  0  0  0
  4  5  1  0  0  0
  5  6  1  0  0  0
  6  7  1  0  0  0
  7  8  1  0  0  0
  8  9  1  0  0  0
  9 10  1  0  0  0
 10 11  1  0  0  0
  8 12  1  0  0  0
 12 13  2  0  0  0
 13 14  1  0  0  0
 14 15  2  0  0  0
 15 16  1  0  0  0
 16 17  2  0  0  0
 17 18  1  0  0  0
 18 19  1  0  0  0
 18 20  1  0  0  0
 18 21  1  0  0  0
  3 22  1  0  0  0
 22 23  1  0  0  0
 23 24  1  0  0  0
 24 25  1  0  0  0
 25 26  1  0  0  0
 26 27  1  0  0  0
 33 34  1  0  0  0
 34 35  2  0  0  0
 35 30  1  0  0  0
 11  1  1  0  0  0
 17 12  1  0  0  0
 27 22  1  0  0  0
 11  5  2  0  0  0
 28 29  1  0  0  0
M  END
> <minimizedAffinity>
-11.15935

> <CNNscore>
0.4773604572

> <CNNaffinity>
7.4103484154

> <CNN_VS>
3.5374073982

> <CNNaffinity_variance>
0.0805386230

$$$$
[H]c1nc(N2C([H])([H])C([H])([H])c3nc(N4C([H])([H])C([H])([H])C([H])([H])C([H])([H])C4([H])[H])nc(N([H])c4c([H])c([H])c(C(C([H])([H])[H])(C([H])([H])[H])C([H])([H])[H])c([H])c4[H])c3C([H])([H])C2([H])[H])c(C(F)(F)F)c([H])c1[H]


 39 43  0  0  0  0  0  0  0  0999 V2000
  154.1149  137.0983  184.6804 C   0  0  0  0  0  0  0  0  0  0  0  0
  154.0801  136.3176  183.6093 N   0  0  0  0  0  0  0  0  0  0  0  0
  154.2391  134.9623  183.6297 C   0  0  0  0  0  0  0  0  0  0  0  0
  154.4397  134.4485  184.8410 N   0  0  0  0  0  0  0  0  0  0  0  0
  154.5004  135.1151  186.0162 C   0  0  0  0  0  0  0  0  0  0  0  0
  154.6886  134.1257  187.0748 C   0  0  0  0  0  0  0  0  0  0  0  0
  155.3745  134.5272  188.3236 C   0  0  0  0  0  0  0  0  0  0  0  0
  155.1056  135.9110  188.6902 N   0  0  0  0  0  0  0  0  0  0  0  0
  155.5450  137.0795  187.9702 C   0  0  0  0  0  0  0  0  0  0  0  0
  154.4268  137.4857  187.0004 C   0  0  0  0  0  0  0  0  0  0  0  0
  154.3344  136.4857  185.9265 C   0  0  0  0  0  0  0  0  0  0  0  0
  154.3447  136.1942  189.8488 C   0  0  0  0  0  0  0  0  0  0  0  0
  152.9803  136.2024  189.7214 N   0  0  0  0  0  0  0  0  0  0  0  0
  152.1538  136.4331  190.7434 C   0  0  0  0  0  0  0  0  0  0  0  0
  152.6928  136.6748  191.9863 C   0  0  0  0  0  0  0  0  0  0  0  0
  154.0585  136.6705  192.1289 C   0  0  0  0  0  0  0  0  0  0  0  0
  154.9386  136.4299  191.0623 C   0  0  0  0  0  0  0  0  0  0  0  0
  156.3714  136.4711  191.3395 C   0  0  0  0  0  0  0  0  0  0  0  0
  156.7274  136.3943  192.6668 F   0  0  0  0  0  0  0  0  0  0  0  0
  156.8623  137.7238  190.9245 F   0  0  0  0  0  0  0  0  0  0  0  0
  157.1142  135.5675  190.5732 F   0  0  0  0  0  0  0  0  0  0  0  0
  154.1822  134.1560  182.4653 N   0  0  0  0  0  0  0  0  0  0  0  0
  152.8781  133.7121  182.0355 C   0  0  0  0  0  0  0  0  0  0  0  0
  152.7907  133.4250  180.5677 C   0  0  0  0  0  0  0  0  0  0  0  0
  154.0489  132.9350  179.9526 C   0  0  0  0  0  0  0  0  0  0  0  0
  155.1809  133.8773  180.2571 C   0  0  0  0  0  0  0  0  0  0  0  0
  155.4030  133.8426  181.7625 C   0  0  0  0  0  0  0  0  0  0  0  0
  153.8034  138.4601  184.6272 N   0  0  0  0  0  0  0  0  0  0  0  0
  152.8617  138.7269  185.0797 H   0  0  0  0  0  0  0  0  0  0  0  0
  156.2141  141.4850  182.9035 C   0  0  0  0  0  0  0  0  0  0  0  0
  154.9319  141.3185  182.4775 C   0  0  0  0  0  0  0  0  0  0  0  0
  154.0863  140.3388  183.0242 C   0  0  0  0  0  0  0  0  0  0  0  0
  154.5185  139.5098  184.0107 C   0  0  0  0  0  0  0  0  0  0  0  0
  155.8448  139.7055  184.4319 C   0  0  0  0  0  0  0  0  0  0  0  0
  156.6694  140.6545  183.9038 C   0  0  0  0  0  0  0  0  0  0  0  0
  158.3602  142.6772  183.0933 C   0  0  0  0  0  0  0  0  0  0  0  0
  157.0953  142.4958  182.2805 C   0  0  0  0  0  0  0  0  0  0  0  0
  156.3856  143.7950  182.1588 C   0  0  0  0  0  0  0  0  0  0  0  0
  157.5435  142.0542  180.8963 C   0  0  0  0  0  0  0  0  0  0  0  0
 36 37  1  0  0  0
 37 38  1  0  0  0
 37 39  1  0  0  0
 37 30  1  0  0  0
 30 31  2  0  0  0
 31 32  1  0  0  0
 32 33  2  0  0  0
 33 28  1  0  0  0
 28  1  1  0  0  0
  1  2  2  0  0  0
  2  3  1  0  0  0
  3  4  2  0  0  0
  4  5  1  0  0  0
  5  6  1  0  0  0
  6  7  1  0  0  0
  7  8  1  0  0  0
  8  9  1  0  0  0
  9 10  1  0  0  0
 10 11  1  0  0  0
  8 12  1  0  0  0
 12 13  2  0  0  0
 13 14  1  0  0  0
 14 15  2  0  0  0
 15 16  1  0  0  0
 16 17  2  0  0  0
 17 18  1  0  0  0
 18 19  1  0  0  0
 18 20  1  0  0  0
 18 21  1  0  0  0
  3 22  1  0  0  0
 22 23  1  0  0  0
 23 24  1  0  0  0
 24 25  1  0  0  0
 25 26  1  0  0  0
 26 27  1  0  0  0
 33 34  1  0  0  0
 34 35  2  0  0  0
 35 30  1  0  0  0
 11  1  1  0  0  0
 17 12  1  0  0  0
 27 22  1  0  0  0
 11  5  2  0  0  0
 28 29  1  0  0  0
M  END
> <minimizedAffinity>
-8.61245

> <CNNscore>
0.4605026543

> <CNNaffinity>
7.0292434692

> <CNN_VS>
3.2369852066

> <CNNaffinity_variance>
0.0850810781

$$$$
[H]c1nc(N2C([H])([H])C([H])([H])c3nc(N4C([H])([H])C([H])([H])C([H])([H])C([H])([H])C4([H])[H])nc(N([H])c4c([H])c([H])c(C(C([H])([H])[H])(C([H])([H])[H])C([H])([H])[H])c([H])c4[H])c3C([H])([H])C2([H])[H])c(C(F)(F)F)c([H])c1[H]


 39 43  0  0  0  0  0  0  0  0999 V2000
  154.3189  138.8969  184.4999 C   0  0  0  0  0  0  0  0  0  0  0  0
  153.4918  138.9178  183.4639 N   0  0  0  0  0  0  0  0  0  0  0  0
  152.4441  138.0610  183.2883 C   0  0  0  0  0  0  0  0  0  0  0  0
  152.2955  137.1646  184.2608 N   0  0  0  0  0  0  0  0  0  0  0  0
  153.0559  137.0225  185.3701 C   0  0  0  0  0  0  0  0  0  0  0  0
  152.4804  135.9383  186.1629 C   0  0  0  0  0  0  0  0  0  0  0  0
  153.3593  135.1572  187.0620 C   0  0  0  0  0  0  0  0  0  0  0  0
  154.4290  135.9614  187.6370 N   0  0  0  0  0  0  0  0  0  0  0  0
  155.5346  136.5412  186.9169 C   0  0  0  0  0  0  0  0  0  0  0  0
  155.1442  137.9724  186.5234 C   0  0  0  0  0  0  0  0  0  0  0  0
  154.1026  137.9196  185.4870 C   0  0  0  0  0  0  0  0  0  0  0  0
  154.4328  136.2339  189.0253 C   0  0  0  0  0  0  0  0  0  0  0  0
  153.3986  136.9816  189.5245 N   0  0  0  0  0  0  0  0  0  0  0  0
  153.2770  137.2866  190.8179 C   0  0  0  0  0  0  0  0  0  0  0  0
  154.2335  136.8307  191.6960 C   0  0  0  0  0  0  0  0  0  0  0  0
  155.2762  136.0809  191.2099 C   0  0  0  0  0  0  0  0  0  0  0  0
  155.4158  135.7538  189.8521 C   0  0  0  0  0  0  0  0  0  0  0  0
  156.5799  134.9656  189.4581 C   0  0  0  0  0  0  0  0  0  0  0  0
  156.3197  133.8599  188.6809 F   0  0  0  0  0  0  0  0  0  0  0  0
  157.1653  134.4356  190.6238 F   0  0  0  0  0  0  0  0  0  0  0  0
  157.6102  135.7312  188.9033 F   0  0  0  0  0  0  0  0  0  0  0  0
  151.5703  138.1209  182.1738 N   0  0  0  0  0  0  0  0  0  0  0  0
  150.1577  137.9887  182.4374 C   0  0  0  0  0  0  0  0  0  0  0  0
  149.2870  138.6444  181.4096 C   0  0  0  0  0  0  0  0  0  0  0  0
  149.8494  138.6630  180.0367 C   0  0  0  0  0  0  0  0  0  0  0  0
  151.2287  139.2626  180.0452 C   0  0  0  0  0  0  0  0  0  0  0  0
  152.1193  138.3319  180.8560 C   0  0  0  0  0  0  0  0  0  0  0  0
  155.2869  139.8838  184.7077 N   0  0  0  0  0  0  0  0  0  0  0  0
  155.3183  140.2832  185.7089 H   0  0  0  0  0  0  0  0  0  0  0  0
  157.7641  141.8887  181.9189 C   0  0  0  0  0  0  0  0  0  0  0  0
  158.2132  140.7588  182.5312 C   0  0  0  0  0  0  0  0  0  0  0  0
  157.4272  140.0490  183.4545 C   0  0  0  0  0  0  0  0  0  0  0  0
  156.1743  140.4656  183.7763 C   0  0  0  0  0  0  0  0  0  0  0  0
  155.7363  141.6328  183.1279 C   0  0  0  0  0  0  0  0  0  0  0  0
  156.4956  142.3255  182.2318 C   0  0  0  0  0  0  0  0  0  0  0  0
  158.1763  142.4330  179.5531 C   0  0  0  0  0  0  0  0  0  0  0  0
  158.6287  142.6395  180.9836 C   0  0  0  0  0  0  0  0  0  0  0  0
  160.0432  142.2103  181.1302 C   0  0  0  0  0  0  0  0  0  0  0  0
  158.5448  144.1358  181.2403 C   0  0  0  0  0  0  0  0  0  0  0  0
 36 37  1  0  0  0
 37 38  1  0  0  0
 37 39  1  0  0  0
 37 30  1  0  0  0
 30 31  2  0  0  0
 31 32  1  0  0  0
 32 33  2  0  0  0
 33 28  1  0  0  0
 28  1  1  0  0  0
  1  2  2  0  0  0
  2  3  1  0  0  0
  3  4  2  0  0  0
  4  5  1  0  0  0
  5  6  1  0  0  0
  6  7  1  0  0  0
  7  8  1  0  0  0
  8  9  1  0  0  0
  9 10  1  0  0  0
 10 11  1  0  0  0
  8 12  1  0  0  0
 12 13  2  0  0  0
 13 14  1  0  0  0
 14 15  2  0  0  0
 15 16  1  0  0  0
 16 17  2  0  0  0
 17 18  1  0  0  0
 18 19  1  0  0  0
 18 20  1  0  0  0
 18 21  1  0  0  0
  3 22  1  0  0  0
 22 23  1  0  0  0
 23 24  1  0  0  0
 24 25  1  0  0  0
 25 26  1  0  0  0
 26 27  1  0  0  0
 33 34  1  0  0  0
 34 35  2  0  0  0
 35 30  1  0  0  0
 11  1  1  0  0  0
 17 12  1  0  0  0
 27 22  1  0  0  0
 11  5  2  0  0  0
 28 29  1  0  0  0
M  END
> <minimizedAffinity>
-8.13385

> <CNNscore>
0.3598486483

> <CNNaffinity>
6.9273161888

> <CNN_VS>
2.4927854538

> <CNNaffinity_variance>
0.0406782664

$$$$
[H]c1nc(N2C([H])([H])C([H])([H])c3nc(N4C([H])([H])C([H])([H])C([H])([H])C([H])([H])C4([H])[H])nc(N([H])c4c([H])c([H])c(C(C([H])([H])[H])(C([H])([H])[H])C([H])([H])[H])c([H])c4[H])c3C([H])([H])C2([H])[H])c(C(F)(F)F)c([H])c1[H]


 39 43  0  0  0  0  0  0  0  0999 V2000
  153.6693  138.1739  184.0773 C   0  0  0  0  0  0  0  0  0  0  0  0
  154.5382  139.1749  184.0510 N   0  0  0  0  0  0  0  0  0  0  0  0
  154.5945  140.1300  183.0778 C   0  0  0  0  0  0  0  0  0  0  0  0
  153.6860  139.9911  182.1152 N   0  0  0  0  0  0  0  0  0  0  0  0
  152.7430  139.0275  182.0087 C   0  0  0  0  0  0  0  0  0  0  0  0
  151.9506  139.3164  180.8154 C   0  0  0  0  0  0  0  0  0  0  0  0
  151.2859  138.2016  180.1038 C   0  0  0  0  0  0  0  0  0  0  0  0
  150.8459  137.1452  181.0048 N   0  0  0  0  0  0  0  0  0  0  0  0
  151.7008  136.2668  181.7629 C   0  0  0  0  0  0  0  0  0  0  0  0
  151.9034  136.8871  183.1520 C   0  0  0  0  0  0  0  0  0  0  0  0
  152.7410  138.0888  183.0250 C   0  0  0  0  0  0  0  0  0  0  0  0
  149.4627  136.9167  181.1950 C   0  0  0  0  0  0  0  0  0  0  0  0
  148.9793  135.6737  180.8806 N   0  0  0  0  0  0  0  0  0  0  0  0
  147.7000  135.3277  181.0368 C   0  0  0  0  0  0  0  0  0  0  0  0
  146.8206  136.2605  181.5373 C   0  0  0  0  0  0  0  0  0  0  0  0
  147.2907  137.5107  181.8561 C   0  0  0  0  0  0  0  0  0  0  0  0
  148.6333  137.8872  181.6959 C   0  0  0  0  0  0  0  0  0  0  0  0
  149.0045  139.2531  182.0540 C   0  0  0  0  0  0  0  0  0  0  0  0
  150.0227  139.3762  182.9719 F   0  0  0  0  0  0  0  0  0  0  0  0
  147.8995  139.8567  182.6841 F   0  0  0  0  0  0  0  0  0  0  0  0
  149.2310  140.0779  180.9478 F   0  0  0  0  0  0  0  0  0  0  0  0
  155.5292  141.1956  183.0886 N   0  0  0  0  0  0  0  0  0  0  0  0
  156.5570  141.1591  184.1008 C   0  0  0  0  0  0  0  0  0  0  0  0
  157.8066  141.8927  183.7203 C   0  0  0  0  0  0  0  0  0  0  0  0
  157.5967  143.0616  182.8309 C   0  0  0  0  0  0  0  0  0  0  0  0
  156.8098  142.6578  181.6144 C   0  0  0  0  0  0  0  0  0  0  0  0
  155.4280  142.2344  182.0920 C   0  0  0  0  0  0  0  0  0  0  0  0
  153.5569  137.3058  185.1673 N   0  0  0  0  0  0  0  0  0  0  0  0
  152.9299  136.4451  184.9975 H   0  0  0  0  0  0  0  0  0  0  0  0
  154.8819  137.7731  189.1622 C   0  0  0  0  0  0  0  0  0  0  0  0
  155.6914  137.1709  188.2481 C   0  0  0  0  0  0  0  0  0  0  0  0
  155.3054  137.0020  186.9078 C   0  0  0  0  0  0  0  0  0  0  0  0
  154.0965  137.4377  186.4653 C   0  0  0  0  0  0  0  0  0  0  0  0
  153.2831  138.0569  187.4294 C   0  0  0  0  0  0  0  0  0  0  0  0
  153.6530  138.2225  188.7314 C   0  0  0  0  0  0  0  0  0  0  0  0
  154.7932  139.1994  191.1674 C   0  0  0  0  0  0  0  0  0  0  0  0
  155.2963  137.8992  190.5758 C   0  0  0  0  0  0  0  0  0  0  0  0
  156.7761  137.8356  190.6880 C   0  0  0  0  0  0  0  0  0  0  0  0
  154.6954  136.7897  191.4245 C   0  0  0  0  0  0  0  0  0  0  0  0
 36 37  1  0  0  0
 37 38  1  0  0  0
 37 39  1  0  0  0
 37 30  1  0  0  0
 30 31  2  0  0  0
 31 32  1  0  0  0
 32 33  2  0  0  0
 33 28  1  0  0  0
 28  1  1  0  0  0
  1  2  2  0  0  0
  2  3  1  0  0  0
  3  4  2  0  0  0
  4  5  1  0  0  0
  5  6  1  0  0  0
  6  7  1  0  0  0
  7  8  1  0  0  0
  8  9  1  0  0  0
  9 10  1  0  0  0
 10 11  1  0  0  0
  8 12  1  0  0  0
 12 13  2  0  0  0
 13 14  1  0  0  0
 14 15  2  0  0  0
 15 16  1  0  0  0
 16 17  2  0  0  0
 17 18  1  0  0  0
 18 19  1  0  0  0
 18 20  1  0  0  0
 18 21  1  0  0  0
  3 22  1  0  0  0
 22 23  1  0  0  0
 23 24  1  0  0  0
 24 25  1  0  0  0
 25 26  1  0  0  0
 26 27  1  0  0  0
 33 34  1  0  0  0
 34 35  2  0  0  0
 35 30  1  0  0  0
 11  1  1  0  0  0
 17 12  1  0  0  0
 27 22  1  0  0  0
 11  5  2  0  0  0
 28 29  1  0  0  0
M  END
> <minimizedAffinity>
-8.27424

> <CNNscore>
0.3547834158

> <CNNaffinity>
6.8474183083

> <CNN_VS>
2.4293503761

> <CNNaffinity_variance>
0.0348962210

$$$$
[H]c1nc(N2C([H])([H])C([H])([H])c3nc(N4C([H])([H])C([H])([H])C([H])([H])C([H])([H])C4([H])[H])nc(N([H])c4c([H])c([H])c(C(C([H])([H])[H])(C([H])([H])[H])C([H])([H])[H])c([H])c4[H])c3C([H])([H])C2([H])[H])c(C(F)(F)F)c([H])c1[H]


 39 43  0  0  0  0  0  0  0  0999 V2000
  154.2919  139.4460  183.3192 C   0  0  0  0  0  0  0  0  0  0  0  0
  153.7753  138.6193  184.2178 N   0  0  0  0  0  0  0  0  0  0  0  0
  154.4054  138.2218  185.3613 C   0  0  0  0  0  0  0  0  0  0  0  0
  155.6218  138.7355  185.5281 N   0  0  0  0  0  0  0  0  0  0  0  0
  156.2749  139.5848  184.7028 C   0  0  0  0  0  0  0  0  0  0  0  0
  157.5563  139.9074  185.3266 C   0  0  0  0  0  0  0  0  0  0  0  0
  158.7018  140.2844  184.4683 C   0  0  0  0  0  0  0  0  0  0  0  0
  158.2922  141.0163  183.2775 N   0  0  0  0  0  0  0  0  0  0  0  0
  157.5296  140.4848  182.1761 C   0  0  0  0  0  0  0  0  0  0  0  0
  156.0470  140.7799  182.4415 C   0  0  0  0  0  0  0  0  0  0  0  0
  155.5832  139.9466  183.5605 C   0  0  0  0  0  0  0  0  0  0  0  0
  158.6446  142.3792  183.1362 C   0  0  0  0  0  0  0  0  0  0  0  0
  157.7919  143.1809  182.4235 N   0  0  0  0  0  0  0  0  0  0  0  0
  158.0010  144.4859  182.2391 C   0  0  0  0  0  0  0  0  0  0  0  0
  159.1251  145.0582  182.7892 C   0  0  0  0  0  0  0  0  0  0  0  0
  159.9891  144.2669  183.5055 C   0  0  0  0  0  0  0  0  0  0  0  0
  159.7811  142.8934  183.7060 C   0  0  0  0  0  0  0  0  0  0  0  0
  160.7838  142.1577  184.4709 C   0  0  0  0  0  0  0  0  0  0  0  0
  160.4330  141.8322  185.7614 F   0  0  0  0  0  0  0  0  0  0  0  0
  161.9141  142.9838  184.6204 F   0  0  0  0  0  0  0  0  0  0  0  0
  161.2908  141.0417  183.7978 F   0  0  0  0  0  0  0  0  0  0  0  0
  153.8169  137.3463  186.3082 N   0  0  0  0  0  0  0  0  0  0  0  0
  154.5919  137.0323  187.4843 C   0  0  0  0  0  0  0  0  0  0  0  0
  153.7612  136.6527  188.6719 C   0  0  0  0  0  0  0  0  0  0  0  0
  152.4834  135.9723  188.3468 C   0  0  0  0  0  0  0  0  0  0  0  0
  151.6900  136.7915  187.3662 C   0  0  0  0  0  0  0  0  0  0  0  0
  152.4871  136.8389  186.0704 C   0  0  0  0  0  0  0  0  0  0  0  0
  153.5534  139.9366  182.2384 N   0  0  0  0  0  0  0  0  0  0  0  0
  153.9512  140.8317  181.7876 H   0  0  0  0  0  0  0  0  0  0  0  0
  149.9726  138.6590  180.3733 C   0  0  0  0  0  0  0  0  0  0  0  0
  150.3881  138.0571  181.5216 C   0  0  0  0  0  0  0  0  0  0  0  0
  151.5613  138.4507  182.1868 C   0  0  0  0  0  0  0  0  0  0  0  0
  152.3362  139.4586  181.7063 C   0  0  0  0  0  0  0  0  0  0  0  0
  151.8822  140.0627  180.5215 C   0  0  0  0  0  0  0  0  0  0  0  0
  150.7447  139.6837  179.8719 C   0  0  0  0  0  0  0  0  0  0  0  0
  148.5236  136.7203  179.9203 C   0  0  0  0  0  0  0  0  0  0  0  0
  148.7566  138.1958  179.6712 C   0  0  0  0  0  0  0  0  0  0  0  0
  148.8758  138.4463  178.2119 C   0  0  0  0  0  0  0  0  0  0  0  0
  147.5186  138.9112  180.1885 C   0  0  0  0  0  0  0  0  0  0  0  0
 36 37  1  0  0  0
 37 38  1  0  0  0
 37 39  1  0  0  0
 37 30  1  0  0  0
 30 31  2  0  0  0
 31 32  1  0  0  0
 32 33  2  0  0  0
 33 28  1  0  0  0
 28  1  1  0  0  0
  1  2  2  0  0  0
  2  3  1  0  0  0
  3  4  2  0  0  0
  4  5  1  0  0  0
  5  6  1  0  0  0
  6  7  1  0  0  0
  7  8  1  0  0  0
  8  9  1  0  0  0
  9 10  1  0  0  0
 10 11  1  0  0  0
  8 12  1  0  0  0
 12 13  2  0  0  0
 13 14  1  0  0  0
 14 15  2  0  0  0
 15 16  1  0  0  0
 16 17  2  0  0  0
 17 18  1  0  0  0
 18 19  1  0  0  0
 18 20  1  0  0  0
 18 21  1  0  0  0
  3 22  1  0  0  0
 22 23  1  0  0  0
 23 24  1  0  0  0
 24 25  1  0  0  0
 25 26  1  0  0  0
 26 27  1  0  0  0
 33 34  1  0  0  0
 34 35  2  0  0  0
 35 30  1  0  0  0
 11  1  1  0  0  0
 17 12  1  0  0  0
 27 22  1  0  0  0
 11  5  2  0  0  0
 28 29  1  0  0  0
M  END
> <minimizedAffinity>
-10.46256

> <CNNscore>
0.3527525961

> <CNNaffinity>
7.2789354324

> <CNN_VS>
2.5676634312

> <CNNaffinity_variance>
0.0729394704

$$$$
[H]c1nc(N2C([H])([H])C([H])([H])c3nc(N4C([H])([H])C([H])([H])C([H])([H])C([H])([H])C4([H])[H])nc(N([H])c4c([H])c([H])c(C(C([H])([H])[H])(C([H])([H])[H])C([H])([H])[H])c([H])c4[H])c3C([H])([H])C2([H])[H])c(C(F)(F)F)c([H])c1[H]


 39 43  0  0  0  0  0  0  0  0999 V2000
  154.5354  143.8334  181.9770 C   0  0  0  0  0  0  0  0  0  0  0  0
  154.1165  144.5516  180.9443 N   0  0  0  0  0  0  0  0  0  0  0  0
  154.9347  145.2030  180.0676 C   0  0  0  0  0  0  0  0  0  0  0  0
  156.2342  145.0686  180.3216 N   0  0  0  0  0  0  0  0  0  0  0  0
  156.8062  144.3733  181.3307 C   0  0  0  0  0  0  0  0  0  0  0  0
  158.2551  144.4773  181.1718 C   0  0  0  0  0  0  0  0  0  0  0  0
  159.1213  144.3695  182.3672 C   0  0  0  0  0  0  0  0  0  0  0  0
  158.5845  143.4568  183.3673 N   0  0  0  0  0  0  0  0  0  0  0  0
  157.3882  143.6595  184.1450 C   0  0  0  0  0  0  0  0  0  0  0  0
  156.2249  142.9812  183.4086 C   0  0  0  0  0  0  0  0  0  0  0  0
  155.9225  143.7387  182.1853 C   0  0  0  0  0  0  0  0  0  0  0  0
  159.2560  142.2418  183.6400 C   0  0  0  0  0  0  0  0  0  0  0  0
  158.7500  141.1004  183.0751 N   0  0  0  0  0  0  0  0  0  0  0  0
  159.3054  139.8980  183.2377 C   0  0  0  0  0  0  0  0  0  0  0  0
  160.4406  139.7944  184.0087 C   0  0  0  0  0  0  0  0  0  0  0  0
  160.9586  140.9296  184.5819 C   0  0  0  0  0  0  0  0  0  0  0  0
  160.3838  142.1998  184.4192 C   0  0  0  0  0  0  0  0  0  0  0  0
  161.0195  143.3264  185.0961 C   0  0  0  0  0  0  0  0  0  0  0  0
  162.2548  143.0742  185.6482 F   0  0  0  0  0  0  0  0  0  0  0  0
  160.2183  143.6848  186.1971 F   0  0  0  0  0  0  0  0  0  0  0  0
  161.0480  144.4947  184.3283 F   0  0  0  0  0  0  0  0  0  0  0  0
  154.4524  145.9516  178.9647 N   0  0  0  0  0  0  0  0  0  0  0  0
  155.0992  145.7397  177.6923 C   0  0  0  0  0  0  0  0  0  0  0  0
  154.2250  146.0377  176.5127 C   0  0  0  0  0  0  0  0  0  0  0  0
  153.2217  147.1078  176.7351 C   0  0  0  0  0  0  0  0  0  0  0  0
  152.4014  146.8086  177.9597 C   0  0  0  0  0  0  0  0  0  0  0  0
  153.3429  146.8547  179.1547 C   0  0  0  0  0  0  0  0  0  0  0  0
  153.6671  143.0675  182.7604 N   0  0  0  0  0  0  0  0  0  0  0  0
  153.1445  143.6176  183.5265 H   0  0  0  0  0  0  0  0  0  0  0  0
  153.0691  138.8796  182.9544 C   0  0  0  0  0  0  0  0  0  0  0  0
  152.5360  139.5910  181.9233 C   0  0  0  0  0  0  0  0  0  0  0  0
  152.7148  140.9795  181.8051 C   0  0  0  0  0  0  0  0  0  0  0  0
  153.4347  141.6753  182.7241 C   0  0  0  0  0  0  0  0  0  0  0  0
  153.9746  140.9155  183.7757 C   0  0  0  0  0  0  0  0  0  0  0  0
  153.8032  139.5679  183.8951 C   0  0  0  0  0  0  0  0  0  0  0  0
  152.6998  136.7873  181.7099 C   0  0  0  0  0  0  0  0  0  0  0  0
  152.8291  137.4259  183.0771 C   0  0  0  0  0  0  0  0  0  0  0  0
  151.5988  137.1705  183.8693 C   0  0  0  0  0  0  0  0  0  0  0  0
  153.9990  136.7324  183.7572 C   0  0  0  0  0  0  0  0  0  0  0  0
 36 37  1  0  0  0
 37 38  1  0  0  0
 37 39  1  0  0  0
 37 30  1  0  0  0
 30 31  2  0  0  0
 31 32  1  0  0  0
 32 33  2  0  0  0
 33 28  1  0  0  0
 28  1  1  0  0  0
  1  2  2  0  0  0
  2  3  1  0  0  0
  3  4  2  0  0  0
  4  5  1  0  0  0
  5  6  1  0  0  0
  6  7  1  0  0  0
  7  8  1  0  0  0
  8  9  1  0  0  0
  9 10  1  0  0  0
 10 11  1  0  0  0
  8 12  1  0  0  0
 12 13  2  0  0  0
 13 14  1  0  0  0
 14 15  2  0  0  0
 15 16  1  0  0  0
 16 17  2  0  0  0
 17 18  1  0  0  0
 18 19  1  0  0  0
 18 20  1  0  0  0
 18 21  1  0  0  0
  3 22  1  0  0  0
 22 23  1  0  0  0
 23 24  1  0  0  0
 24 25  1  0  0  0
 25 26  1  0  0  0
 26 27  1  0  0  0
 33 34  1  0  0  0
 34 35  2  0  0  0
 35 30  1  0  0  0
 11  1  1  0  0  0
 17 12  1  0  0  0
 27 22  1  0  0  0
 11  5  2  0  0  0
 28 29  1  0  0  0
M  END
> <minimizedAffinity>
11.38269

> <CNNscore>
0.3482538760

> <CNNaffinity>
7.4183297157

> <CNN_VS>
2.5834619999

> <CNNaffinity_variance>
0.2504720688

$$$$
[H]c1nc(N2C([H])([H])C([H])([H])c3nc(N4C([H])([H])C([H])([H])C([H])([H])C([H])([H])C4([H])[H])nc(N([H])c4c([H])c([H])c(C(C([H])([H])[H])(C([H])([H])[H])C([H])([H])[H])c([H])c4[H])c3C([H])([H])C2([H])[H])c(C(F)(F)F)c([H])c1[H]


 39 43  0  0  0  0  0  0  0  0999 V2000
  153.7171  138.3976  184.5082 C   0  0  0  0  0  0  0  0  0  0  0  0
  152.9192  138.1747  183.4730 N   0  0  0  0  0  0  0  0  0  0  0  0
  152.1062  137.0869  183.3382 C   0  0  0  0  0  0  0  0  0  0  0  0
  152.1642  136.2258  184.3514 N   0  0  0  0  0  0  0  0  0  0  0  0
  152.9252  136.3185  185.4656 C   0  0  0  0  0  0  0  0  0  0  0  0
  152.6150  135.1659  186.3084 C   0  0  0  0  0  0  0  0  0  0  0  0
  153.6447  134.6572  187.2421 C   0  0  0  0  0  0  0  0  0  0  0  0
  154.4874  135.7173  187.7782 N   0  0  0  0  0  0  0  0  0  0  0  0
  155.4314  136.5095  187.0311 C   0  0  0  0  0  0  0  0  0  0  0  0
  154.7171  137.7879  186.5718 C   0  0  0  0  0  0  0  0  0  0  0  0
  153.7284  137.4426  185.5398 C   0  0  0  0  0  0  0  0  0  0  0  0
  154.4123  136.0456  189.1523 C   0  0  0  0  0  0  0  0  0  0  0  0
  153.2863  136.6957  189.5852 N   0  0  0  0  0  0  0  0  0  0  0  0
  153.0866  137.0387  190.8593 C   0  0  0  0  0  0  0  0  0  0  0  0
  154.0548  136.7266  191.7861 C   0  0  0  0  0  0  0  0  0  0  0  0
  155.1889  136.0759  191.3667 C   0  0  0  0  0  0  0  0  0  0  0  0
  155.4113  135.7103  190.0299 C   0  0  0  0  0  0  0  0  0  0  0  0
  156.6669  135.0384  189.7079 C   0  0  0  0  0  0  0  0  0  0  0  0
  156.5527  133.8567  189.0116 F   0  0  0  0  0  0  0  0  0  0  0  0
  157.2873  134.6664  190.9158 F   0  0  0  0  0  0  0  0  0  0  0  0
  157.6114  135.8781  189.1093 F   0  0  0  0  0  0  0  0  0  0  0  0
  151.2545  136.8872  182.2229 N   0  0  0  0  0  0  0  0  0  0  0  0
  150.7181  135.5610  182.0337 C   0  0  0  0  0  0  0  0  0  0  0  0
  149.4210  135.5347  181.2845 C   0  0  0  0  0  0  0  0  0  0  0  0
  149.2577  136.6173  180.2831 C   0  0  0  0  0  0  0  0  0  0  0  0
  149.4914  137.9590  180.9214 C   0  0  0  0  0  0  0  0  0  0  0  0
  150.9486  138.0018  181.3589 C   0  0  0  0  0  0  0  0  0  0  0  0
  154.4214  139.5943  184.6691 N   0  0  0  0  0  0  0  0  0  0  0  0
  154.1386  140.1731  185.5339 H   0  0  0  0  0  0  0  0  0  0  0  0
  157.1443  141.5628  182.0915 C   0  0  0  0  0  0  0  0  0  0  0  0
  157.5751  140.5313  182.8684 C   0  0  0  0  0  0  0  0  0  0  0  0
  156.7106  139.8368  183.7312 C   0  0  0  0  0  0  0  0  0  0  0  0
  155.3964  140.1697  183.8255 C   0  0  0  0  0  0  0  0  0  0  0  0
  154.9794  141.2362  183.0110 C   0  0  0  0  0  0  0  0  0  0  0  0
  155.8147  141.9137  182.1727 C   0  0  0  0  0  0  0  0  0  0  0  0
  159.5153  142.0731  181.6660 C   0  0  0  0  0  0  0  0  0  0  0  0
  158.0851  142.3038  181.2244 C   0  0  0  0  0  0  0  0  0  0  0  0
  157.7787  143.7570  181.2530 C   0  0  0  0  0  0  0  0  0  0  0  0
  158.0045  141.8173  179.7860 C   0  0  0  0  0  0  0  0  0  0  0  0
 36 37  1  0  0  0
 37 38  1  0  0  0
 37 39  1  0  0  0
 37 30  1  0  0  0
 30 31  2  0  0  0
 31 32  1  0  0  0
 32 33  2  0  0  0
 33 28  1  0  0  0
 28  1  1  0  0  0
  1  2  2  0  0  0
  2  3  1  0  0  0
  3  4  2  0  0  0
  4  5  1  0  0  0
  5  6  1  0  0  0
  6  7  1  0  0  0
  7  8  1  0  0  0
  8  9  1  0  0  0
  9 10  1  0  0  0
 10 11  1  0  0  0
  8 12  1  0  0  0
 12 13  2  0  0  0
 13 14  1  0  0  0
 14 15  2  0  0  0
 15 16  1  0  0  0
 16 17  2  0  0  0
 17 18  1  0  0  0
 18 19  1  0  0  0
 18 20  1  0  0  0
 18 21  1  0  0  0
  3 22  1  0  0  0
 22 23  1  0  0  0
 23 24  1  0  0  0
 24 25  1  0  0  0
 25 26  1  0  0  0
 26 27  1  0  0  0
 33 34  1  0  0  0
 34 35  2  0  0  0
 35 30  1  0  0  0
 11  1  1  0  0  0
 17 12  1  0  0  0
 27 22  1  0  0  0
 11  5  2  0  0  0
 28 29  1  0  0  0
M  END
> <minimizedAffinity>
-7.98764

> <CNNscore>
0.3408372700

> <CNNaffinity>
6.8127088547

> <CNN_VS>
2.3220250607

> <CNNaffinity_variance>
0.0708110183

$$$$
[H]c1nc(N2C([H])([H])C([H])([H])c3nc(N4C([H])([H])C([H])([H])C([H])([H])C([H])([H])C4([H])[H])nc(N([H])c4c([H])c([H])c(C(C([H])([H])[H])(C([H])([H])[H])C([H])([H])[H])c([H])c4[H])c3C([H])([H])C2([H])[H])c(C(F)(F)F)c([H])c1[H]


 39 43  0  0  0  0  0  0  0  0999 V2000
  154.5300  143.9654  181.9435 C   0  0  0  0  0  0  0  0  0  0  0  0
  154.1090  144.6566  180.8933 N   0  0  0  0  0  0  0  0  0  0  0  0
  154.9256  145.2443  179.9713 C   0  0  0  0  0  0  0  0  0  0  0  0
  156.2261  145.0750  180.1985 N   0  0  0  0  0  0  0  0  0  0  0  0
  156.8002  144.4004  181.2205 C   0  0  0  0  0  0  0  0  0  0  0  0
  158.2472  144.4479  181.0220 C   0  0  0  0  0  0  0  0  0  0  0  0
  159.1400  144.3572  182.1992 C   0  0  0  0  0  0  0  0  0  0  0  0
  158.5988  143.5037  183.2480 N   0  0  0  0  0  0  0  0  0  0  0  0
  157.4305  143.7781  184.0460 C   0  0  0  0  0  0  0  0  0  0  0  0
  156.2264  143.1121  183.3663 C   0  0  0  0  0  0  0  0  0  0  0  0
  155.9180  143.8309  182.1213 C   0  0  0  0  0  0  0  0  0  0  0  0
  159.2359  142.2778  183.5528 C   0  0  0  0  0  0  0  0  0  0  0  0
  159.9520  142.2116  184.7193 N   0  0  0  0  0  0  0  0  0  0  0  0
  160.5783  141.1068  185.1289 C   0  0  0  0  0  0  0  0  0  0  0  0
  160.5042  139.9775  184.3458 C   0  0  0  0  0  0  0  0  0  0  0  0
  159.7907  140.0292  183.1737 C   0  0  0  0  0  0  0  0  0  0  0  0
  159.1282  141.1849  182.7314 C   0  0  0  0  0  0  0  0  0  0  0  0
  158.4186  141.1172  181.4573 C   0  0  0  0  0  0  0  0  0  0  0  0
  157.0491  141.2353  181.5271 F   0  0  0  0  0  0  0  0  0  0  0  0
  158.6251  139.8372  180.9081 F   0  0  0  0  0  0  0  0  0  0  0  0
  158.9415  141.9714  180.4814 F   0  0  0  0  0  0  0  0  0  0  0  0
  154.4404  145.9652  178.8514 N   0  0  0  0  0  0  0  0  0  0  0  0
  155.0473  145.6818  177.5732 C   0  0  0  0  0  0  0  0  0  0  0  0
  154.1537  145.9630  176.4041 C   0  0  0  0  0  0  0  0  0  0  0  0
  153.1923  147.0746  176.6078 C   0  0  0  0  0  0  0  0  0  0  0  0
  152.3939  146.8515  177.8627 C   0  0  0  0  0  0  0  0  0  0  0  0
  153.3666  146.9122  179.0320 C   0  0  0  0  0  0  0  0  0  0  0  0
  153.6569  143.2614  182.7780 N   0  0  0  0  0  0  0  0  0  0  0  0
  153.0619  143.8775  183.4331 H   0  0  0  0  0  0  0  0  0  0  0  0
  153.0888  139.0668  182.9024 C   0  0  0  0  0  0  0  0  0  0  0  0
  153.7837  139.6841  183.8971 C   0  0  0  0  0  0  0  0  0  0  0  0
  153.9902  141.0738  183.9102 C   0  0  0  0  0  0  0  0  0  0  0  0
  153.4991  141.8657  182.9209 C   0  0  0  0  0  0  0  0  0  0  0  0
  152.7847  141.2022  181.9090 C   0  0  0  0  0  0  0  0  0  0  0  0
  152.5824  139.8537  181.8915 C   0  0  0  0  0  0  0  0  0  0  0  0
  154.0885  136.9224  183.5846 C   0  0  0  0  0  0  0  0  0  0  0  0
  152.9234  137.5976  182.8915 C   0  0  0  0  0  0  0  0  0  0  0  0
  152.8125  137.1006  181.4960 C   0  0  0  0  0  0  0  0  0  0  0  0
  151.6780  137.1802  183.6575 C   0  0  0  0  0  0  0  0  0  0  0  0
 36 37  1  0  0  0
 37 38  1  0  0  0
 37 39  1  0  0  0
 37 30  1  0  0  0
 30 31  2  0  0  0
 31 32  1  0  0  0
 32 33  2  0  0  0
 33 28  1  0  0  0
 28  1  1  0  0  0
  1  2  2  0  0  0
  2  3  1  0  0  0
  3  4  2  0  0  0
  4  5  1  0  0  0
  5  6  1  0  0  0
  6  7  1  0  0  0
  7  8  1  0  0  0
  8  9  1  0  0  0
  9 10  1  0  0  0
 10 11  1  0  0  0
  8 12  1  0  0  0
 12 13  2  0  0  0
 13 14  1  0  0  0
 14 15  2  0  0  0
 15 16  1  0  0  0
 16 17  2  0  0  0
 17 18  1  0  0  0
 18 19  1  0  0  0
 18 20  1  0  0  0
 18 21  1  0  0  0
  3 22  1  0  0  0
 22 23  1  0  0  0
 23 24  1  0  0  0
 24 25  1  0  0  0
 25 26  1  0  0  0
 26 27  1  0  0  0
 33 34  1  0  0  0
 34 35  2  0  0  0
 35 30  1  0  0  0
 11  1  1  0  0  0
 17 12  1  0  0  0
 27 22  1  0  0  0
 11  5  2  0  0  0
 28 29  1  0  0  0
M  END
> <minimizedAffinity>
12.44810

> <CNNscore>
0.3099078238

> <CNNaffinity>
7.2175040245

> <CNN_VS>
2.2367608547

> <CNNaffinity_variance>
0.2153099328

$$$$
[H]c1nc(N2C([H])([H])C([H])([H])c3nc(N4C([H])([H])C([H])([H])C([H])([H])C([H])([H])C4([H])[H])nc(N([H])c4nc([H])c(C(F)(F)F)c([H])c4[H])c3C([H])([H])C2([H])[H])c(C(F)(F)F)c([H])c1[H]


 39 43  0  0  0  0  0  0  0  0999 V2000
  154.5965  138.5443  184.1829 C   0  0  0  0  0  0  0  0  0  0  0  0
  153.4684  138.2934  183.5256 N   0  0  0  0  0  0  0  0  0  0  0  0
  152.9807  139.1552  182.5868 C   0  0  0  0  0  0  0  0  0  0  0  0
  153.6201  140.3090  182.2601 N   0  0  0  0  0  0  0  0  0  0  0  0
  154.7625  140.5993  182.8839 C   0  0  0  0  0  0  0  0  0  0  0  0
  155.3911  141.8603  182.3469 C   0  0  0  0  0  0  0  0  0  0  0  0
  156.7635  141.4402  181.8232 C   0  0  0  0  0  0  0  0  0  0  0  0
  157.6440  141.0770  182.8897 N   0  0  0  0  0  0  0  0  0  0  0  0
  157.7068  139.8340  183.6364 C   0  0  0  0  0  0  0  0  0  0  0  0
  156.4880  139.8036  184.6100 C   0  0  0  0  0  0  0  0  0  0  0  0
  155.2388  139.7401  183.8299 C   0  0  0  0  0  0  0  0  0  0  0  0
  158.5802  142.0499  183.3121 C   0  0  0  0  0  0  0  0  0  0  0  0
  158.9413  142.0637  184.6539 N   0  0  0  0  0  0  0  0  0  0  0  0
  159.8005  142.9413  185.1583 C   0  0  0  0  0  0  0  0  0  0  0  0
  160.3301  143.8657  184.2890 C   0  0  0  0  0  0  0  0  0  0  0  0
  159.9907  143.8785  182.9593 C   0  0  0  0  0  0  0  0  0  0  0  0
  159.0943  142.9548  182.4245 C   0  0  0  0  0  0  0  0  0  0  0  0
  158.7894  142.9752  181.0006 C   0  0  0  0  0  0  0  0  0  0  0  0
  157.5796  143.4763  180.6381 F   0  0  0  0  0  0  0  0  0  0  0  0
  159.0452  141.8016  180.3087 F   0  0  0  0  0  0  0  0  0  0  0  0
  159.7161  143.8851  180.3961 F   0  0  0  0  0  0  0  0  0  0  0  0
  151.6819  139.0266  181.9789 N   0  0  0  0  0  0  0  0  0  0  0  0
  151.4663  139.8253  180.7727 C   0  0  0  0  0  0  0  0  0  0  0  0
  150.2145  139.3550  180.0695 C   0  0  0  0  0  0  0  0  0  0  0  0
  149.0233  139.3995  181.0145 C   0  0  0  0  0  0  0  0  0  0  0  0
  149.2574  138.6209  182.2586 C   0  0  0  0  0  0  0  0  0  0  0  0
  150.6613  138.1773  182.4619 C   0  0  0  0  0  0  0  0  0  0  0  0
  154.9892  137.8258  185.3110 N   0  0  0  0  0  0  0  0  0  0  0  0
  155.5125  136.8948  185.0483 H   0  0  0  0  0  0  0  0  0  0  0  0
  154.9415  138.2809  189.4646 C   0  0  0  0  0  0  0  0  0  0  0  0
  153.8022  138.5673  188.7299 C   0  0  0  0  0  0  0  0  0  0  0  0
  153.7961  138.4692  187.3557 C   0  0  0  0  0  0  0  0  0  0  0  0
  154.9284  138.0744  186.6774 C   0  0  0  0  0  0  0  0  0  0  0  0
  156.0390  137.8105  187.4335 N   0  0  0  0  0  0  0  0  0  0  0  0
  156.0739  137.9025  188.7680 C   0  0  0  0  0  0  0  0  0  0  0  0
  154.9296  139.6572  191.3618 F   0  0  0  0  0  0  0  0  0  0  0  0
  154.9750  138.3370  190.9320 C   0  0  0  0  0  0  0  0  0  0  0  0
  154.0107  137.6216  191.5518 F   0  0  0  0  0  0  0  0  0  0  0  0
  156.2477  137.8758  191.2934 F   0  0  0  0  0  0  0  0  0  0  0  0
 36 37  1  0  0  0
 37 38  1  0  0  0
 37 39  1  0  0  0
 37 30  1  0  0  0
 30 31  2  0  0  0
 31 32  1  0  0  0
 32 33  2  0  0  0
 33 28  1  0  0  0
 28  1  1  0  0  0
  1  2  2  0  0  0
  2  3  1  0  0  0
  3  4  2  0  0  0
  4  5  1  0  0  0
  5  6  1  0  0  0
  6  7  1  0  0  0
  7  8  1  0  0  0
  8  9  1  0  0  0
  9 10  1  0  0  0
 10 11  1  0  0  0
  8 12  1  0  0  0
 12 13  2  0  0  0
 13 14  1  0  0  0
 14 15  2  0  0  0
 15 16  1  0  0  0
 16 17  2  0  0  0
 17 18  1  0  0  0
 18 19  1  0  0  0
 18 20  1  0  0  0
 18 21  1  0  0  0
  3 22  1  0  0  0
 22 23  1  0  0  0
 23 24  1  0  0  0
 24 25  1  0  0  0
 25 26  1  0  0  0
 26 27  1  0  0  0
 33 34  1  0  0  0
 34 35  2  0  0  0
 35 30  1  0  0  0
 11  1  1  0  0  0
 17 12  1  0  0  0
 27 22  1  0  0  0
 11  5  2  0  0  0
 28 29  1  0  0  0
M  END
> <minimizedAffinity>
-11.41002

> <CNNscore>
0.5557518005

> <CNNaffinity>
7.5100579262

> <CNN_VS>
4.1737279892

> <CNNaffinity_variance>
0.0698037148

$$$$
[H]c1nc(N2C([H])([H])C([H])([H])c3nc(N4C([H])([H])C([H])([H])C([H])([H])C([H])([H])C4([H])[H])nc(N([H])c4nc([H])c(C(F)(F)F)c([H])c4[H])c3C([H])([H])C2([H])[H])c(C(F)(F)F)c([H])c1[H]


 39 43  0  0  0  0  0  0  0  0999 V2000
  154.3778  139.0162  184.4977 C   0  0  0  0  0  0  0  0  0  0  0  0
  155.1743  140.0723  184.3646 N   0  0  0  0  0  0  0  0  0  0  0  0
  155.1963  140.8117  183.2180 C   0  0  0  0  0  0  0  0  0  0  0  0
  154.4022  140.5228  182.1537 N   0  0  0  0  0  0  0  0  0  0  0  0
  153.5767  139.4792  182.2434 C   0  0  0  0  0  0  0  0  0  0  0  0
  152.7031  139.3473  181.0216 C   0  0  0  0  0  0  0  0  0  0  0  0
  151.2677  139.4543  181.5337 C   0  0  0  0  0  0  0  0  0  0  0  0
  150.9005  138.3110  182.3102 N   0  0  0  0  0  0  0  0  0  0  0  0
  151.2200  138.0079  183.6932 C   0  0  0  0  0  0  0  0  0  0  0  0
  152.7210  137.5863  183.7517 C   0  0  0  0  0  0  0  0  0  0  0  0
  153.5679  138.7366  183.3873 C   0  0  0  0  0  0  0  0  0  0  0  0
  150.1387  137.3100  181.6628 C   0  0  0  0  0  0  0  0  0  0  0  0
  150.7560  136.0932  181.3996 N   0  0  0  0  0  0  0  0  0  0  0  0
  150.1378  135.0912  180.7859 C   0  0  0  0  0  0  0  0  0  0  0  0
  148.8347  135.3040  180.4021 C   0  0  0  0  0  0  0  0  0  0  0  0
  148.1994  136.4958  180.6462 C   0  0  0  0  0  0  0  0  0  0  0  0
  148.8426  137.5478  181.2960 C   0  0  0  0  0  0  0  0  0  0  0  0
  148.1226  138.7832  181.5725 C   0  0  0  0  0  0  0  0  0  0  0  0
  148.5903  139.9130  180.9803 F   0  0  0  0  0  0  0  0  0  0  0  0
  147.8308  139.0299  182.9049 F   0  0  0  0  0  0  0  0  0  0  0  0
  146.8161  138.6317  181.0048 F   0  0  0  0  0  0  0  0  0  0  0  0
  156.1603  141.8472  182.9506 N   0  0  0  0  0  0  0  0  0  0  0  0
  155.6628  142.9938  182.1911 C   0  0  0  0  0  0  0  0  0  0  0  0
  156.6616  144.1249  182.2668 C   0  0  0  0  0  0  0  0  0  0  0  0
  158.0290  143.6617  181.7876 C   0  0  0  0  0  0  0  0  0  0  0  0
  158.5174  142.4718  182.5320 C   0  0  0  0  0  0  0  0  0  0  0  0
  157.5010  141.8159  183.3956 C   0  0  0  0  0  0  0  0  0  0  0  0
  154.5071  138.0992  185.5395 N   0  0  0  0  0  0  0  0  0  0  0  0
  154.5599  137.0626  185.1755 H   0  0  0  0  0  0  0  0  0  0  0  0
  155.1484  138.2046  189.6674 C   0  0  0  0  0  0  0  0  0  0  0  0
  153.8657  138.3638  189.1681 C   0  0  0  0  0  0  0  0  0  0  0  0
  153.6248  138.3770  187.8116 C   0  0  0  0  0  0  0  0  0  0  0  0
  154.6601  138.2239  186.9156 C   0  0  0  0  0  0  0  0  0  0  0  0
  155.9154  138.0806  187.4432 N   0  0  0  0  0  0  0  0  0  0  0  0
  156.1780  138.0692  188.7552 C   0  0  0  0  0  0  0  0  0  0  0  0
  154.4798  137.3819  191.7579 F   0  0  0  0  0  0  0  0  0  0  0  0
  155.4388  138.1469  191.1062 C   0  0  0  0  0  0  0  0  0  0  0  0
  156.6733  137.6964  191.4207 F   0  0  0  0  0  0  0  0  0  0  0  0
  155.2500  139.4530  191.5768 F   0  0  0  0  0  0  0  0  0  0  0  0
 36 37  1  0  0  0
 37 38  1  0  0  0
 37 39  1  0  0  0
 37 30  1  0  0  0
 30 31  2  0  0  0
 31 32  1  0  0  0
 32 33  2  0  0  0
 33 28  1  0  0  0
 28  1  1  0  0  0
  1  2  2  0  0  0
  2  3  1  0  0  0
  3  4  2  0  0  0
  4  5  1  0  0  0
  5  6  1  0  0  0
  6  7  1  0  0  0
  7  8  1  0  0  0
  8  9  1  0  0  0
  9 10  1  0  0  0
 10 11  1  0  0  0
  8 12  1  0  0  0
 12 13  2  0  0  0
 13 14  1  0  0  0
 14 15  2  0  0  0
 15 16  1  0  0  0
 16 17  2  0  0  0
 17 18  1  0  0  0
 18 19  1  0  0  0
 18 20  1  0  0  0
 18 21  1  0  0  0
  3 22  1  0  0  0
 22 23  1  0  0  0
 23 24  1  0  0  0
 24 25  1  0  0  0
 25 26  1  0  0  0
 26 27  1  0  0  0
 33 34  1  0  0  0
 34 35  2  0  0  0
 35 30  1  0  0  0
 11  1  1  0  0  0
 17 12  1  0  0  0
 27 22  1  0  0  0
 11  5  2  0  0  0
 28 29  1  0  0  0
M  END
> <minimizedAffinity>
-9.10802

> <CNNscore>
0.3993167281

> <CNNaffinity>
6.9528756142

> <CNN_VS>
2.7763996124

> <CNNaffinity_variance>
0.0076694414

$$$$
[H]c1nc(N2C([H])([H])C([H])([H])c3nc(N4C([H])([H])C([H])([H])C([H])([H])C([H])([H])C4([H])[H])nc(N([H])c4nc([H])c(C(F)(F)F)c([H])c4[H])c3C([H])([H])C2([H])[H])c(C(F)(F)F)c([H])c1[H]


 39 43  0  0  0  0  0  0  0  0999 V2000
  153.8528  135.8758  187.1290 C   0  0  0  0  0  0  0  0  0  0  0  0
  154.1657  135.7576  188.4157 N   0  0  0  0  0  0  0  0  0  0  0  0
  153.2063  135.6081  189.3744 C   0  0  0  0  0  0  0  0  0  0  0  0
  151.8820  135.5593  189.0734 N   0  0  0  0  0  0  0  0  0  0  0  0
  151.5184  135.6616  187.7944 C   0  0  0  0  0  0  0  0  0  0  0  0
  150.0298  135.4984  187.6188 C   0  0  0  0  0  0  0  0  0  0  0  0
  149.8581  134.2929  186.6961 C   0  0  0  0  0  0  0  0  0  0  0  0
  150.3038  134.5802  185.3681 N   0  0  0  0  0  0  0  0  0  0  0  0
  151.6582  134.6061  184.8470 C   0  0  0  0  0  0  0  0  0  0  0  0
  152.3453  135.9030  185.3761 C   0  0  0  0  0  0  0  0  0  0  0  0
  152.4810  135.8230  186.8418 C   0  0  0  0  0  0  0  0  0  0  0  0
  149.3134  134.9090  184.4129 C   0  0  0  0  0  0  0  0  0  0  0  0
  148.9429  136.2431  184.2951 N   0  0  0  0  0  0  0  0  0  0  0  0
  148.0155  136.6590  183.4408 C   0  0  0  0  0  0  0  0  0  0  0  0
  147.4117  135.7011  182.6609 C   0  0  0  0  0  0  0  0  0  0  0  0
  147.7548  134.3757  182.7565 C   0  0  0  0  0  0  0  0  0  0  0  0
  148.7325  133.9358  183.6472 C   0  0  0  0  0  0  0  0  0  0  0  0
  149.0973  132.5266  183.6917 C   0  0  0  0  0  0  0  0  0  0  0  0
  148.4612  131.6992  182.8217 F   0  0  0  0  0  0  0  0  0  0  0  0
  149.1399  131.9506  184.9518 F   0  0  0  0  0  0  0  0  0  0  0  0
  150.4671  132.4449  183.2806 F   0  0  0  0  0  0  0  0  0  0  0  0
  153.4721  135.6576  190.7886 N   0  0  0  0  0  0  0  0  0  0  0  0
  154.3725  134.6244  191.2995 C   0  0  0  0  0  0  0  0  0  0  0  0
  154.8161  134.9840  192.6983 C   0  0  0  0  0  0  0  0  0  0  0  0
  153.6109  135.2003  193.6008 C   0  0  0  0  0  0  0  0  0  0  0  0
  152.6751  136.2213  193.0620 C   0  0  0  0  0  0  0  0  0  0  0  0
  152.9444  136.6363  191.6605 C   0  0  0  0  0  0  0  0  0  0  0  0
  154.7725  136.2778  186.1618 N   0  0  0  0  0  0  0  0  0  0  0  0
  155.4930  135.4831  185.9189 H   0  0  0  0  0  0  0  0  0  0  0  0
  155.2129  139.9047  184.1336 C   0  0  0  0  0  0  0  0  0  0  0  0
  154.2577  138.9941  183.7113 C   0  0  0  0  0  0  0  0  0  0  0  0
  154.1148  137.7715  184.3304 C   0  0  0  0  0  0  0  0  0  0  0  0
  154.9191  137.4279  185.3948 C   0  0  0  0  0  0  0  0  0  0  0  0
  155.8595  138.3464  185.7781 N   0  0  0  0  0  0  0  0  0  0  0  0
  156.0230  139.5380  185.1918 C   0  0  0  0  0  0  0  0  0  0  0  0
  156.0438  141.1265  182.3141 F   0  0  0  0  0  0  0  0  0  0  0  0
  155.3690  141.2319  183.5238 C   0  0  0  0  0  0  0  0  0  0  0  0
  154.2176  141.9165  183.3463 F   0  0  0  0  0  0  0  0  0  0  0  0
  156.2390  141.9309  184.3708 F   0  0  0  0  0  0  0  0  0  0  0  0
 36 37  1  0  0  0
 37 38  1  0  0  0
 37 39  1  0  0  0
 37 30  1  0  0  0
 30 31  2  0  0  0
 31 32  1  0  0  0
 32 33  2  0  0  0
 33 28  1  0  0  0
 28  1  1  0  0  0
  1  2  2  0  0  0
  2  3  1  0  0  0
  3  4  2  0  0  0
  4  5  1  0  0  0
  5  6  1  0  0  0
  6  7  1  0  0  0
  7  8  1  0  0  0
  8  9  1  0  0  0
  9 10  1  0  0  0
 10 11  1  0  0  0
  8 12  1  0  0  0
 12 13  2  0  0  0
 13 14  1  0  0  0
 14 15  2  0  0  0
 15 16  1  0  0  0
 16 17  2  0  0  0
 17 18  1  0  0  0
 18 19  1  0  0  0
 18 20  1  0  0  0
 18 21  1  0  0  0
  3 22  1  0  0  0
 22 23  1  0  0  0
 23 24  1  0  0  0
 24 25  1  0  0  0
 25 26  1  0  0  0
 26 27  1  0  0  0
 33 34  1  0  0  0
 34 35  2  0  0  0
 35 30  1  0  0  0
 11  1  1  0  0  0
 17 12  1  0  0  0
 27 22  1  0  0  0
 11  5  2  0  0  0
 28 29  1  0  0  0
M  END
> <minimizedAffinity>
-4.01108

> <CNNscore>
0.3459521532

> <CNNaffinity>
6.7695364952

> <CNN_VS>
2.3419356346

> <CNNaffinity_variance>
1.6574786901

$$$$
[H]c1nc(N2C([H])([H])C([H])([H])c3nc(N4C([H])([H])C([H])([H])C([H])([H])C([H])([H])C4([H])[H])nc(N([H])c4nc([H])c(C(F)(F)F)c([H])c4[H])c3C([H])([H])C2([H])[H])c(C(F)(F)F)c([H])c1[H]


 39 43  0  0  0  0  0  0  0  0999 V2000
  153.1989  137.0399  185.6789 C   0  0  0  0  0  0  0  0  0  0  0  0
  151.8952  137.2270  185.4971 N   0  0  0  0  0  0  0  0  0  0  0  0
  150.9667  136.5850  186.2636 C   0  0  0  0  0  0  0  0  0  0  0  0
  151.3156  135.7300  187.2607 N   0  0  0  0  0  0  0  0  0  0  0  0
  152.6122  135.5185  187.4898 C   0  0  0  0  0  0  0  0  0  0  0  0
  152.8332  134.6206  188.6807 C   0  0  0  0  0  0  0  0  0  0  0  0
  153.6568  135.4471  189.6669 C   0  0  0  0  0  0  0  0  0  0  0  0
  154.9854  135.6677  189.1861 N   0  0  0  0  0  0  0  0  0  0  0  0
  155.4519  136.6329  188.2076 C   0  0  0  0  0  0  0  0  0  0  0  0
  155.0070  136.1325  186.7984 C   0  0  0  0  0  0  0  0  0  0  0  0
  153.5355  136.1537  186.7125 C   0  0  0  0  0  0  0  0  0  0  0  0
  156.0039  134.8314  189.7003 C   0  0  0  0  0  0  0  0  0  0  0  0
  156.3644  133.7148  188.9559 N   0  0  0  0  0  0  0  0  0  0  0  0
  157.2979  132.8575  189.3516 C   0  0  0  0  0  0  0  0  0  0  0  0
  157.9076  133.1124  190.5574 C   0  0  0  0  0  0  0  0  0  0  0  0
  157.5711  134.2055  191.3158 C   0  0  0  0  0  0  0  0  0  0  0  0
  156.5965  135.1115  190.9009 C   0  0  0  0  0  0  0  0  0  0  0  0
  156.2951  136.2813  191.7142 C   0  0  0  0  0  0  0  0  0  0  0  0
  155.0394  136.3671  192.2261 F   0  0  0  0  0  0  0  0  0  0  0  0
  156.6776  137.5036  191.1840 F   0  0  0  0  0  0  0  0  0  0  0  0
  157.1202  136.1921  192.8818 F   0  0  0  0  0  0  0  0  0  0  0  0
  149.5522  136.6080  185.9959 N   0  0  0  0  0  0  0  0  0  0  0  0
  149.0456  135.5077  185.1762 C   0  0  0  0  0  0  0  0  0  0  0  0
  147.5369  135.4734  185.2489 C   0  0  0  0  0  0  0  0  0  0  0  0
  146.9526  136.8171  184.8403 C   0  0  0  0  0  0  0  0  0  0  0  0
  147.4973  137.9407  185.6462 C   0  0  0  0  0  0  0  0  0  0  0  0
  148.6674  137.5909  186.4932 C   0  0  0  0  0  0  0  0  0  0  0  0
  154.1588  137.4745  184.7664 N   0  0  0  0  0  0  0  0  0  0  0  0
  154.8226  136.6593  184.4429 H   0  0  0  0  0  0  0  0  0  0  0  0
  154.9386  141.2461  183.1451 C   0  0  0  0  0  0  0  0  0  0  0  0
  153.8132  140.5454  182.7420 C   0  0  0  0  0  0  0  0  0  0  0  0
  153.5488  139.2821  183.2241 C   0  0  0  0  0  0  0  0  0  0  0  0
  154.3995  138.6864  184.1294 C   0  0  0  0  0  0  0  0  0  0  0  0
  155.5074  139.4022  184.4969 N   0  0  0  0  0  0  0  0  0  0  0  0
  155.7907  140.6278  184.0407 C   0  0  0  0  0  0  0  0  0  0  0  0
  155.5097  143.4328  183.7665 F   0  0  0  0  0  0  0  0  0  0  0  0
  155.2332  142.6088  182.6827 C   0  0  0  0  0  0  0  0  0  0  0  0
  156.2294  142.6995  181.7743 F   0  0  0  0  0  0  0  0  0  0  0  0
  154.0293  143.0904  182.1520 F   0  0  0  0  0  0  0  0  0  0  0  0
 36 37  1  0  0  0
 37 38  1  0  0  0
 37 39  1  0  0  0
 37 30  1  0  0  0
 30 31  2  0  0  0
 31 32  1  0  0  0
 32 33  2  0  0  0
 33 28  1  0  0  0
 28  1  1  0  0  0
  1  2  2  0  0  0
  2  3  1  0  0  0
  3  4  2  0  0  0
  4  5  1  0  0  0
  5  6  1  0  0  0
  6  7  1  0  0  0
  7  8  1  0  0  0
  8  9  1  0  0  0
  9 10  1  0  0  0
 10 11  1  0  0  0
  8 12  1  0  0  0
 12 13  2  0  0  0
 13 14  1  0  0  0
 14 15  2  0  0  0
 15 16  1  0  0  0
 16 17  2  0  0  0
 17 18  1  0  0  0
 18 19  1  0  0  0
 18 20  1  0  0  0
 18 21  1  0  0  0
  3 22  1  0  0  0
 22 23  1  0  0  0
 23 24  1  0  0  0
 24 25  1  0  0  0
 25 26  1  0  0  0
 26 27  1  0  0  0
 33 34  1  0  0  0
 34 35  2  0  0  0
 35 30  1  0  0  0
 11  1  1  0  0  0
 17 12  1  0  0  0
 27 22  1  0  0  0
 11  5  2  0  0  0
 28 29  1  0  0  0
M  END
> <minimizedAffinity>
-7.70127

> <CNNscore>
0.3312401175

> <CNNaffinity>
6.6732506752

> <CNN_VS>
2.2104482651

> <CNNaffinity_variance>
0.2224271744

$$$$
[H]c1nc(N2C([H])([H])C([H])([H])c3nc(N4C([H])([H])C([H])([H])C([H])([H])C([H])([H])C4([H])[H])nc(N([H])c4nc([H])c(C(F)(F)F)c([H])c4[H])c3C([H])([H])C2([H])[H])c(C(F)(F)F)c([H])c1[H]


 39 43  0  0  0  0  0  0  0  0999 V2000
  155.6413  139.0515  184.2675 C   0  0  0  0  0  0  0  0  0  0  0  0
  154.7739  139.4651  183.3488 N   0  0  0  0  0  0  0  0  0  0  0  0
  153.4667  139.0744  183.3720 C   0  0  0  0  0  0  0  0  0  0  0  0
  152.9723  138.2538  184.3358 N   0  0  0  0  0  0  0  0  0  0  0  0
  153.8012  137.8214  185.2868 C   0  0  0  0  0  0  0  0  0  0  0  0
  153.0831  136.9987  186.3265 C   0  0  0  0  0  0  0  0  0  0  0  0
  153.2998  137.7335  187.6484 C   0  0  0  0  0  0  0  0  0  0  0  0
  154.6633  137.6598  188.0729 N   0  0  0  0  0  0  0  0  0  0  0  0
  155.8024  138.4363  187.6188 C   0  0  0  0  0  0  0  0  0  0  0  0
  156.1976  137.9148  186.2025 C   0  0  0  0  0  0  0  0  0  0  0  0
  155.1094  138.2055  185.2516 C   0  0  0  0  0  0  0  0  0  0  0  0
  154.9812  136.6917  189.0543 C   0  0  0  0  0  0  0  0  0  0  0  0
  155.1322  135.3736  188.6408 N   0  0  0  0  0  0  0  0  0  0  0  0
  155.4172  134.3850  189.4800 C   0  0  0  0  0  0  0  0  0  0  0  0
  155.5547  134.7143  190.8078 C   0  0  0  0  0  0  0  0  0  0  0  0
  155.4090  136.0066  191.2464 C   0  0  0  0  0  0  0  0  0  0  0  0
  155.1163  137.0484  190.3679 C   0  0  0  0  0  0  0  0  0  0  0  0
  155.0086  138.4129  190.8652 C   0  0  0  0  0  0  0  0  0  0  0  0
  154.3499  139.3036  190.0787 F   0  0  0  0  0  0  0  0  0  0  0  0
  156.1797  138.9775  191.3461 F   0  0  0  0  0  0  0  0  0  0  0  0
  154.1992  138.3559  192.0458 F   0  0  0  0  0  0  0  0  0  0  0  0
  152.5317  139.3414  182.3102 N   0  0  0  0  0  0  0  0  0  0  0  0
  151.3249  138.5149  182.3074 C   0  0  0  0  0  0  0  0  0  0  0  0
  150.3051  139.1087  181.3641 C   0  0  0  0  0  0  0  0  0  0  0  0
  150.8978  139.2733  179.9729 C   0  0  0  0  0  0  0  0  0  0  0  0
  152.1463  140.0794  179.9804 C   0  0  0  0  0  0  0  0  0  0  0  0
  152.7103  140.3432  181.3299 C   0  0  0  0  0  0  0  0  0  0  0  0
  157.0187  139.2212  184.1365 N   0  0  0  0  0  0  0  0  0  0  0  0
  157.5017  138.3491  183.6720 H   0  0  0  0  0  0  0  0  0  0  0  0
  159.8601  142.2176  184.7766 C   0  0  0  0  0  0  0  0  0  0  0  0
  159.0135  141.8434  185.8076 C   0  0  0  0  0  0  0  0  0  0  0  0
  158.0374  140.8896  185.6186 C   0  0  0  0  0  0  0  0  0  0  0  0
  157.8851  140.2773  184.3939 C   0  0  0  0  0  0  0  0  0  0  0  0
  158.7307  140.6794  183.3948 N   0  0  0  0  0  0  0  0  0  0  0  0
  159.6834  141.6062  183.5496 C   0  0  0  0  0  0  0  0  0  0  0  0
  162.1539  142.6524  184.5692 F   0  0  0  0  0  0  0  0  0  0  0  0
  160.9364  143.2020  184.9506 C   0  0  0  0  0  0  0  0  0  0  0  0
  160.7443  144.3757  184.3094 F   0  0  0  0  0  0  0  0  0  0  0  0
  161.0393  143.4005  186.3337 F   0  0  0  0  0  0  0  0  0  0  0  0
 36 37  1  0  0  0
 37 38  1  0  0  0
 37 39  1  0  0  0
 37 30  1  0  0  0
 30 31  2  0  0  0
 31 32  1  0  0  0
 32 33  2  0  0  0
 33 28  1  0  0  0
 28  1  1  0  0  0
  1  2  2  0  0  0
  2  3  1  0  0  0
  3  4  2  0  0  0
  4  5  1  0  0  0
  5  6  1  0  0  0
  6  7  1  0  0  0
  7  8  1  0  0  0
  8  9  1  0  0  0
  9 10  1  0  0  0
 10 11  1  0  0  0
  8 12  1  0  0  0
 12 13  2  0  0  0
 13 14  1  0  0  0
 14 15  2  0  0  0
 15 16  1  0  0  0
 16 17  2  0  0  0
 17 18  1  0  0  0
 18 19  1  0  0  0
 18 20  1  0  0  0
 18 21  1  0  0  0
  3 22  1  0  0  0
 22 23  1  0  0  0
 23 24  1  0  0  0
 24 25  1  0  0  0
 25 26  1  0  0  0
 26 27  1  0  0  0
 33 34  1  0  0  0
 34 35  2  0  0  0
 35 30  1  0  0  0
 11  1  1  0  0  0
 17 12  1  0  0  0
 27 22  1  0  0  0
 11  5  2  0  0  0
 28 29  1  0  0  0
M  END
> <minimizedAffinity>
-9.44910

> <CNNscore>
0.3207539916

> <CNNaffinity>
7.0792708397

> <CNN_VS>
2.2707042694

> <CNNaffinity_variance>
0.1209680885

$$$$
[H]c1nc(N2C([H])([H])C([H])([H])c3nc(N4C([H])([H])C([H])([H])C([H])([H])C([H])([H])C4([H])[H])nc(N([H])c4nc([H])c(C(F)(F)F)c([H])c4[H])c3C([H])([H])C2([H])[H])c(C(F)(F)F)c([H])c1[H]


 39 43  0  0  0  0  0  0  0  0999 V2000
  156.7008  133.2488  187.4129 C   0  0  0  0  0  0  0  0  0  0  0  0
  155.9563  133.8747  188.3192 N   0  0  0  0  0  0  0  0  0  0  0  0
  154.9568  134.7300  187.9569 C   0  0  0  0  0  0  0  0  0  0  0  0
  154.6555  134.9834  186.6562 N   0  0  0  0  0  0  0  0  0  0  0  0
  155.3667  134.3699  185.7095 C   0  0  0  0  0  0  0  0  0  0  0  0
  154.8522  134.6846  184.3275 C   0  0  0  0  0  0  0  0  0  0  0  0
  154.4590  133.3379  183.7227 C   0  0  0  0  0  0  0  0  0  0  0  0
  155.6062  132.5269  183.4562 N   0  0  0  0  0  0  0  0  0  0  0  0
  156.3882  131.7234  184.3779 C   0  0  0  0  0  0  0  0  0  0  0  0
  157.2545  132.6956  185.2372 C   0  0  0  0  0  0  0  0  0  0  0  0
  156.3724  133.5255  186.0777 C   0  0  0  0  0  0  0  0  0  0  0  0
  156.0811  132.5003  182.1239 C   0  0  0  0  0  0  0  0  0  0  0  0
  157.4556  132.5443  181.9238 N   0  0  0  0  0  0  0  0  0  0  0  0
  158.0069  132.5377  180.7159 C   0  0  0  0  0  0  0  0  0  0  0  0
  157.1516  132.4922  179.6404 C   0  0  0  0  0  0  0  0  0  0  0  0
  155.7899  132.4505  179.8065 C   0  0  0  0  0  0  0  0  0  0  0  0
  155.2073  132.4506  181.0727 C   0  0  0  0  0  0  0  0  0  0  0  0
  153.7599  132.3653  181.2093 C   0  0  0  0  0  0  0  0  0  0  0  0
  153.2827  131.7422  182.3183 F   0  0  0  0  0  0  0  0  0  0  0  0
  153.0691  131.9351  180.0872 F   0  0  0  0  0  0  0  0  0  0  0  0
  153.2825  133.7079  181.3560 F   0  0  0  0  0  0  0  0  0  0  0  0
  154.2436  135.5683  188.8851 N   0  0  0  0  0  0  0  0  0  0  0  0
  153.4578  134.8644  189.8982 C   0  0  0  0  0  0  0  0  0  0  0  0
  153.0405  135.8327  190.9802 C   0  0  0  0  0  0  0  0  0  0  0  0
  152.2895  137.0117  190.3801 C   0  0  0  0  0  0  0  0  0  0  0  0
  153.0716  137.7029  189.3223 C   0  0  0  0  0  0  0  0  0  0  0  0
  154.2913  136.9804  188.8758 C   0  0  0  0  0  0  0  0  0  0  0  0
  157.8769  132.5744  187.7367 N   0  0  0  0  0  0  0  0  0  0  0  0
  157.7130  131.7959  188.4961 H   0  0  0  0  0  0  0  0  0  0  0  0
  161.6634  132.7568  185.9786 C   0  0  0  0  0  0  0  0  0  0  0  0
  161.3871  131.7707  186.9118 C   0  0  0  0  0  0  0  0  0  0  0  0
  160.1636  131.7077  187.5421 C   0  0  0  0  0  0  0  0  0  0  0  0
  159.1785  132.6257  187.2511 C   0  0  0  0  0  0  0  0  0  0  0  0
  159.4895  133.5929  186.3332 N   0  0  0  0  0  0  0  0  0  0  0  0
  160.6705  133.6803  185.7103 C   0  0  0  0  0  0  0  0  0  0  0  0
  163.5937  134.0205  185.5651 F   0  0  0  0  0  0  0  0  0  0  0  0
  162.9414  132.8329  185.2585 C   0  0  0  0  0  0  0  0  0  0  0  0
  163.7740  131.7886  185.4634 F   0  0  0  0  0  0  0  0  0  0  0  0
  162.5998  132.9397  183.9039 F   0  0  0  0  0  0  0  0  0  0  0  0
 36 37  1  0  0  0
 37 38  1  0  0  0
 37 39  1  0  0  0
 37 30  1  0  0  0
 30 31  2  0  0  0
 31 32  1  0  0  0
 32 33  2  0  0  0
 33 28  1  0  0  0
 28  1  1  0  0  0
  1  2  2  0  0  0
  2  3  1  0  0  0
  3  4  2  0  0  0
  4  5  1  0  0  0
  5  6  1  0  0  0
  6  7  1  0  0  0
  7  8  1  0  0  0
  8  9  1  0  0  0
  9 10  1  0  0  0
 10 11  1  0  0  0
  8 12  1  0  0  0
 12 13  2  0  0  0
 13 14  1  0  0  0
 14 15  2  0  0  0
 15 16  1  0  0  0
 16 17  2  0  0  0
 17 18  1  0  0  0
 18 19  1  0  0  0
 18 20  1  0  0  0
 18 21  1  0  0  0
  3 22  1  0  0  0
 22 23  1  0  0  0
 23 24  1  0  0  0
 24 25  1  0  0  0
 25 26  1  0  0  0
 26 27  1  0  0  0
 33 34  1  0  0  0
 34 35  2  0  0  0
 35 30  1  0  0  0
 11  1  1  0  0  0
 17 12  1  0  0  0
 27 22  1  0  0  0
 11  5  2  0  0  0
 28 29  1  0  0  0
M  END
> <minimizedAffinity>
9.65912

> <CNNscore>
0.3174779713

> <CNNaffinity>
6.4508619308

> <CNN_VS>
2.0480065346

> <CNNaffinity_variance>
1.6395769119

$$$$
[H]c1nc(N2C([H])([H])C([H])([H])c3nc(N4C([H])([H])C([H])([H])C([H])([H])C([H])([H])C4([H])[H])nc(N([H])c4nc([H])c(C(F)(F)F)c([H])c4[H])c3C([H])([H])C2([H])[H])c(C(F)(F)F)c([H])c1[H]


 39 43  0  0  0  0  0  0  0  0999 V2000
  153.9096  138.5889  184.7030 C   0  0  0  0  0  0  0  0  0  0  0  0
  154.8989  139.4749  184.6413 N   0  0  0  0  0  0  0  0  0  0  0  0
  155.1881  140.1451  183.4884 C   0  0  0  0  0  0  0  0  0  0  0  0
  154.4798  139.9579  182.3439 N   0  0  0  0  0  0  0  0  0  0  0  0
  153.4694  139.0876  182.3587 C   0  0  0  0  0  0  0  0  0  0  0  0
  152.7306  139.0620  181.0446 C   0  0  0  0  0  0  0  0  0  0  0  0
  151.2917  139.4521  181.3786 C   0  0  0  0  0  0  0  0  0  0  0  0
  150.6322  138.4315  182.1323 N   0  0  0  0  0  0  0  0  0  0  0  0
  150.7309  138.1381  183.5504 C   0  0  0  0  0  0  0  0  0  0  0  0
  152.1105  137.4530  183.7980 C   0  0  0  0  0  0  0  0  0  0  0  0
  153.1928  138.4117  183.5105 C   0  0  0  0  0  0  0  0  0  0  0  0
  149.7754  137.5579  181.4223 C   0  0  0  0  0  0  0  0  0  0  0  0
  150.2320  136.2718  181.1605 N   0  0  0  0  0  0  0  0  0  0  0  0
  149.5152  135.3766  180.4913 C   0  0  0  0  0  0  0  0  0  0  0  0
  148.2766  135.7757  180.0472 C   0  0  0  0  0  0  0  0  0  0  0  0
  147.7998  137.0398  180.2883 C   0  0  0  0  0  0  0  0  0  0  0  0
  148.5463  137.9803  180.9960 C   0  0  0  0  0  0  0  0  0  0  0  0
  147.9900  139.2989  181.2663 C   0  0  0  0  0  0  0  0  0  0  0  0
  147.8811  139.6646  182.5703 F   0  0  0  0  0  0  0  0  0  0  0  0
  146.8266  139.6179  180.5836 F   0  0  0  0  0  0  0  0  0  0  0  0
  148.9180  140.2518  180.7345 F   0  0  0  0  0  0  0  0  0  0  0  0
  156.3523  140.9741  183.3139 N   0  0  0  0  0  0  0  0  0  0  0  0
  156.1105  142.2860  182.7143 C   0  0  0  0  0  0  0  0  0  0  0  0
  157.3320  143.1576  182.8905 C   0  0  0  0  0  0  0  0  0  0  0  0
  158.5623  142.4744  182.3131 C   0  0  0  0  0  0  0  0  0  0  0  0
  158.7857  141.1244  182.8929 C   0  0  0  0  0  0  0  0  0  0  0  0
  157.6573  140.6004  183.7060 C   0  0  0  0  0  0  0  0  0  0  0  0
  153.7468  137.7119  185.7741 N   0  0  0  0  0  0  0  0  0  0  0  0
  152.7038  137.6697  186.1208 H   0  0  0  0  0  0  0  0  0  0  0  0
  156.5541  135.2175  187.6068 C   0  0  0  0  0  0  0  0  0  0  0  0
  155.4220  134.6672  187.0278 C   0  0  0  0  0  0  0  0  0  0  0  0
  154.4558  135.4637  186.4530 C   0  0  0  0  0  0  0  0  0  0  0  0
  154.5984  136.8339  186.4347 C   0  0  0  0  0  0  0  0  0  0  0  0
  155.7231  137.3442  187.0258 N   0  0  0  0  0  0  0  0  0  0  0  0
  156.6740  136.5945  187.5952 C   0  0  0  0  0  0  0  0  0  0  0  0
  158.7205  135.1938  188.5014 F   0  0  0  0  0  0  0  0  0  0  0  0
  157.6231  134.3992  188.1945 C   0  0  0  0  0  0  0  0  0  0  0  0
  157.2602  133.6824  189.2809 F   0  0  0  0  0  0  0  0  0  0  0  0
  158.0563  133.5559  187.1629 F   0  0  0  0  0  0  0  0  0  0  0  0
 36 37  1  0  0  0
 37 38  1  0  0  0
 37 39  1  0  0  0
 37 30  1  0  0  0
 30 31  2  0  0  0
 31 32  1  0  0  0
 32 33  2  0  0  0
 33 28  1  0  0  0
 28  1  1  0  0  0
  1  2  2  0  0  0
  2  3  1  0  0  0
  3  4  2  0  0  0
  4  5  1  0  0  0
  5  6  1  0  0  0
  6  7  1  0  0  0
  7  8  1  0  0  0
  8  9  1  0  0  0
  9 10  1  0  0  0
 10 11  1  0  0  0
  8 12  1  0  0  0
 12 13  2  0  0  0
 13 14  1  0  0  0
 14 15  2  0  0  0
 15 16  1  0  0  0
 16 17  2  0  0  0
 17 18  1  0  0  0
 18 19  1  0  0  0
 18 20  1  0  0  0
 18 21  1  0  0  0
  3 22  1  0  0  0
 22 23  1  0  0  0
 23 24  1  0  0  0
 24 25  1  0  0  0
 25 26  1  0  0  0
 26 27  1  0  0  0
 33 34  1  0  0  0
 34 35  2  0  0  0
 35 30  1  0  0  0
 11  1  1  0  0  0
 17 12  1  0  0  0
 27 22  1  0  0  0
 11  5  2  0  0  0
 28 29  1  0  0  0
M  END
> <minimizedAffinity>
-6.75843

> <CNNscore>
0.3128236532

> <CNNaffinity>
6.6817522049

> <CNN_VS>
2.0902101994

> <CNNaffinity_variance>
0.0666314960

$$$$
[H]c1nc(N2C([H])([H])C([H])([H])c3nc(N4C([H])([H])C([H])([H])C([H])([H])C([H])([H])C4([H])[H])nc(N([H])c4nc([H])c(C(F)(F)F)c([H])c4[H])c3C([H])([H])C2([H])[H])c(C(F)(F)F)c([H])c1[H]


 39 43  0  0  0  0  0  0  0  0999 V2000
  155.2270  139.3027  184.2054 C   0  0  0  0  0  0  0  0  0  0  0  0
  154.1498  138.8907  183.5441 N   0  0  0  0  0  0  0  0  0  0  0  0
  153.6207  139.6157  182.5163 C   0  0  0  0  0  0  0  0  0  0  0  0
  154.1658  140.7892  182.1009 N   0  0  0  0  0  0  0  0  0  0  0  0
  155.2550  141.2386  182.7256 C   0  0  0  0  0  0  0  0  0  0  0  0
  155.7872  142.4984  182.0908 C   0  0  0  0  0  0  0  0  0  0  0  0
  157.2092  142.1609  181.6457 C   0  0  0  0  0  0  0  0  0  0  0  0
  158.0804  141.9781  182.7648 N   0  0  0  0  0  0  0  0  0  0  0  0
  158.2273  140.8186  183.6255 C   0  0  0  0  0  0  0  0  0  0  0  0
  156.9824  140.7641  184.5644 C   0  0  0  0  0  0  0  0  0  0  0  0
  155.7722  140.5158  183.7601 C   0  0  0  0  0  0  0  0  0  0  0  0
  158.9106  143.0671  183.1199 C   0  0  0  0  0  0  0  0  0  0  0  0
  158.5648  144.3276  182.6481 N   0  0  0  0  0  0  0  0  0  0  0  0
  159.2805  145.4148  182.9102 C   0  0  0  0  0  0  0  0  0  0  0  0
  160.4090  145.2482  183.6779 C   0  0  0  0  0  0  0  0  0  0  0  0
  160.7772  144.0156  184.1561 C   0  0  0  0  0  0  0  0  0  0  0  0
  160.0251  142.8730  183.8887 C   0  0  0  0  0  0  0  0  0  0  0  0
  160.4262  141.5890  184.4469 C   0  0  0  0  0  0  0  0  0  0  0  0
  160.4206  140.5235  183.6039 F   0  0  0  0  0  0  0  0  0  0  0  0
  159.8409  141.2434  185.6549 F   0  0  0  0  0  0  0  0  0  0  0  0
  161.8064  141.7133  184.8097 F   0  0  0  0  0  0  0  0  0  0  0  0
  152.3608  139.3138  181.8880 N   0  0  0  0  0  0  0  0  0  0  0  0
  151.6166  138.1961  182.4679 C   0  0  0  0  0  0  0  0  0  0  0  0
  150.2010  138.2004  181.9399 C   0  0  0  0  0  0  0  0  0  0  0  0
  150.1991  138.1711  180.4191 C   0  0  0  0  0  0  0  0  0  0  0  0
  150.9886  139.2836  179.8296 C   0  0  0  0  0  0  0  0  0  0  0  0
  151.8240  140.0380  180.8000 C   0  0  0  0  0  0  0  0  0  0  0  0
  155.6421  138.7282  185.4057 N   0  0  0  0  0  0  0  0  0  0  0  0
  156.7270  138.5492  185.4265 H   0  0  0  0  0  0  0  0  0  0  0  0
  153.8641  137.5001  188.9824 C   0  0  0  0  0  0  0  0  0  0  0  0
  153.0713  137.9726  187.9489 C   0  0  0  0  0  0  0  0  0  0  0  0
  153.6277  138.4253  186.7726 C   0  0  0  0  0  0  0  0  0  0  0  0
  154.9937  138.4116  186.5939 C   0  0  0  0  0  0  0  0  0  0  0  0
  155.7471  137.9493  187.6395 N   0  0  0  0  0  0  0  0  0  0  0  0
  155.2334  137.5087  188.7938 C   0  0  0  0  0  0  0  0  0  0  0  0
  153.7394  137.7381  191.3108 F   0  0  0  0  0  0  0  0  0  0  0  0
  153.3056  136.9739  190.2349 C   0  0  0  0  0  0  0  0  0  0  0  0
  151.9583  136.8732  190.2601 F   0  0  0  0  0  0  0  0  0  0  0  0
  153.9027  135.7187  190.4105 F   0  0  0  0  0  0  0  0  0  0  0  0
 36 37  1  0  0  0
 37 38  1  0  0  0
 37 39  1  0  0  0
 37 30  1  0  0  0
 30 31  2  0  0  0
 31 32  1  0  0  0
 32 33  2  0  0  0
 33 28  1  0  0  0
 28  1  1  0  0  0
  1  2  2  0  0  0
  2  3  1  0  0  0
  3  4  2  0  0  0
  4  5  1  0  0  0
  5  6  1  0  0  0
  6  7  1  0  0  0
  7  8  1  0  0  0
  8  9  1  0  0  0
  9 10  1  0  0  0
 10 11  1  0  0  0
  8 12  1  0  0  0
 12 13  2  0  0  0
 13 14  1  0  0  0
 14 15  2  0  0  0
 15 16  1  0  0  0
 16 17  2  0  0  0
 17 18  1  0  0  0
 18 19  1  0  0  0
 18 20  1  0  0  0
 18 21  1  0  0  0
  3 22  1  0  0  0
 22 23  1  0  0  0
 23 24  1  0  0  0
 24 25  1  0  0  0
 25 26  1  0  0  0
 26 27  1  0  0  0
 33 34  1  0  0  0
 34 35  2  0  0  0
 35 30  1  0  0  0
 11  1  1  0  0  0
 17 12  1  0  0  0
 27 22  1  0  0  0
 11  5  2  0  0  0
 28 29  1  0  0  0
M  END
> <minimizedAffinity>
-10.50692

> <CNNscore>
0.3071761429

> <CNNaffinity>
7.2933416367

> <CNN_VS>
2.2403404713

> <CNNaffinity_variance>
0.1011000052

$$$$
[H]c1nc(N2C([H])([H])C([H])([H])c3nc(N4C([H])([H])C([H])([H])C([H])([H])C([H])([H])C4([H])[H])nc(N([H])c4nc([H])c(C(F)(F)F)c([H])c4[H])c3C([H])([H])C2([H])[H])c(C(F)(F)F)c([H])c1[H]


 39 43  0  0  0  0  0  0  0  0999 V2000
  157.2565  140.9056  184.3119 C   0  0  0  0  0  0  0  0  0  0  0  0
  157.6354  141.7223  183.3337 N   0  0  0  0  0  0  0  0  0  0  0  0
  157.0489  141.6838  182.1022 C   0  0  0  0  0  0  0  0  0  0  0  0
  156.0404  140.8224  181.8061 N   0  0  0  0  0  0  0  0  0  0  0  0
  155.6168  139.9908  182.7587 C   0  0  0  0  0  0  0  0  0  0  0  0
  154.4387  139.1676  182.3026 C   0  0  0  0  0  0  0  0  0  0  0  0
  153.3058  139.5069  183.2698 C   0  0  0  0  0  0  0  0  0  0  0  0
  153.5621  138.9938  184.5797 N   0  0  0  0  0  0  0  0  0  0  0  0
  154.4194  139.5347  185.6186 C   0  0  0  0  0  0  0  0  0  0  0  0
  155.8982  139.2607  185.2037 C   0  0  0  0  0  0  0  0  0  0  0  0
  156.2149  140.0254  183.9839 C   0  0  0  0  0  0  0  0  0  0  0  0
  152.9234  137.7822  184.9337 C   0  0  0  0  0  0  0  0  0  0  0  0
  152.6362  136.8789  183.9174 N   0  0  0  0  0  0  0  0  0  0  0  0
  152.0280  135.7193  184.1368 C   0  0  0  0  0  0  0  0  0  0  0  0
  151.6750  135.4362  185.4352 C   0  0  0  0  0  0  0  0  0  0  0  0
  151.9432  136.3095  186.4594 C   0  0  0  0  0  0  0  0  0  0  0  0
  152.5874  137.5248  186.2344 C   0  0  0  0  0  0  0  0  0  0  0  0
  152.8903  138.4074  187.3525 C   0  0  0  0  0  0  0  0  0  0  0  0
  152.4922  137.9969  188.5850 F   0  0  0  0  0  0  0  0  0  0  0  0
  152.5758  139.7452  187.1717 F   0  0  0  0  0  0  0  0  0  0  0  0
  154.3177  138.4500  187.4658 F   0  0  0  0  0  0  0  0  0  0  0  0
  157.5360  142.4119  180.9596 N   0  0  0  0  0  0  0  0  0  0  0  0
  157.5572  141.6703  179.6991 C   0  0  0  0  0  0  0  0  0  0  0  0
  157.7699  142.6281  178.5501 C   0  0  0  0  0  0  0  0  0  0  0  0
  159.0358  143.4442  178.7637 C   0  0  0  0  0  0  0  0  0  0  0  0
  159.0324  144.1661  180.0626 C   0  0  0  0  0  0  0  0  0  0  0  0
  157.9503  143.7622  180.9979 C   0  0  0  0  0  0  0  0  0  0  0  0
  157.9895  140.7425  185.4862 N   0  0  0  0  0  0  0  0  0  0  0  0
  157.4982  140.0544  186.1897 H   0  0  0  0  0  0  0  0  0  0  0  0
  161.5758  142.3935  186.8555 C   0  0  0  0  0  0  0  0  0  0  0  0
  161.5388  141.7582  185.6247 C   0  0  0  0  0  0  0  0  0  0  0  0
  160.3840  141.1659  185.1621 C   0  0  0  0  0  0  0  0  0  0  0  0
  159.2307  141.1987  185.9150 C   0  0  0  0  0  0  0  0  0  0  0  0
  159.3061  141.8244  187.1305 N   0  0  0  0  0  0  0  0  0  0  0  0
  160.4150  142.4030  187.6059 C   0  0  0  0  0  0  0  0  0  0  0  0
  162.5690  144.4415  187.4149 F   0  0  0  0  0  0  0  0  0  0  0  0
  162.7767  143.0689  187.3646 C   0  0  0  0  0  0  0  0  0  0  0  0
  163.2122  142.6286  188.5656 F   0  0  0  0  0  0  0  0  0  0  0  0
  163.7555  142.8806  186.3799 F   0  0  0  0  0  0  0  0  0  0  0  0
 36 37  1  0  0  0
 37 38  1  0  0  0
 37 39  1  0  0  0
 37 30  1  0  0  0
 30 31  2  0  0  0
 31 32  1  0  0  0
 32 33  2  0  0  0
 33 28  1  0  0  0
 28  1  1  0  0  0
  1  2  2  0  0  0
  2  3  1  0  0  0
  3  4  2  0  0  0
  4  5  1  0  0  0
  5  6  1  0  0  0
  6  7  1  0  0  0
  7  8  1  0  0  0
  8  9  1  0  0  0
  9 10  1  0  0  0
 10 11  1  0  0  0
  8 12  1  0  0  0
 12 13  2  0  0  0
 13 14  1  0  0  0
 14 15  2  0  0  0
 15 16  1  0  0  0
 16 17  2  0  0  0
 17 18  1  0  0  0
 18 19  1  0  0  0
 18 20  1  0  0  0
 18 21  1  0  0  0
  3 22  1  0  0  0
 22 23  1  0  0  0
 23 24  1  0  0  0
 24 25  1  0  0  0
 25 26  1  0  0  0
 26 27  1  0  0  0
 33 34  1  0  0  0
 34 35  2  0  0  0
 35 30  1  0  0  0
 11  1  1  0  0  0
 17 12  1  0  0  0
 27 22  1  0  0  0
 11  5  2  0  0  0
 28 29  1  0  0  0
M  END
> <minimizedAffinity>
-3.18784

> <CNNscore>
0.2982643545

> <CNNaffinity>
7.1669058800

> <CNN_VS>
2.1376326084

> <CNNaffinity_variance>
0.9465497732

$$$$
[H]c1nc(N2C([H])([H])C([H])([H])c3nc(N4C([H])([H])C([H])([H])C([H])([H])C([H])([H])C4([H])[H])nc(N([H])c4c([H])nc(C(F)(F)F)c([H])c4[H])c3C([H])([H])C2([H])[H])c(C(F)(F)F)c([H])c1[H]


 39 43  0  0  0  0  0  0  0  0999 V2000
  154.6765  138.8925  183.9824 C   0  0  0  0  0  0  0  0  0  0  0  0
  153.5320  138.6826  183.2914 N   0  0  0  0  0  0  0  0  0  0  0  0
  153.0575  139.5578  182.3737 C   0  0  0  0  0  0  0  0  0  0  0  0
  153.7016  140.6885  182.1006 N   0  0  0  0  0  0  0  0  0  0  0  0
  154.8509  140.9800  182.7399 C   0  0  0  0  0  0  0  0  0  0  0  0
  155.3627  142.3211  182.3418 C   0  0  0  0  0  0  0  0  0  0  0  0
  156.7609  142.2007  181.8236 C   0  0  0  0  0  0  0  0  0  0  0  0
  157.7069  141.8239  182.8778 N   0  0  0  0  0  0  0  0  0  0  0  0
  157.8075  140.6010  183.5662 C   0  0  0  0  0  0  0  0  0  0  0  0
  156.6133  140.1764  184.3995 C   0  0  0  0  0  0  0  0  0  0  0  0
  155.3447  140.0874  183.6777 C   0  0  0  0  0  0  0  0  0  0  0  0
  158.6378  142.8680  183.1925 C   0  0  0  0  0  0  0  0  0  0  0  0
  158.5047  144.0362  182.4775 N   0  0  0  0  0  0  0  0  0  0  0  0
  159.3420  145.0612  182.7014 C   0  0  0  0  0  0  0  0  0  0  0  0
  160.3281  144.9347  183.6437 C   0  0  0  0  0  0  0  0  0  0  0  0
  160.4763  143.7779  184.3610 C   0  0  0  0  0  0  0  0  0  0  0  0
  159.6044  142.6911  184.1433 C   0  0  0  0  0  0  0  0  0  0  0  0
  159.7568  141.4783  184.9498 C   0  0  0  0  0  0  0  0  0  0  0  0
  159.9050  140.3018  184.3056 F   0  0  0  0  0  0  0  0  0  0  0  0
  158.7548  141.3748  185.9328 F   0  0  0  0  0  0  0  0  0  0  0  0
  160.9186  141.6310  185.7415 F   0  0  0  0  0  0  0  0  0  0  0  0
  151.8243  139.3879  181.6762 N   0  0  0  0  0  0  0  0  0  0  0  0
  150.8430  138.3976  182.1057 C   0  0  0  0  0  0  0  0  0  0  0  0
  149.5157  138.7454  181.4659 C   0  0  0  0  0  0  0  0  0  0  0  0
  149.5938  138.6917  179.9566 C   0  0  0  0  0  0  0  0  0  0  0  0
  150.7990  139.4299  179.4313 C   0  0  0  0  0  0  0  0  0  0  0  0
  151.4782  140.1980  180.5319 C   0  0  0  0  0  0  0  0  0  0  0  0
  155.0134  138.0435  185.0253 N   0  0  0  0  0  0  0  0  0  0  0  0
  155.4546  137.1069  184.7076 H   0  0  0  0  0  0  0  0  0  0  0  0
  154.9663  138.3139  189.1939 C   0  0  0  0  0  0  0  0  0  0  0  0
  153.8073  138.6064  188.4798 C   0  0  0  0  0  0  0  0  0  0  0  0
  153.7813  138.5459  187.1009 C   0  0  0  0  0  0  0  0  0  0  0  0
  154.9295  138.1843  186.4143 C   0  0  0  0  0  0  0  0  0  0  0  0
  156.0451  137.9097  187.1771 C   0  0  0  0  0  0  0  0  0  0  0  0
  156.0738  137.9662  188.5069 N   0  0  0  0  0  0  0  0  0  0  0  0
  156.2009  137.8986  191.1445 F   0  0  0  0  0  0  0  0  0  0  0  0
  154.9764  138.3442  190.6763 C   0  0  0  0  0  0  0  0  0  0  0  0
  154.7645  139.6178  191.1605 F   0  0  0  0  0  0  0  0  0  0  0  0
  153.9857  137.5296  191.1966 F   0  0  0  0  0  0  0  0  0  0  0  0
 36 37  1  0  0  0
 37 38  1  0  0  0
 37 39  1  0  0  0
 37 30  1  0  0  0
 30 31  2  0  0  0
 31 32  1  0  0  0
 32 33  2  0  0  0
 33 28  1  0  0  0
 28  1  1  0  0  0
  1  2  2  0  0  0
  2  3  1  0  0  0
  3  4  2  0  0  0
  4  5  1  0  0  0
  5  6  1  0  0  0
  6  7  1  0  0  0
  7  8  1  0  0  0
  8  9  1  0  0  0
  9 10  1  0  0  0
 10 11  1  0  0  0
  8 12  1  0  0  0
 12 13  2  0  0  0
 13 14  1  0  0  0
 14 15  2  0  0  0
 15 16  1  0  0  0
 16 17  2  0  0  0
 17 18  1  0  0  0
 18 19  1  0  0  0
 18 20  1  0  0  0
 18 21  1  0  0  0
  3 22  1  0  0  0
 22 23  1  0  0  0
 23 24  1  0  0  0
 24 25  1  0  0  0
 25 26  1  0  0  0
 26 27  1  0  0  0
 33 34  1  0  0  0
 34 35  2  0  0  0
 35 30  1  0  0  0
 11  1  1  0  0  0
 17 12  1  0  0  0
 27 22  1  0  0  0
 11  5  2  0  0  0
 28 29  1  0  0  0
M  END
> <minimizedAffinity>
-11.63344

> <CNNscore>
0.6675348878

> <CNNaffinity>
7.8045072556

> <CNN_VS>
5.2097806931

> <CNNaffinity_variance>
0.0576343946

$$$$
[H]c1nc(N2C([H])([H])C([H])([H])c3nc(N4C([H])([H])C([H])([H])C([H])([H])C([H])([H])C4([H])[H])nc(N([H])c4c([H])nc(C(F)(F)F)c([H])c4[H])c3C([H])([H])C2([H])[H])c(C(F)(F)F)c([H])c1[H]


 39 43  0  0  0  0  0  0  0  0999 V2000
  154.4933  138.6157  184.1550 C   0  0  0  0  0  0  0  0  0  0  0  0
  153.3622  138.4803  183.4243 N   0  0  0  0  0  0  0  0  0  0  0  0
  152.9805  139.3815  182.4886 C   0  0  0  0  0  0  0  0  0  0  0  0
  153.7087  140.4649  182.2363 N   0  0  0  0  0  0  0  0  0  0  0  0
  154.8518  140.6812  182.9153 C   0  0  0  0  0  0  0  0  0  0  0  0
  155.4668  141.9829  182.5329 C   0  0  0  0  0  0  0  0  0  0  0  0
  156.8710  141.7663  182.0647 C   0  0  0  0  0  0  0  0  0  0  0  0
  157.7517  141.3311  183.1526 N   0  0  0  0  0  0  0  0  0  0  0  0
  157.7452  140.1073  183.8465 C   0  0  0  0  0  0  0  0  0  0  0  0
  156.4964  139.7679  184.6378 C   0  0  0  0  0  0  0  0  0  0  0  0
  155.2509  139.7614  183.8718 C   0  0  0  0  0  0  0  0  0  0  0  0
  158.7393  142.3115  183.4979 C   0  0  0  0  0  0  0  0  0  0  0  0
  159.1851  142.2922  184.7997 N   0  0  0  0  0  0  0  0  0  0  0  0
  160.1019  143.1826  185.2102 C   0  0  0  0  0  0  0  0  0  0  0  0
  160.5874  144.1091  184.3257 C   0  0  0  0  0  0  0  0  0  0  0  0
  160.1515  144.1441  183.0282 C   0  0  0  0  0  0  0  0  0  0  0  0
  159.1918  143.2147  182.5765 C   0  0  0  0  0  0  0  0  0  0  0  0
  158.7697  143.2457  181.1746 C   0  0  0  0  0  0  0  0  0  0  0  0
  157.5163  143.6622  180.8980 F   0  0  0  0  0  0  0  0  0  0  0  0
  159.0356  142.0277  180.5215 F   0  0  0  0  0  0  0  0  0  0  0  0
  159.6292  144.1326  180.4857 F   0  0  0  0  0  0  0  0  0  0  0  0
  151.7640  139.2921  181.7482 N   0  0  0  0  0  0  0  0  0  0  0  0
  150.7160  138.3503  182.1266 C   0  0  0  0  0  0  0  0  0  0  0  0
  149.4320  138.7820  181.4507 C   0  0  0  0  0  0  0  0  0  0  0  0
  149.5577  138.7498  179.9440 C   0  0  0  0  0  0  0  0  0  0  0  0
  150.8185  139.4290  179.4723 C   0  0  0  0  0  0  0  0  0  0  0  0
  151.5014  140.1395  180.6088 C   0  0  0  0  0  0  0  0  0  0  0  0
  154.7351  137.7505  185.2109 N   0  0  0  0  0  0  0  0  0  0  0  0
  154.9521  136.7336  184.9080 H   0  0  0  0  0  0  0  0  0  0  0  0
  155.0984  138.1822  189.3502 C   0  0  0  0  0  0  0  0  0  0  0  0
  153.9077  138.5507  188.7295 C   0  0  0  0  0  0  0  0  0  0  0  0
  153.7488  138.4404  187.3625 C   0  0  0  0  0  0  0  0  0  0  0  0
  154.7929  137.9510  186.5939 C   0  0  0  0  0  0  0  0  0  0  0  0
  155.9465  137.6060  187.2662 C   0  0  0  0  0  0  0  0  0  0  0  0
  156.1032  137.7102  188.5841 N   0  0  0  0  0  0  0  0  0  0  0  0
  156.5515  137.9630  191.1783 F   0  0  0  0  0  0  0  0  0  0  0  0
  155.2485  138.2678  190.8229 C   0  0  0  0  0  0  0  0  0  0  0  0
  154.9556  139.5312  191.2915 F   0  0  0  0  0  0  0  0  0  0  0  0
  154.4009  137.3790  191.4612 F   0  0  0  0  0  0  0  0  0  0  0  0
 36 37  1  0  0  0
 37 38  1  0  0  0
 37 39  1  0  0  0
 37 30  1  0  0  0
 30 31  2  0  0  0
 31 32  1  0  0  0
 32 33  2  0  0  0
 33 28  1  0  0  0
 28  1  1  0  0  0
  1  2  2  0  0  0
  2  3  1  0  0  0
  3  4  2  0  0  0
  4  5  1  0  0  0
  5  6  1  0  0  0
  6  7  1  0  0  0
  7  8  1  0  0  0
  8  9  1  0  0  0
  9 10  1  0  0  0
 10 11  1  0  0  0
  8 12  1  0  0  0
 12 13  2  0  0  0
 13 14  1  0  0  0
 14 15  2  0  0  0
 15 16  1  0  0  0
 16 17  2  0  0  0
 17 18  1  0  0  0
 18 19  1  0  0  0
 18 20  1  0  0  0
 18 21  1  0  0  0
  3 22  1  0  0  0
 22 23  1  0  0  0
 23 24  1  0  0  0
 24 25  1  0  0  0
 25 26  1  0  0  0
 26 27  1  0  0  0
 33 34  1  0  0  0
 34 35  2  0  0  0
 35 30  1  0  0  0
 11  1  1  0  0  0
 17 12  1  0  0  0
 27 22  1  0  0  0
 11  5  2  0  0  0
 28 29  1  0  0  0
M  END
> <minimizedAffinity>
-11.41777

> <CNNscore>
0.6247406006

> <CNNaffinity>
7.7008504868

> <CNN_VS>
4.8110337257

> <CNNaffinity_variance>
0.0318160057

$$$$
[H]c1nc(N2C([H])([H])C([H])([H])c3nc(N4C([H])([H])C([H])([H])C([H])([H])C([H])([H])C4([H])[H])nc(N([H])c4c([H])nc(C(F)(F)F)c([H])c4[H])c3C([H])([H])C2([H])[H])c(C(F)(F)F)c([H])c1[H]


 39 43  0  0  0  0  0  0  0  0999 V2000
  154.5501  138.5016  184.5158 C   0  0  0  0  0  0  0  0  0  0  0  0
  155.4149  139.5299  184.3531 N   0  0  0  0  0  0  0  0  0  0  0  0
  155.3621  140.3730  183.2948 C   0  0  0  0  0  0  0  0  0  0  0  0
  154.4435  140.2307  182.3442 N   0  0  0  0  0  0  0  0  0  0  0  0
  153.5402  139.2346  182.4243 C   0  0  0  0  0  0  0  0  0  0  0  0
  152.6575  139.2110  181.2246 C   0  0  0  0  0  0  0  0  0  0  0  0
  151.2241  139.2993  181.6435 C   0  0  0  0  0  0  0  0  0  0  0  0
  150.7854  138.0967  182.3575 N   0  0  0  0  0  0  0  0  0  0  0  0
  151.1775  137.6436  183.6304 C   0  0  0  0  0  0  0  0  0  0  0  0
  152.6422  137.2979  183.8203 C   0  0  0  0  0  0  0  0  0  0  0  0
  153.5855  138.3702  183.5063 C   0  0  0  0  0  0  0  0  0  0  0  0
  149.8177  137.3338  181.6246 C   0  0  0  0  0  0  0  0  0  0  0  0
  150.1749  136.0430  181.3084 N   0  0  0  0  0  0  0  0  0  0  0  0
  149.3318  135.2623  180.6143 C   0  0  0  0  0  0  0  0  0  0  0  0
  148.1172  135.7602  180.2230 C   0  0  0  0  0  0  0  0  0  0  0  0
  147.7482  137.0434  180.5263 C   0  0  0  0  0  0  0  0  0  0  0  0
  148.6181  137.8780  181.2581 C   0  0  0  0  0  0  0  0  0  0  0  0
  148.1862  139.2336  181.6051 C   0  0  0  0  0  0  0  0  0  0  0  0
  148.7868  140.2699  180.9836 F   0  0  0  0  0  0  0  0  0  0  0  0
  148.1750  139.4383  182.9975 F   0  0  0  0  0  0  0  0  0  0  0  0
  146.8119  139.3415  181.2896 F   0  0  0  0  0  0  0  0  0  0  0  0
  156.2978  141.4266  183.0702 N   0  0  0  0  0  0  0  0  0  0  0  0
  157.3391  141.7336  184.0448 C   0  0  0  0  0  0  0  0  0  0  0  0
  158.3961  142.5685  183.3537 C   0  0  0  0  0  0  0  0  0  0  0  0
  157.8317  143.8796  182.8545 C   0  0  0  0  0  0  0  0  0  0  0  0
  156.5411  143.6832  182.1001 C   0  0  0  0  0  0  0  0  0  0  0  0
  156.2756  142.2213  181.8647 C   0  0  0  0  0  0  0  0  0  0  0  0
  154.7658  137.5779  185.5268 N   0  0  0  0  0  0  0  0  0  0  0  0
  154.8828  136.5596  185.1772 H   0  0  0  0  0  0  0  0  0  0  0  0
  154.9853  138.1635  189.6573 C   0  0  0  0  0  0  0  0  0  0  0  0
  156.0812  137.6264  188.9870 C   0  0  0  0  0  0  0  0  0  0  0  0
  156.0475  137.4007  187.6254 C   0  0  0  0  0  0  0  0  0  0  0  0
  154.9026  137.7173  186.9118 C   0  0  0  0  0  0  0  0  0  0  0  0
  153.8507  138.2430  187.6322 C   0  0  0  0  0  0  0  0  0  0  0  0
  153.8797  138.4628  188.9449 N   0  0  0  0  0  0  0  0  0  0  0  0
  155.0031  139.8049  191.3328 F   0  0  0  0  0  0  0  0  0  0  0  0
  155.0421  138.4383  191.1133 C   0  0  0  0  0  0  0  0  0  0  0  0
  153.9827  137.8615  191.7815 F   0  0  0  0  0  0  0  0  0  0  0  0
  156.2075  137.9386  191.6681 F   0  0  0  0  0  0  0  0  0  0  0  0
 36 37  1  0  0  0
 37 38  1  0  0  0
 37 39  1  0  0  0
 37 30  1  0  0  0
 30 31  2  0  0  0
 31 32  1  0  0  0
 32 33  2  0  0  0
 33 28  1  0  0  0
 28  1  1  0  0  0
  1  2  2  0  0  0
  2  3  1  0  0  0
  3  4  2  0  0  0
  4  5  1  0  0  0
  5  6  1  0  0  0
  6  7  1  0  0  0
  7  8  1  0  0  0
  8  9  1  0  0  0
  9 10  1  0  0  0
 10 11  1  0  0  0
  8 12  1  0  0  0
 12 13  2  0  0  0
 13 14  1  0  0  0
 14 15  2  0  0  0
 15 16  1  0  0  0
 16 17  2  0  0  0
 17 18  1  0  0  0
 18 19  1  0  0  0
 18 20  1  0  0  0
 18 21  1  0  0  0
  3 22  1  0  0  0
 22 23  1  0  0  0
 23 24  1  0  0  0
 24 25  1  0  0  0
 25 26  1  0  0  0
 26 27  1  0  0  0
 33 34  1  0  0  0
 34 35  2  0  0  0
 35 30  1  0  0  0
 11  1  1  0  0  0
 17 12  1  0  0  0
 27 22  1  0  0  0
 11  5  2  0  0  0
 28 29  1  0  0  0
M  END
> <minimizedAffinity>
-8.99097

> <CNNscore>
0.4986670315

> <CNNaffinity>
7.1182684898

> <CNN_VS>
3.5496459007

> <CNNaffinity_variance>
0.0411110595

$$$$
[H]c1nc(N2C([H])([H])C([H])([H])c3nc(N4C([H])([H])C([H])([H])C([H])([H])C([H])([H])C4([H])[H])nc(N([H])c4c([H])nc(C(F)(F)F)c([H])c4[H])c3C([H])([H])C2([H])[H])c(C(F)(F)F)c([H])c1[H]


 39 43  0  0  0  0  0  0  0  0999 V2000
  153.6691  138.5843  184.8639 C   0  0  0  0  0  0  0  0  0  0  0  0
  154.6380  139.5152  184.7021 N   0  0  0  0  0  0  0  0  0  0  0  0
  154.8546  140.1529  183.5275 C   0  0  0  0  0  0  0  0  0  0  0  0
  154.1150  139.8918  182.4539 N   0  0  0  0  0  0  0  0  0  0  0  0
  153.1262  138.9797  182.5228 C   0  0  0  0  0  0  0  0  0  0  0  0
  152.4778  138.7876  181.1956 C   0  0  0  0  0  0  0  0  0  0  0  0
  151.0060  139.0316  181.3063 C   0  0  0  0  0  0  0  0  0  0  0  0
  150.3384  138.0060  182.1130 N   0  0  0  0  0  0  0  0  0  0  0  0
  150.4502  137.7710  183.4956 C   0  0  0  0  0  0  0  0  0  0  0  0
  151.8188  137.3836  184.0226 C   0  0  0  0  0  0  0  0  0  0  0  0
  152.8962  138.3257  183.7226 C   0  0  0  0  0  0  0  0  0  0  0  0
  149.4553  137.1781  181.3446 C   0  0  0  0  0  0  0  0  0  0  0  0
  149.9721  135.9795  180.9086 N   0  0  0  0  0  0  0  0  0  0  0  0
  149.2163  135.1484  180.1738 C   0  0  0  0  0  0  0  0  0  0  0  0
  147.9306  135.5027  179.8611 C   0  0  0  0  0  0  0  0  0  0  0  0
  147.4026  136.6931  180.2840 C   0  0  0  0  0  0  0  0  0  0  0  0
  148.1791  137.5782  181.0602 C   0  0  0  0  0  0  0  0  0  0  0  0
  147.5808  138.8278  181.5346 C   0  0  0  0  0  0  0  0  0  0  0  0
  146.9029  138.8044  182.7012 F   0  0  0  0  0  0  0  0  0  0  0  0
  146.8118  139.4519  180.5345 F   0  0  0  0  0  0  0  0  0  0  0  0
  148.6255  139.7634  181.7169 F   0  0  0  0  0  0  0  0  0  0  0  0
  155.9065  141.0934  183.3155 N   0  0  0  0  0  0  0  0  0  0  0  0
  155.7075  142.2758  182.4844 C   0  0  0  0  0  0  0  0  0  0  0  0
  156.8147  143.2599  182.7971 C   0  0  0  0  0  0  0  0  0  0  0  0
  158.1761  142.6896  182.4679 C   0  0  0  0  0  0  0  0  0  0  0  0
  158.3486  141.2970  183.0197 C   0  0  0  0  0  0  0  0  0  0  0  0
  157.2049  140.9352  183.9274 C   0  0  0  0  0  0  0  0  0  0  0  0
  153.6134  137.8495  186.0382 N   0  0  0  0  0  0  0  0  0  0  0  0
  152.6742  137.9372  186.5701 H   0  0  0  0  0  0  0  0  0  0  0  0
  156.4774  135.4616  187.9217 C   0  0  0  0  0  0  0  0  0  0  0  0
  155.6387  134.8929  186.9667 C   0  0  0  0  0  0  0  0  0  0  0  0
  154.6675  135.6401  186.3307 C   0  0  0  0  0  0  0  0  0  0  0  0
  154.5266  136.9821  186.6464 C   0  0  0  0  0  0  0  0  0  0  0  0
  155.3845  137.4858  187.6014 C   0  0  0  0  0  0  0  0  0  0  0  0
  156.3226  136.7687  188.2163 N   0  0  0  0  0  0  0  0  0  0  0  0
  157.5734  134.9411  189.9291 F   0  0  0  0  0  0  0  0  0  0  0  0
  157.5430  134.6624  188.5732 C   0  0  0  0  0  0  0  0  0  0  0  0
  157.3333  133.3089  188.4134 F   0  0  0  0  0  0  0  0  0  0  0  0
  158.7842  134.9586  188.0371 F   0  0  0  0  0  0  0  0  0  0  0  0
 36 37  1  0  0  0
 37 38  1  0  0  0
 37 39  1  0  0  0
 37 30  1  0  0  0
 30 31  2  0  0  0
 31 32  1  0  0  0
 32 33  2  0  0  0
 33 28  1  0  0  0
 28  1  1  0  0  0
  1  2  2  0  0  0
  2  3  1  0  0  0
  3  4  2  0  0  0
  4  5  1  0  0  0
  5  6  1  0  0  0
  6  7  1  0  0  0
  7  8  1  0  0  0
  8  9  1  0  0  0
  9 10  1  0  0  0
 10 11  1  0  0  0
  8 12  1  0  0  0
 12 13  2  0  0  0
 13 14  1  0  0  0
 14 15  2  0  0  0
 15 16  1  0  0  0
 16 17  2  0  0  0
 17 18  1  0  0  0
 18 19  1  0  0  0
 18 20  1  0  0  0
 18 21  1  0  0  0
  3 22  1  0  0  0
 22 23  1  0  0  0
 23 24  1  0  0  0
 24 25  1  0  0  0
 25 26  1  0  0  0
 26 27  1  0  0  0
 33 34  1  0  0  0
 34 35  2  0  0  0
 35 30  1  0  0  0
 11  1  1  0  0  0
 17 12  1  0  0  0
 27 22  1  0  0  0
 11  5  2  0  0  0
 28 29  1  0  0  0
M  END
> <minimizedAffinity>
-7.17503

> <CNNscore>
0.3644818068

> <CNNaffinity>
6.8094625473

> <CNN_VS>
2.4819252491

> <CNNaffinity_variance>
0.0003245984

$$$$
[H]c1nc(N2C([H])([H])C([H])([H])c3nc(N4C([H])([H])C([H])([H])C([H])([H])C([H])([H])C4([H])[H])nc(N([H])c4c([H])nc(C(F)(F)F)c([H])c4[H])c3C([H])([H])C2([H])[H])c(C(F)(F)F)c([H])c1[H]


 39 43  0  0  0  0  0  0  0  0999 V2000
  152.9665  137.3958  184.3818 C   0  0  0  0  0  0  0  0  0  0  0  0
  151.6706  137.3543  183.9940 N   0  0  0  0  0  0  0  0  0  0  0  0
  150.7238  136.6617  184.6702 C   0  0  0  0  0  0  0  0  0  0  0  0
  151.0238  135.9738  185.7677 N   0  0  0  0  0  0  0  0  0  0  0  0
  152.2896  135.9592  186.2283 C   0  0  0  0  0  0  0  0  0  0  0  0
  152.4193  135.0711  187.4172 C   0  0  0  0  0  0  0  0  0  0  0  0
  152.9893  135.8385  188.5679 C   0  0  0  0  0  0  0  0  0  0  0  0
  154.3837  136.2248  188.3335 N   0  0  0  0  0  0  0  0  0  0  0  0
  154.8898  137.1522  187.4045 C   0  0  0  0  0  0  0  0  0  0  0  0
  154.6599  136.8544  185.9350 C   0  0  0  0  0  0  0  0  0  0  0  0
  153.2633  136.6687  185.5437 C   0  0  0  0  0  0  0  0  0  0  0  0
  155.3033  135.5540  189.2054 C   0  0  0  0  0  0  0  0  0  0  0  0
  155.5679  134.2360  188.9112 N   0  0  0  0  0  0  0  0  0  0  0  0
  156.4095  133.5302  189.6829 C   0  0  0  0  0  0  0  0  0  0  0  0
  157.0000  134.1305  190.7633 C   0  0  0  0  0  0  0  0  0  0  0  0
  156.7445  135.4398  191.0717 C   0  0  0  0  0  0  0  0  0  0  0  0
  155.8665  136.1994  190.2712 C   0  0  0  0  0  0  0  0  0  0  0  0
  155.6389  137.6088  190.5970 C   0  0  0  0  0  0  0  0  0  0  0  0
  154.3665  138.0227  190.7719 F   0  0  0  0  0  0  0  0  0  0  0  0
  156.3143  138.4664  189.7086 F   0  0  0  0  0  0  0  0  0  0  0  0
  156.3018  137.8813  191.8161 F   0  0  0  0  0  0  0  0  0  0  0  0
  149.3647  136.5539  184.2489 N   0  0  0  0  0  0  0  0  0  0  0  0
  148.6094  135.3206  184.4404 C   0  0  0  0  0  0  0  0  0  0  0  0
  147.1375  135.6464  184.3010 C   0  0  0  0  0  0  0  0  0  0  0  0
  146.8124  136.1760  182.9223 C   0  0  0  0  0  0  0  0  0  0  0  0
  147.7757  137.2543  182.4948 C   0  0  0  0  0  0  0  0  0  0  0  0
  148.6667  137.6600  183.6369 C   0  0  0  0  0  0  0  0  0  0  0  0
  153.9120  137.9793  183.5527 N   0  0  0  0  0  0  0  0  0  0  0  0
  154.4844  137.2701  182.9676 H   0  0  0  0  0  0  0  0  0  0  0  0
  155.0486  141.9593  182.9866 C   0  0  0  0  0  0  0  0  0  0  0  0
  153.8465  141.5112  182.4452 C   0  0  0  0  0  0  0  0  0  0  0  0
  153.4388  140.2007  182.5935 C   0  0  0  0  0  0  0  0  0  0  0  0
  154.2393  139.3149  183.2970 C   0  0  0  0  0  0  0  0  0  0  0  0
  155.4182  139.8177  183.8062 C   0  0  0  0  0  0  0  0  0  0  0  0
  155.8144  141.0809  183.6659 N   0  0  0  0  0  0  0  0  0  0  0  0
  154.8709  144.1306  183.8558 F   0  0  0  0  0  0  0  0  0  0  0  0
  155.4621  143.3772  182.8557 C   0  0  0  0  0  0  0  0  0  0  0  0
  156.8299  143.5197  182.9568 F   0  0  0  0  0  0  0  0  0  0  0  0
  155.0777  143.8958  181.6313 F   0  0  0  0  0  0  0  0  0  0  0  0
 36 37  1  0  0  0
 37 38  1  0  0  0
 37 39  1  0  0  0
 37 30  1  0  0  0
 30 31  2  0  0  0
 31 32  1  0  0  0
 32 33  2  0  0  0
 33 28  1  0  0  0
 28  1  1  0  0  0
  1  2  2  0  0  0
  2  3  1  0  0  0
  3  4  2  0  0  0
  4  5  1  0  0  0
  5  6  1  0  0  0
  6  7  1  0  0  0
  7  8  1  0  0  0
  8  9  1  0  0  0
  9 10  1  0  0  0
 10 11  1  0  0  0
  8 12  1  0  0  0
 12 13  2  0  0  0
 13 14  1  0  0  0
 14 15  2  0  0  0
 15 16  1  0  0  0
 16 17  2  0  0  0
 17 18  1  0  0  0
 18 19  1  0  0  0
 18 20  1  0  0  0
 18 21  1  0  0  0
  3 22  1  0  0  0
 22 23  1  0  0  0
 23 24  1  0  0  0
 24 25  1  0  0  0
 25 26  1  0  0  0
 26 27  1  0  0  0
 33 34  1  0  0  0
 34 35  2  0  0  0
 35 30  1  0  0  0
 11  1  1  0  0  0
 17 12  1  0  0  0
 27 22  1  0  0  0
 11  5  2  0  0  0
 28 29  1  0  0  0
M  END
> <minimizedAffinity>
-6.69831

> <CNNscore>
0.3596277833

> <CNNaffinity>
6.7644553185

> <CNN_VS>
2.4326860905

> <CNNaffinity_variance>
0.0474948697

$$$$
[H]c1nc(N2C([H])([H])C([H])([H])c3nc(N4C([H])([H])C([H])([H])C([H])([H])C([H])([H])C4([H])[H])nc(N([H])c4c([H])nc(C(F)(F)F)c([H])c4[H])c3C([H])([H])C2([H])[H])c(C(F)(F)F)c([H])c1[H]


 39 43  0  0  0  0  0  0  0  0999 V2000
  155.6848  138.9944  184.0579 C   0  0  0  0  0  0  0  0  0  0  0  0
  154.7427  139.3393  183.1497 N   0  0  0  0  0  0  0  0  0  0  0  0
  153.4406  138.9892  183.2734 C   0  0  0  0  0  0  0  0  0  0  0  0
  153.0136  138.2750  184.3104 N   0  0  0  0  0  0  0  0  0  0  0  0
  153.8818  137.8880  185.2649 C   0  0  0  0  0  0  0  0  0  0  0  0
  153.2122  137.0381  186.2888 C   0  0  0  0  0  0  0  0  0  0  0  0
  153.4081  137.6282  187.6494 C   0  0  0  0  0  0  0  0  0  0  0  0
  154.8076  137.5631  188.0801 N   0  0  0  0  0  0  0  0  0  0  0  0
  155.9141  138.2640  187.5663 C   0  0  0  0  0  0  0  0  0  0  0  0
  156.2828  138.0076  186.1175 C   0  0  0  0  0  0  0  0  0  0  0  0
  155.2153  138.2459  185.1470 C   0  0  0  0  0  0  0  0  0  0  0  0
  155.0119  136.6695  189.1825 C   0  0  0  0  0  0  0  0  0  0  0  0
  155.1289  135.3347  188.8688 N   0  0  0  0  0  0  0  0  0  0  0  0
  155.3114  134.4283  189.8419 C   0  0  0  0  0  0  0  0  0  0  0  0
  155.3785  134.8414  191.1462 C   0  0  0  0  0  0  0  0  0  0  0  0
  155.2603  136.1652  191.4754 C   0  0  0  0  0  0  0  0  0  0  0  0
  155.0720  137.1333  190.4674 C   0  0  0  0  0  0  0  0  0  0  0  0
  154.9878  138.5471  190.8394 C   0  0  0  0  0  0  0  0  0  0  0  0
  154.3720  139.3925  189.9866 F   0  0  0  0  0  0  0  0  0  0  0  0
  156.2407  139.0631  191.2200 F   0  0  0  0  0  0  0  0  0  0  0  0
  154.2643  138.6310  192.0516 F   0  0  0  0  0  0  0  0  0  0  0  0
  152.4406  139.2892  182.3007 N   0  0  0  0  0  0  0  0  0  0  0  0
  151.1733  138.5672  182.2717 C   0  0  0  0  0  0  0  0  0  0  0  0
  150.1929  139.3748  181.4480 C   0  0  0  0  0  0  0  0  0  0  0  0
  150.6643  139.5349  180.0201 C   0  0  0  0  0  0  0  0  0  0  0  0
  152.1066  139.9693  179.9516 C   0  0  0  0  0  0  0  0  0  0  0  0
  152.6223  140.3312  181.3176 C   0  0  0  0  0  0  0  0  0  0  0  0
  157.0221  139.2367  183.7844 N   0  0  0  0  0  0  0  0  0  0  0  0
  157.4395  138.5957  183.0178 H   0  0  0  0  0  0  0  0  0  0  0  0
  159.9028  141.9421  185.1390 C   0  0  0  0  0  0  0  0  0  0  0  0
  158.7182  141.7939  185.8556 C   0  0  0  0  0  0  0  0  0  0  0  0
  157.7319  140.9237  185.4364 C   0  0  0  0  0  0  0  0  0  0  0  0
  157.9255  140.1814  184.2823 C   0  0  0  0  0  0  0  0  0  0  0  0
  159.1172  140.3747  183.6157 C   0  0  0  0  0  0  0  0  0  0  0  0
  160.0710  141.2122  184.0172 N   0  0  0  0  0  0  0  0  0  0  0  0
  162.1907  142.1909  185.5922 F   0  0  0  0  0  0  0  0  0  0  0  0
  160.9735  142.8505  185.6157 C   0  0  0  0  0  0  0  0  0  0  0  0
  161.0749  143.9760  184.8255 F   0  0  0  0  0  0  0  0  0  0  0  0
  160.7280  143.2708  186.9113 F   0  0  0  0  0  0  0  0  0  0  0  0
 36 37  1  0  0  0
 37 38  1  0  0  0
 37 39  1  0  0  0
 37 30  1  0  0  0
 30 31  2  0  0  0
 31 32  1  0  0  0
 32 33  2  0  0  0
 33 28  1  0  0  0
 28  1  1  0  0  0
  1  2  2  0  0  0
  2  3  1  0  0  0
  3  4  2  0  0  0
  4  5  1  0  0  0
  5  6  1  0  0  0
  6  7  1  0  0  0
  7  8  1  0  0  0
  8  9  1  0  0  0
  9 10  1  0  0  0
 10 11  1  0  0  0
  8 12  1  0  0  0
 12 13  2  0  0  0
 13 14  1  0  0  0
 14 15  2  0  0  0
 15 16  1  0  0  0
 16 17  2  0  0  0
 17 18  1  0  0  0
 18 19  1  0  0  0
 18 20  1  0  0  0
 18 21  1  0  0  0
  3 22  1  0  0  0
 22 23  1  0  0  0
 23 24  1  0  0  0
 24 25  1  0  0  0
 25 26  1  0  0  0
 26 27  1  0  0  0
 33 34  1  0  0  0
 34 35  2  0  0  0
 35 30  1  0  0  0
 11  1  1  0  0  0
 17 12  1  0  0  0
 27 22  1  0  0  0
 11  5  2  0  0  0
 28 29  1  0  0  0
M  END
> <minimizedAffinity>
-9.22105

> <CNNscore>
0.3356606662

> <CNNaffinity>
7.1680397987

> <CNN_VS>
2.4060289860

> <CNNaffinity_variance>
0.1467588693

$$$$
[H]c1nc(N2C([H])([H])C([H])([H])c3nc(N4C([H])([H])C([H])([H])C([H])([H])C([H])([H])C4([H])[H])nc(N([H])c4c([H])nc(C(F)(F)F)c([H])c4[H])c3C([H])([H])C2([H])[H])c(C(F)(F)F)c([H])c1[H]


 39 43  0  0  0  0  0  0  0  0999 V2000
  154.3449  139.0064  183.9025 C   0  0  0  0  0  0  0  0  0  0  0  0
  154.7324  138.7672  185.1769 N   0  0  0  0  0  0  0  0  0  0  0  0
  153.9865  138.0477  186.0483 C   0  0  0  0  0  0  0  0  0  0  0  0
  152.8143  137.5318  185.6912 N   0  0  0  0  0  0  0  0  0  0  0  0
  152.3492  137.7184  184.4408 C   0  0  0  0  0  0  0  0  0  0  0  0
  150.9926  137.1253  184.2772 C   0  0  0  0  0  0  0  0  0  0  0  0
  150.9939  136.1538  183.1397 C   0  0  0  0  0  0  0  0  0  0  0  0
  151.1831  136.8206  181.8481 N   0  0  0  0  0  0  0  0  0  0  0  0
  152.3325  137.4671  181.3579 C   0  0  0  0  0  0  0  0  0  0  0  0
  152.8249  138.6787  182.1262 C   0  0  0  0  0  0  0  0  0  0  0  0
  153.1088  138.4505  183.5424 C   0  0  0  0  0  0  0  0  0  0  0  0
  150.0208  136.7569  181.0110 C   0  0  0  0  0  0  0  0  0  0  0  0
  149.7228  135.5236  180.4784 N   0  0  0  0  0  0  0  0  0  0  0  0
  148.6575  135.3773  179.6747 C   0  0  0  0  0  0  0  0  0  0  0  0
  147.8728  136.4630  179.3888 C   0  0  0  0  0  0  0  0  0  0  0  0
  148.1577  137.6976  179.9076 C   0  0  0  0  0  0  0  0  0  0  0  0
  149.2700  137.8711  180.7570 C   0  0  0  0  0  0  0  0  0  0  0  0
  149.5326  139.1921  181.3319 C   0  0  0  0  0  0  0  0  0  0  0  0
  150.5440  139.9202  180.8144 F   0  0  0  0  0  0  0  0  0  0  0  0
  149.6349  139.1408  182.7347 F   0  0  0  0  0  0  0  0  0  0  0  0
  148.3683  139.9760  181.1591 F   0  0  0  0  0  0  0  0  0  0  0  0
  154.3447  137.8323  187.4126 N   0  0  0  0  0  0  0  0  0  0  0  0
  153.3768  138.0221  188.4875 C   0  0  0  0  0  0  0  0  0  0  0  0
  153.9044  137.3223  189.7219 C   0  0  0  0  0  0  0  0  0  0  0  0
  155.2200  137.9128  190.1774 C   0  0  0  0  0  0  0  0  0  0  0  0
  156.1909  138.0668  189.0341 C   0  0  0  0  0  0  0  0  0  0  0  0
  155.6677  137.3963  187.7933 C   0  0  0  0  0  0  0  0  0  0  0  0
  155.0711  139.8905  183.1196 N   0  0  0  0  0  0  0  0  0  0  0  0
  154.5794  140.1690  182.1957 H   0  0  0  0  0  0  0  0  0  0  0  0
  158.8599  141.5582  183.6819 C   0  0  0  0  0  0  0  0  0  0  0  0
  157.7376  142.2545  184.1229 C   0  0  0  0  0  0  0  0  0  0  0  0
  156.4654  141.7493  183.9439 C   0  0  0  0  0  0  0  0  0  0  0  0
  156.3022  140.5247  183.3160 C   0  0  0  0  0  0  0  0  0  0  0  0
  157.4511  139.8855  182.8997 C   0  0  0  0  0  0  0  0  0  0  0  0
  158.6795  140.3691  183.0713 N   0  0  0  0  0  0  0  0  0  0  0  0
  160.2572  143.4409  183.6134 F   0  0  0  0  0  0  0  0  0  0  0  0
  160.2252  142.0891  183.9113 C   0  0  0  0  0  0  0  0  0  0  0  0
  160.6214  141.9246  185.2218 F   0  0  0  0  0  0  0  0  0  0  0  0
  161.1508  141.4422  183.1111 F   0  0  0  0  0  0  0  0  0  0  0  0
 36 37  1  0  0  0
 37 38  1  0  0  0
 37 39  1  0  0  0
 37 30  1  0  0  0
 30 31  2  0  0  0
 31 32  1  0  0  0
 32 33  2  0  0  0
 33 28  1  0  0  0
 28  1  1  0  0  0
  1  2  2  0  0  0
  2  3  1  0  0  0
  3  4  2  0  0  0
  4  5  1  0  0  0
  5  6  1  0  0  0
  6  7  1  0  0  0
  7  8  1  0  0  0
  8  9  1  0  0  0
  9 10  1  0  0  0
 10 11  1  0  0  0
  8 12  1  0  0  0
 12 13  2  0  0  0
 13 14  1  0  0  0
 14 15  2  0  0  0
 15 16  1  0  0  0
 16 17  2  0  0  0
 17 18  1  0  0  0
 18 19  1  0  0  0
 18 20  1  0  0  0
 18 21  1  0  0  0
  3 22  1  0  0  0
 22 23  1  0  0  0
 23 24  1  0  0  0
 24 25  1  0  0  0
 25 26  1  0  0  0
 26 27  1  0  0  0
 33 34  1  0  0  0
 34 35  2  0  0  0
 35 30  1  0  0  0
 11  1  1  0  0  0
 17 12  1  0  0  0
 27 22  1  0  0  0
 11  5  2  0  0  0
 28 29  1  0  0  0
M  END
> <minimizedAffinity>
-8.36221

> <CNNscore>
0.3316438794

> <CNNaffinity>
6.9581046104

> <CNN_VS>
2.3076128960

> <CNNaffinity_variance>
0.0284833498

$$$$
[H]c1nc(N2C([H])([H])C([H])([H])c3nc(N4C([H])([H])C([H])([H])C([H])([H])C([H])([H])C4([H])[H])nc(N([H])c4c([H])nc(C(F)(F)F)c([H])c4[H])c3C([H])([H])C2([H])[H])c(C(F)(F)F)c([H])c1[H]


 39 43  0  0  0  0  0  0  0  0999 V2000
  154.4756  139.5107  182.9953 C   0  0  0  0  0  0  0  0  0  0  0  0
  153.3324  139.5444  182.2716 N   0  0  0  0  0  0  0  0  0  0  0  0
  152.2764  138.7370  182.5292 C   0  0  0  0  0  0  0  0  0  0  0  0
  152.3094  137.8534  183.5222 N   0  0  0  0  0  0  0  0  0  0  0  0
  153.4070  137.7508  184.2963 C   0  0  0  0  0  0  0  0  0  0  0  0
  153.2617  136.6535  185.2932 C   0  0  0  0  0  0  0  0  0  0  0  0
  153.4672  137.1887  186.6750 C   0  0  0  0  0  0  0  0  0  0  0  0
  154.8526  137.6113  186.8999 N   0  0  0  0  0  0  0  0  0  0  0  0
  155.5394  138.6975  186.3272 C   0  0  0  0  0  0  0  0  0  0  0  0
  155.7222  138.6836  184.8215 C   0  0  0  0  0  0  0  0  0  0  0  0
  154.4902  138.5764  184.0411 C   0  0  0  0  0  0  0  0  0  0  0  0
  155.5410  136.7869  187.8496 C   0  0  0  0  0  0  0  0  0  0  0  0
  156.4525  135.8952  187.3320 N   0  0  0  0  0  0  0  0  0  0  0  0
  157.1336  135.0778  188.1504 C   0  0  0  0  0  0  0  0  0  0  0  0
  156.9134  135.1371  189.5011 C   0  0  0  0  0  0  0  0  0  0  0  0
  156.0074  136.0160  190.0318 C   0  0  0  0  0  0  0  0  0  0  0  0
  155.2848  136.8858  189.1891 C   0  0  0  0  0  0  0  0  0  0  0  0
  154.3502  137.8445  189.7822 C   0  0  0  0  0  0  0  0  0  0  0  0
  154.4842  138.1340  191.0933 F   0  0  0  0  0  0  0  0  0  0  0  0
  153.0125  137.5215  189.4869 F   0  0  0  0  0  0  0  0  0  0  0  0
  154.5041  139.0739  189.1003 F   0  0  0  0  0  0  0  0  0  0  0  0
  151.0847  138.7119  181.7448 N   0  0  0  0  0  0  0  0  0  0  0  0
  151.0679  139.2232  180.3786 C   0  0  0  0  0  0  0  0  0  0  0  0
  149.8342  138.6792  179.6900 C   0  0  0  0  0  0  0  0  0  0  0  0
  148.5662  139.1433  180.3709 C   0  0  0  0  0  0  0  0  0  0  0  0
  148.6313  138.9548  181.8654 C   0  0  0  0  0  0  0  0  0  0  0  0
  149.8497  138.1620  182.2525 C   0  0  0  0  0  0  0  0  0  0  0  0
  155.5763  140.2399  182.5727 N   0  0  0  0  0  0  0  0  0  0  0  0
  155.4962  140.6135  181.5594 H   0  0  0  0  0  0  0  0  0  0  0  0
  158.9942  141.6064  184.5484 C   0  0  0  0  0  0  0  0  0  0  0  0
  159.0893  140.4974  183.7118 C   0  0  0  0  0  0  0  0  0  0  0  0
  157.9830  140.0015  183.0516 C   0  0  0  0  0  0  0  0  0  0  0  0
  156.7551  140.6208  183.2222 C   0  0  0  0  0  0  0  0  0  0  0  0
  156.7249  141.7119  184.0650 C   0  0  0  0  0  0  0  0  0  0  0  0
  157.7896  142.1935  184.7027 N   0  0  0  0  0  0  0  0  0  0  0  0
  161.3305  141.5302  184.7420 F   0  0  0  0  0  0  0  0  0  0  0  0
  160.1938  142.1564  185.2245 C   0  0  0  0  0  0  0  0  0  0  0  0
  160.3217  143.5125  185.0099 F   0  0  0  0  0  0  0  0  0  0  0  0
  160.1295  141.9545  186.5923 F   0  0  0  0  0  0  0  0  0  0  0  0
 36 37  1  0  0  0
 37 38  1  0  0  0
 37 39  1  0  0  0
 37 30  1  0  0  0
 30 31  2  0  0  0
 31 32  1  0  0  0
 32 33  2  0  0  0
 33 28  1  0  0  0
 28  1  1  0  0  0
  1  2  2  0  0  0
  2  3  1  0  0  0
  3  4  2  0  0  0
  4  5  1  0  0  0
  5  6  1  0  0  0
  6  7  1  0  0  0
  7  8  1  0  0  0
  8  9  1  0  0  0
  9 10  1  0  0  0
 10 11  1  0  0  0
  8 12  1  0  0  0
 12 13  2  0  0  0
 13 14  1  0  0  0
 14 15  2  0  0  0
 15 16  1  0  0  0
 16 17  2  0  0  0
 17 18  1  0  0  0
 18 19  1  0  0  0
 18 20  1  0  0  0
 18 21  1  0  0  0
  3 22  1  0  0  0
 22 23  1  0  0  0
 23 24  1  0  0  0
 24 25  1  0  0  0
 25 26  1  0  0  0
 26 27  1  0  0  0
 33 34  1  0  0  0
 34 35  2  0  0  0
 35 30  1  0  0  0
 11  1  1  0  0  0
 17 12  1  0  0  0
 27 22  1  0  0  0
 11  5  2  0  0  0
 28 29  1  0  0  0
M  END
> <minimizedAffinity>
-9.00163

> <CNNscore>
0.3001863360

> <CNNaffinity>
7.1148834229

> <CNN_VS>
2.1357908249

> <CNNaffinity_variance>
0.0426835008

$$$$
[H]c1nc(N2C([H])([H])C([H])([H])c3nc(N4C([H])([H])C([H])([H])C([H])([H])C([H])([H])C4([H])[H])nc(N([H])c4c([H])nc(C(F)(F)F)c([H])c4[H])c3C([H])([H])C2([H])[H])c(C(F)(F)F)c([H])c1[H]


 39 43  0  0  0  0  0  0  0  0999 V2000
  152.9239  135.9091  185.7155 C   0  0  0  0  0  0  0  0  0  0  0  0
  151.5914  135.7146  185.5811 N   0  0  0  0  0  0  0  0  0  0  0  0
  150.8947  134.8465  186.3520 C   0  0  0  0  0  0  0  0  0  0  0  0
  151.4943  134.1270  187.2958 N   0  0  0  0  0  0  0  0  0  0  0  0
  152.8193  134.2564  187.5014 C   0  0  0  0  0  0  0  0  0  0  0  0
  153.2967  133.3085  188.5466 C   0  0  0  0  0  0  0  0  0  0  0  0
  153.9900  134.0598  189.6388 C   0  0  0  0  0  0  0  0  0  0  0  0
  155.2490  134.6554  189.1822 N   0  0  0  0  0  0  0  0  0  0  0  0
  155.4372  135.7122  188.2727 C   0  0  0  0  0  0  0  0  0  0  0  0
  154.9516  135.4965  186.8520 C   0  0  0  0  0  0  0  0  0  0  0  0
  153.5382  135.1457  186.7188 C   0  0  0  0  0  0  0  0  0  0  0  0
  156.4023  134.0573  189.7887 C   0  0  0  0  0  0  0  0  0  0  0  0
  156.9139  132.9469  189.1569 N   0  0  0  0  0  0  0  0  0  0  0  0
  157.9865  132.3188  189.6637 C   0  0  0  0  0  0  0  0  0  0  0  0
  158.5651  132.7898  190.8125 C   0  0  0  0  0  0  0  0  0  0  0  0
  158.0662  133.8910  191.4552 C   0  0  0  0  0  0  0  0  0  0  0  0
  156.9426  134.5673  190.9366 C   0  0  0  0  0  0  0  0  0  0  0  0
  156.4504  135.7658  191.6190 C   0  0  0  0  0  0  0  0  0  0  0  0
  157.0422  136.1252  192.7773 F   0  0  0  0  0  0  0  0  0  0  0  0
  155.0514  135.7437  191.7708 F   0  0  0  0  0  0  0  0  0  0  0  0
  156.6251  136.8622  190.7429 F   0  0  0  0  0  0  0  0  0  0  0  0
  149.5023  134.5801  186.1902 N   0  0  0  0  0  0  0  0  0  0  0  0
  148.9258  133.3010  186.5898 C   0  0  0  0  0  0  0  0  0  0  0  0
  147.4260  133.4767  186.6986 C   0  0  0  0  0  0  0  0  0  0  0  0
  146.8128  133.8636  185.3715 C   0  0  0  0  0  0  0  0  0  0  0  0
  147.5683  134.9897  184.7123 C   0  0  0  0  0  0  0  0  0  0  0  0
  148.5961  135.5650  185.6479 C   0  0  0  0  0  0  0  0  0  0  0  0
  153.6016  136.6809  184.7844 N   0  0  0  0  0  0  0  0  0  0  0  0
  154.6586  136.7952  184.9905 H   0  0  0  0  0  0  0  0  0  0  0  0
  152.3390  138.7663  181.3918 C   0  0  0  0  0  0  0  0  0  0  0  0
  152.2372  137.3778  181.4141 C   0  0  0  0  0  0  0  0  0  0  0  0
  152.6569  136.6466  182.5073 C   0  0  0  0  0  0  0  0  0  0  0  0
  153.1867  137.3070  183.6044 C   0  0  0  0  0  0  0  0  0  0  0  0
  153.2639  138.6813  183.5206 C   0  0  0  0  0  0  0  0  0  0  0  0
  152.8595  139.3899  182.4686 N   0  0  0  0  0  0  0  0  0  0  0  0
  152.9244  139.9433  179.4492 F   0  0  0  0  0  0  0  0  0  0  0  0
  151.8514  139.5477  180.2298 C   0  0  0  0  0  0  0  0  0  0  0  0
  150.9928  138.8084  179.4438 F   0  0  0  0  0  0  0  0  0  0  0  0
  151.1694  140.6791  180.6429 F   0  0  0  0  0  0  0  0  0  0  0  0
 36 37  1  0  0  0
 37 38  1  0  0  0
 37 39  1  0  0  0
 37 30  1  0  0  0
 30 31  2  0  0  0
 31 32  1  0  0  0
 32 33  2  0  0  0
 33 28  1  0  0  0
 28  1  1  0  0  0
  1  2  2  0  0  0
  2  3  1  0  0  0
  3  4  2  0  0  0
  4  5  1  0  0  0
  5  6  1  0  0  0
  6  7  1  0  0  0
  7  8  1  0  0  0
  8  9  1  0  0  0
  9 10  1  0  0  0
 10 11  1  0  0  0
  8 12  1  0  0  0
 12 13  2  0  0  0
 13 14  1  0  0  0
 14 15  2  0  0  0
 15 16  1  0  0  0
 16 17  2  0  0  0
 17 18  1  0  0  0
 18 19  1  0  0  0
 18 20  1  0  0  0
 18 21  1  0  0  0
  3 22  1  0  0  0
 22 23  1  0  0  0
 23 24  1  0  0  0
 24 25  1  0  0  0
 25 26  1  0  0  0
 26 27  1  0  0  0
 33 34  1  0  0  0
 34 35  2  0  0  0
 35 30  1  0  0  0
 11  1  1  0  0  0
 17 12  1  0  0  0
 27 22  1  0  0  0
 11  5  2  0  0  0
 28 29  1  0  0  0
M  END
> <minimizedAffinity>
-5.82975

> <CNNscore>
0.2979284823

> <CNNaffinity>
6.2579741478

> <CNN_VS>
1.8644287586

> <CNNaffinity_variance>
0.2853088379

$$$$
[H]c1nc(N2C([H])([H])C([H])([H])N(C(=O)N([H])c3c([H])c([H])c(C(C([H])([H])[H])(C([H])([H])[H])C([H])([H])[H])c([H])c3[H])C([H])([H])C2([H])[H])c(C(F)(F)F)c([H])c1[H]


 30 32  0  0  0  0  0  0  0  0999 V2000
  150.4227  135.4554  184.6019 N   0  0  0  0  0  0  0  0  0  0  0  0
  151.6429  135.0823  185.1929 C   0  0  0  0  0  0  0  0  0  0  0  0
  152.2820  134.1089  184.6601 O   0  0  0  0  0  0  0  0  0  0  0  0
  152.2474  135.6570  186.3203 N   0  0  0  0  0  0  0  0  0  0  0  0
  151.6920  136.7650  187.0081 C   0  0  0  0  0  0  0  0  0  0  0  0
  152.3118  137.1276  188.3461 C   0  0  0  0  0  0  0  0  0  0  0  0
  153.2568  136.2156  188.8676 N   0  0  0  0  0  0  0  0  0  0  0  0
  153.1591  134.8181  188.3315 C   0  0  0  0  0  0  0  0  0  0  0  0
  153.5070  135.0641  186.8465 C   0  0  0  0  0  0  0  0  0  0  0  0
  149.9218  136.2688  185.0783 H   0  0  0  0  0  0  0  0  0  0  0  0
  148.8158  133.7468  181.0816 C   0  0  0  0  0  0  0  0  0  0  0  0
  149.6332  134.8459  181.0355 C   0  0  0  0  0  0  0  0  0  0  0  0
  150.1353  135.3525  182.2203 C   0  0  0  0  0  0  0  0  0  0  0  0
  149.8654  134.8196  183.4624 C   0  0  0  0  0  0  0  0  0  0  0  0
  149.0557  133.7292  183.4972 C   0  0  0  0  0  0  0  0  0  0  0  0
  148.5289  133.1898  182.3127 C   0  0  0  0  0  0  0  0  0  0  0  0
  149.2065  133.2883  178.6919 C   0  0  0  0  0  0  0  0  0  0  0  0
  148.2019  133.1445  179.8472 C   0  0  0  0  0  0  0  0  0  0  0  0
  146.9464  133.8518  179.4174 C   0  0  0  0  0  0  0  0  0  0  0  0
  147.9431  131.6927  180.0816 C   0  0  0  0  0  0  0  0  0  0  0  0
  154.3084  136.3679  189.7704 C   0  0  0  0  0  0  0  0  0  0  0  0
  154.1924  135.7495  191.0030 N   0  0  0  0  0  0  0  0  0  0  0  0
  155.0600  135.8551  191.9913 C   0  0  0  0  0  0  0  0  0  0  0  0
  156.1876  136.6289  191.8362 C   0  0  0  0  0  0  0  0  0  0  0  0
  156.3754  137.2702  190.6482 C   0  0  0  0  0  0  0  0  0  0  0  0
  155.4162  137.1273  189.6133 C   0  0  0  0  0  0  0  0  0  0  0  0
  155.7260  137.8116  188.3361 C   0  0  0  0  0  0  0  0  0  0  0  0
  154.6703  138.5325  187.8266 F   0  0  0  0  0  0  0  0  0  0  0  0
  156.0773  136.8784  187.3799 F   0  0  0  0  0  0  0  0  0  0  0  0
  156.8559  138.6193  188.4728 F   0  0  0  0  0  0  0  0  0  0  0  0
 17 18  1  0  0  0
 18 19  1  0  0  0
 18 20  1  0  0  0
 18 11  1  0  0  0
 11 12  2  0  0  0
 12 13  1  0  0  0
 13 14  2  0  0  0
 14  1  1  0  0  0
  1  2  1  0  0  0
  2  3  2  0  0  0
  2  4  1  0  0  0
  4  5  1  0  0  0
  5  6  1  0  0  0
  6  7  1  0  0  0
  7  8  1  0  0  0
  8  9  1  0  0  0
  7 21  1  0  0  0
 21 22  2  0  0  0
 22 23  1  0  0  0
 23 24  2  0  0  0
 24 25  1  0  0  0
 25 26  2  0  0  0
 26 27  1  0  0  0
 27 28  1  0  0  0
 27 29  1  0  0  0
 27 30  1  0  0  0
 14 15  1  0  0  0
 15 16  2  0  0  0
 16 11  1  0  0  0
  9  4  1  0  0  0
 26 21  1  0  0  0
  1 10  1  0  0  0
M  END
> <minimizedAffinity>
-3.85961

> <CNNscore>
0.5031391978

> <CNNaffinity>
5.2004251480

> <CNN_VS>
2.6165378094

> <CNNaffinity_variance>
0.4886648059

$$$$
[H]c1nc(N2C([H])([H])C([H])([H])N(C(=O)N([H])c3c([H])c([H])c(C(C([H])([H])[H])(C([H])([H])[H])C([H])([H])[H])c([H])c3[H])C([H])([H])C2([H])[H])c(C(F)(F)F)c([H])c1[H]


 30 32  0  0  0  0  0  0  0  0999 V2000
  153.4586  140.3195  181.0824 N   0  0  0  0  0  0  0  0  0  0  0  0
  154.1892  140.3861  182.2821 C   0  0  0  0  0  0  0  0  0  0  0  0
  153.6206  139.9491  183.3429 O   0  0  0  0  0  0  0  0  0  0  0  0
  155.4863  140.8901  182.4556 N   0  0  0  0  0  0  0  0  0  0  0  0
  156.2700  141.3792  181.3805 C   0  0  0  0  0  0  0  0  0  0  0  0
  157.5474  142.1182  181.7383 C   0  0  0  0  0  0  0  0  0  0  0  0
  157.7391  142.4133  183.1068 N   0  0  0  0  0  0  0  0  0  0  0  0
  156.4904  142.4314  183.9375 C   0  0  0  0  0  0  0  0  0  0  0  0
  156.0605  140.9516  183.8273 C   0  0  0  0  0  0  0  0  0  0  0  0
  153.9681  140.6961  180.2234 H   0  0  0  0  0  0  0  0  0  0  0  0
  149.5108  138.8845  180.5828 C   0  0  0  0  0  0  0  0  0  0  0  0
  150.2191  139.4117  179.5346 C   0  0  0  0  0  0  0  0  0  0  0  0
  151.5096  139.8553  179.7591 C   0  0  0  0  0  0  0  0  0  0  0  0
  152.1409  139.8028  180.9831 C   0  0  0  0  0  0  0  0  0  0  0  0
  151.4310  139.2768  182.0152 C   0  0  0  0  0  0  0  0  0  0  0  0
  150.1183  138.8173  181.8215 C   0  0  0  0  0  0  0  0  0  0  0  0
  147.8363  138.1027  178.9522 C   0  0  0  0  0  0  0  0  0  0  0  0
  148.0927  138.4030  180.4384 C   0  0  0  0  0  0  0  0  0  0  0  0
  147.0822  139.4378  180.8498 C   0  0  0  0  0  0  0  0  0  0  0  0
  147.9161  137.1437  181.2210 C   0  0  0  0  0  0  0  0  0  0  0  0
  158.8854  142.6575  183.8622 C   0  0  0  0  0  0  0  0  0  0  0  0
  159.2354  141.7221  184.8202 N   0  0  0  0  0  0  0  0  0  0  0  0
  160.2430  141.8384  185.6639 C   0  0  0  0  0  0  0  0  0  0  0  0
  161.0415  142.9590  185.6306 C   0  0  0  0  0  0  0  0  0  0  0  0
  160.7623  143.9269  184.7125 C   0  0  0  0  0  0  0  0  0  0  0  0
  159.6690  143.7590  183.8249 C   0  0  0  0  0  0  0  0  0  0  0  0
  159.4707  144.8315  182.8219 C   0  0  0  0  0  0  0  0  0  0  0  0
  158.1906  145.3357  182.7995 F   0  0  0  0  0  0  0  0  0  0  0  0
  159.7347  144.3422  181.5572 F   0  0  0  0  0  0  0  0  0  0  0  0
  160.4019  145.8547  183.0060 F   0  0  0  0  0  0  0  0  0  0  0  0
 17 18  1  0  0  0
 18 19  1  0  0  0
 18 20  1  0  0  0
 18 11  1  0  0  0
 11 12  2  0  0  0
 12 13  1  0  0  0
 13 14  2  0  0  0
 14  1  1  0  0  0
  1  2  1  0  0  0
  2  3  2  0  0  0
  2  4  1  0  0  0
  4  5  1  0  0  0
  5  6  1  0  0  0
  6  7  1  0  0  0
  7  8  1  0  0  0
  8  9  1  0  0  0
  7 21  1  0  0  0
 21 22  2  0  0  0
 22 23  1  0  0  0
 23 24  2  0  0  0
 24 25  1  0  0  0
 25 26  2  0  0  0
 26 27  1  0  0  0
 27 28  1  0  0  0
 27 29  1  0  0  0
 27 30  1  0  0  0
 14 15  1  0  0  0
 15 16  2  0  0  0
 16 11  1  0  0  0
  9  4  1  0  0  0
 26 21  1  0  0  0
  1 10  1  0  0  0
M  END
> <minimizedAffinity>
-9.03404

> <CNNscore>
0.4191218019

> <CNNaffinity>
6.3509588242

> <CNN_VS>
2.6618254185

> <CNNaffinity_variance>
0.0371690243

$$$$
[H]c1nc(N2C([H])([H])C([H])([H])N(C(=O)N([H])c3c([H])c([H])c(C(C([H])([H])[H])(C([H])([H])[H])C([H])([H])[H])c([H])c3[H])C([H])([H])C2([H])[H])c(C(F)(F)F)c([H])c1[H]


 30 32  0  0  0  0  0  0  0  0999 V2000
  153.7625  139.8582  181.6642 N   0  0  0  0  0  0  0  0  0  0  0  0
  154.1960  141.0876  182.1915 C   0  0  0  0  0  0  0  0  0  0  0  0
  153.3174  142.0070  182.3410 O   0  0  0  0  0  0  0  0  0  0  0  0
  155.5012  141.4316  182.5721 N   0  0  0  0  0  0  0  0  0  0  0  0
  156.5854  140.5209  182.5055 C   0  0  0  0  0  0  0  0  0  0  0  0
  157.9782  141.0903  182.7099 C   0  0  0  0  0  0  0  0  0  0  0  0
  158.0791  142.4989  182.7594 N   0  0  0  0  0  0  0  0  0  0  0  0
  156.9467  143.2434  182.1166 C   0  0  0  0  0  0  0  0  0  0  0  0
  155.7778  142.8193  183.0334 C   0  0  0  0  0  0  0  0  0  0  0  0
  154.5265  139.1211  181.5538 H   0  0  0  0  0  0  0  0  0  0  0  0
  149.7503  138.8958  180.7316 C   0  0  0  0  0  0  0  0  0  0  0  0
  150.2951  138.5898  181.9513 C   0  0  0  0  0  0  0  0  0  0  0  0
  151.6099  138.9391  182.1999 C   0  0  0  0  0  0  0  0  0  0  0  0
  152.4214  139.5833  181.2910 C   0  0  0  0  0  0  0  0  0  0  0  0
  151.8714  139.8839  180.0857 C   0  0  0  0  0  0  0  0  0  0  0  0
  150.5394  139.5430  179.8008 C   0  0  0  0  0  0  0  0  0  0  0  0
  148.0094  137.1735  181.0086 C   0  0  0  0  0  0  0  0  0  0  0  0
  148.3382  138.5298  180.3630 C   0  0  0  0  0  0  0  0  0  0  0  0
  148.1494  138.3591  178.8810 C   0  0  0  0  0  0  0  0  0  0  0  0
  147.4030  139.5599  180.9051 C   0  0  0  0  0  0  0  0  0  0  0  0
  159.0209  143.3524  183.3327 C   0  0  0  0  0  0  0  0  0  0  0  0
  159.2130  144.5885  182.7406 N   0  0  0  0  0  0  0  0  0  0  0  0
  160.1132  145.4782  183.1131 C   0  0  0  0  0  0  0  0  0  0  0  0
  160.9527  145.2059  184.1693 C   0  0  0  0  0  0  0  0  0  0  0  0
  160.8247  144.0080  184.8069 C   0  0  0  0  0  0  0  0  0  0  0  0
  159.8424  143.0820  184.3722 C   0  0  0  0  0  0  0  0  0  0  0  0
  159.7329  141.8293  185.1560 C   0  0  0  0  0  0  0  0  0  0  0  0
  158.4555  141.5619  185.5924 F   0  0  0  0  0  0  0  0  0  0  0  0
  160.5349  141.9093  186.2780 F   0  0  0  0  0  0  0  0  0  0  0  0
  160.2442  140.7508  184.4328 F   0  0  0  0  0  0  0  0  0  0  0  0
 17 18  1  0  0  0
 18 19  1  0  0  0
 18 20  1  0  0  0
 18 11  1  0  0  0
 11 12  2  0  0  0
 12 13  1  0  0  0
 13 14  2  0  0  0
 14  1  1  0  0  0
  1  2  1  0  0  0
  2  3  2  0  0  0
  2  4  1  0  0  0
  4  5  1  0  0  0
  5  6  1  0  0  0
  6  7  1  0  0  0
  7  8  1  0  0  0
  8  9  1  0  0  0
  7 21  1  0  0  0
 21 22  2  0  0  0
 22 23  1  0  0  0
 23 24  2  0  0  0
 24 25  1  0  0  0
 25 26  2  0  0  0
 26 27  1  0  0  0
 27 28  1  0  0  0
 27 29  1  0  0  0
 27 30  1  0  0  0
 14 15  1  0  0  0
 15 16  2  0  0  0
 16 11  1  0  0  0
  9  4  1  0  0  0
 26 21  1  0  0  0
  1 10  1  0  0  0
M  END
> <minimizedAffinity>
-9.64900

> <CNNscore>
0.3878712058

> <CNNaffinity>
6.2764616013

> <CNN_VS>
2.4344587326

> <CNNaffinity_variance>
0.0344094709

$$$$
[H]c1nc(N2C([H])([H])C([H])([H])N(C(=O)N([H])c3c([H])c([H])c(C(C([H])([H])[H])(C([H])([H])[H])C([H])([H])[H])c([H])c3[H])C([H])([H])C2([H])[H])c(C(F)(F)F)c([H])c1[H]


 30 32  0  0  0  0  0  0  0  0999 V2000
  151.7837  137.1748  183.6229 N   0  0  0  0  0  0  0  0  0  0  0  0
  151.5452  136.7343  184.9369 C   0  0  0  0  0  0  0  0  0  0  0  0
  150.3297  136.5104  185.2715 O   0  0  0  0  0  0  0  0  0  0  0  0
  152.4987  136.5151  185.9416 N   0  0  0  0  0  0  0  0  0  0  0  0
  153.8903  136.6805  185.7287 C   0  0  0  0  0  0  0  0  0  0  0  0
  154.7841  136.6524  186.9558 C   0  0  0  0  0  0  0  0  0  0  0  0
  154.1303  136.6532  188.2085 N   0  0  0  0  0  0  0  0  0  0  0  0
  152.7268  137.1823  188.1961 C   0  0  0  0  0  0  0  0  0  0  0  0
  152.0385  136.1265  187.3026 C   0  0  0  0  0  0  0  0  0  0  0  0
  152.8095  137.3517  183.3865 H   0  0  0  0  0  0  0  0  0  0  0  0
  148.8600  137.6618  180.6049 C   0  0  0  0  0  0  0  0  0  0  0  0
  149.7958  136.6627  180.5407 C   0  0  0  0  0  0  0  0  0  0  0  0
  150.7198  136.5490  181.5634 C   0  0  0  0  0  0  0  0  0  0  0  0
  150.7642  137.3844  182.6586 C   0  0  0  0  0  0  0  0  0  0  0  0
  149.8311  138.3704  182.7138 C   0  0  0  0  0  0  0  0  0  0  0  0
  148.8788  138.5138  181.6920 C   0  0  0  0  0  0  0  0  0  0  0  0
  146.8121  138.9084  180.0340 C   0  0  0  0  0  0  0  0  0  0  0  0
  147.8345  137.8785  179.5255 C   0  0  0  0  0  0  0  0  0  0  0  0
  147.0626  136.6305  179.1973 C   0  0  0  0  0  0  0  0  0  0  0  0
  148.5052  138.4267  178.3093 C   0  0  0  0  0  0  0  0  0  0  0  0
  154.5236  136.2150  189.4724 C   0  0  0  0  0  0  0  0  0  0  0  0
  154.1660  134.9319  189.8481 N   0  0  0  0  0  0  0  0  0  0  0  0
  154.3951  134.3943  191.0309 C   0  0  0  0  0  0  0  0  0  0  0  0
  155.0383  135.1242  192.0046 C   0  0  0  0  0  0  0  0  0  0  0  0
  155.4247  136.3979  191.7110 C   0  0  0  0  0  0  0  0  0  0  0  0
  155.1577  136.9345  190.4257 C   0  0  0  0  0  0  0  0  0  0  0  0
  155.6617  138.3046  190.1718 C   0  0  0  0  0  0  0  0  0  0  0  0
  156.5663  138.3765  189.1374 F   0  0  0  0  0  0  0  0  0  0  0  0
  156.2988  138.7839  191.3001 F   0  0  0  0  0  0  0  0  0  0  0  0
  154.6012  139.1875  189.9634 F   0  0  0  0  0  0  0  0  0  0  0  0
 17 18  1  0  0  0
 18 19  1  0  0  0
 18 20  1  0  0  0
 18 11  1  0  0  0
 11 12  2  0  0  0
 12 13  1  0  0  0
 13 14  2  0  0  0
 14  1  1  0  0  0
  1  2  1  0  0  0
  2  3  2  0  0  0
  2  4  1  0  0  0
  4  5  1  0  0  0
  5  6  1  0  0  0
  6  7  1  0  0  0
  7  8  1  0  0  0
  8  9  1  0  0  0
  7 21  1  0  0  0
 21 22  2  0  0  0
 22 23  1  0  0  0
 23 24  2  0  0  0
 24 25  1  0  0  0
 25 26  2  0  0  0
 26 27  1  0  0  0
 27 28  1  0  0  0
 27 29  1  0  0  0
 27 30  1  0  0  0
 14 15  1  0  0  0
 15 16  2  0  0  0
 16 11  1  0  0  0
  9  4  1  0  0  0
 26 21  1  0  0  0
  1 10  1  0  0  0
M  END
> <minimizedAffinity>
-6.23813

> <CNNscore>
0.3827341497

> <CNNaffinity>
5.3689947128

> <CNN_VS>
2.0548975468

> <CNNaffinity_variance>
0.1555700451

$$$$
[H]c1nc(N2C([H])([H])C([H])([H])N(C(=O)N([H])c3c([H])c([H])c(C(C([H])([H])[H])(C([H])([H])[H])C([H])([H])[H])c([H])c3[H])C([H])([H])C2([H])[H])c(C(F)(F)F)c([H])c1[H]


 30 32  0  0  0  0  0  0  0  0999 V2000
  154.8363  138.7752  185.2085 N   0  0  0  0  0  0  0  0  0  0  0  0
  155.3282  138.3092  186.4407 C   0  0  0  0  0  0  0  0  0  0  0  0
  156.5071  138.6757  186.7807 O   0  0  0  0  0  0  0  0  0  0  0  0
  154.6699  137.4706  187.3516 N   0  0  0  0  0  0  0  0  0  0  0  0
  153.3475  137.0028  187.1471 C   0  0  0  0  0  0  0  0  0  0  0  0
  152.8495  135.9125  188.0792 C   0  0  0  0  0  0  0  0  0  0  0  0
  153.8106  135.3349  188.9391 N   0  0  0  0  0  0  0  0  0  0  0  0
  155.2357  135.4828  188.4954 C   0  0  0  0  0  0  0  0  0  0  0  0
  155.3936  137.0178  188.5708 C   0  0  0  0  0  0  0  0  0  0  0  0
  153.8517  138.4445  184.9626 H   0  0  0  0  0  0  0  0  0  0  0  0
  157.1971  141.1581  182.6312 C   0  0  0  0  0  0  0  0  0  0  0  0
  157.6242  139.9289  183.0613 C   0  0  0  0  0  0  0  0  0  0  0  0
  156.8027  139.1928  183.8954 C   0  0  0  0  0  0  0  0  0  0  0  0
  155.5656  139.6176  184.3300 C   0  0  0  0  0  0  0  0  0  0  0  0
  155.1507  140.8365  183.8966 C   0  0  0  0  0  0  0  0  0  0  0  0
  155.9604  141.6097  183.0492 C   0  0  0  0  0  0  0  0  0  0  0  0
  157.2555  143.3400  181.4868 C   0  0  0  0  0  0  0  0  0  0  0  0
  158.0348  142.0398  181.7456 C   0  0  0  0  0  0  0  0  0  0  0  0
  158.3056  141.4244  180.4006 C   0  0  0  0  0  0  0  0  0  0  0  0
  159.3103  142.3749  182.4458 C   0  0  0  0  0  0  0  0  0  0  0  0
  153.6989  134.6757  190.1628 C   0  0  0  0  0  0  0  0  0  0  0  0
  153.8042  133.2958  190.1616 N   0  0  0  0  0  0  0  0  0  0  0  0
  153.6489  132.5206  191.2178 C   0  0  0  0  0  0  0  0  0  0  0  0
  153.3588  133.0777  192.4426 C   0  0  0  0  0  0  0  0  0  0  0  0
  153.2404  134.4330  192.5266 C   0  0  0  0  0  0  0  0  0  0  0  0
  153.4161  135.2270  191.3647 C   0  0  0  0  0  0  0  0  0  0  0  0
  153.3267  136.6936  191.5558 C   0  0  0  0  0  0  0  0  0  0  0  0
  152.7644  137.0599  192.7572 F   0  0  0  0  0  0  0  0  0  0  0  0
  152.5469  137.2474  190.5589 F   0  0  0  0  0  0  0  0  0  0  0  0
  154.5794  137.2874  191.3949 F   0  0  0  0  0  0  0  0  0  0  0  0
 17 18  1  0  0  0
 18 19  1  0  0  0
 18 20  1  0  0  0
 18 11  1  0  0  0
 11 12  2  0  0  0
 12 13  1  0  0  0
 13 14  2  0  0  0
 14  1  1  0  0  0
  1  2  1  0  0  0
  2  3  2  0  0  0
  2  4  1  0  0  0
  4  5  1  0  0  0
  5  6  1  0  0  0
  6  7  1  0  0  0
  7  8  1  0  0  0
  8  9  1  0  0  0
  7 21  1  0  0  0
 21 22  2  0  0  0
 22 23  1  0  0  0
 23 24  2  0  0  0
 24 25  1  0  0  0
 25 26  2  0  0  0
 26 27  1  0  0  0
 27 28  1  0  0  0
 27 29  1  0  0  0
 27 30  1  0  0  0
 14 15  1  0  0  0
 15 16  2  0  0  0
 16 11  1  0  0  0
  9  4  1  0  0  0
 26 21  1  0  0  0
  1 10  1  0  0  0
M  END
> <minimizedAffinity>
-6.55397

> <CNNscore>
0.3772062063

> <CNNaffinity>
5.6632375717

> <CNN_VS>
2.1362082958

> <CNNaffinity_variance>
0.1407525241

$$$$
[H]c1nc(N2C([H])([H])C([H])([H])N(C(=O)N([H])c3c([H])c([H])c(C(C([H])([H])[H])(C([H])([H])[H])C([H])([H])[H])c([H])c3[H])C([H])([H])C2([H])[H])c(C(F)(F)F)c([H])c1[H]


 30 32  0  0  0  0  0  0  0  0999 V2000
  153.7786  139.6900  181.8120 N   0  0  0  0  0  0  0  0  0  0  0  0
  154.2693  140.7946  182.5307 C   0  0  0  0  0  0  0  0  0  0  0  0
  153.4123  141.6365  182.9742 O   0  0  0  0  0  0  0  0  0  0  0  0
  155.6101  141.0898  182.8165 N   0  0  0  0  0  0  0  0  0  0  0  0
  156.6812  140.2452  182.4308 C   0  0  0  0  0  0  0  0  0  0  0  0
  158.0864  140.8001  182.5828 C   0  0  0  0  0  0  0  0  0  0  0  0
  158.1876  142.1697  182.9153 N   0  0  0  0  0  0  0  0  0  0  0  0
  156.9822  142.9984  182.5835 C   0  0  0  0  0  0  0  0  0  0  0  0
  155.9363  142.3583  183.5233 C   0  0  0  0  0  0  0  0  0  0  0  0
  154.5259  139.0148  181.4585 H   0  0  0  0  0  0  0  0  0  0  0  0
  149.6906  138.8143  181.1676 C   0  0  0  0  0  0  0  0  0  0  0  0
  150.4061  138.2008  182.1625 C   0  0  0  0  0  0  0  0  0  0  0  0
  151.7372  138.5367  182.3295 C   0  0  0  0  0  0  0  0  0  0  0  0
  152.4028  139.4598  181.5520 C   0  0  0  0  0  0  0  0  0  0  0  0
  151.6842  140.0636  180.5699 C   0  0  0  0  0  0  0  0  0  0  0  0
  150.3308  139.7454  180.3731 C   0  0  0  0  0  0  0  0  0  0  0  0
  148.1044  138.1508  179.4019 C   0  0  0  0  0  0  0  0  0  0  0  0
  148.2466  138.4918  180.8946 C   0  0  0  0  0  0  0  0  0  0  0  0
  147.3305  139.6542  181.1606 C   0  0  0  0  0  0  0  0  0  0  0  0
  147.8453  137.3005  181.7005 C   0  0  0  0  0  0  0  0  0  0  0  0
  159.1897  142.9122  183.5388 C   0  0  0  0  0  0  0  0  0  0  0  0
  159.7620  142.3857  184.6836 N   0  0  0  0  0  0  0  0  0  0  0  0
  160.6652  142.9922  185.4300 C   0  0  0  0  0  0  0  0  0  0  0  0
  161.1084  144.2493  185.0871 C   0  0  0  0  0  0  0  0  0  0  0  0
  160.5931  144.8361  183.9700 C   0  0  0  0  0  0  0  0  0  0  0  0
  159.6242  144.1464  183.1974 C   0  0  0  0  0  0  0  0  0  0  0  0
  159.1591  144.8320  181.9689 C   0  0  0  0  0  0  0  0  0  0  0  0
  159.2569  144.0583  180.8351 F   0  0  0  0  0  0  0  0  0  0  0  0
  159.9182  145.9656  181.7514 F   0  0  0  0  0  0  0  0  0  0  0  0
  157.8567  145.3055  182.1335 F   0  0  0  0  0  0  0  0  0  0  0  0
 17 18  1  0  0  0
 18 19  1  0  0  0
 18 20  1  0  0  0
 18 11  1  0  0  0
 11 12  2  0  0  0
 12 13  1  0  0  0
 13 14  2  0  0  0
 14  1  1  0  0  0
  1  2  1  0  0  0
  2  3  2  0  0  0
  2  4  1  0  0  0
  4  5  1  0  0  0
  5  6  1  0  0  0
  6  7  1  0  0  0
  7  8  1  0  0  0
  8  9  1  0  0  0
  7 21  1  0  0  0
 21 22  2  0  0  0
 22 23  1  0  0  0
 23 24  2  0  0  0
 24 25  1  0  0  0
 25 26  2  0  0  0
 26 27  1  0  0  0
 27 28  1  0  0  0
 27 29  1  0  0  0
 27 30  1  0  0  0
 14 15  1  0  0  0
 15 16  2  0  0  0
 16 11  1  0  0  0
  9  4  1  0  0  0
 26 21  1  0  0  0
  1 10  1  0  0  0
M  END
> <minimizedAffinity>
-8.86888

> <CNNscore>
0.3387936354

> <CNNaffinity>
6.3156619072

> <CNN_VS>
2.1397061348

> <CNNaffinity_variance>
0.0298421830

$$$$
[H]c1nc(N2C([H])([H])C([H])([H])N(C(=O)N([H])c3c([H])c([H])c(C(C([H])([H])[H])(C([H])([H])[H])C([H])([H])[H])c([H])c3[H])C([H])([H])C2([H])[H])c(C(F)(F)F)c([H])c1[H]


 30 32  0  0  0  0  0  0  0  0999 V2000
  154.6217  140.9788  181.9104 N   0  0  0  0  0  0  0  0  0  0  0  0
  153.7170  140.0277  182.4149 C   0  0  0  0  0  0  0  0  0  0  0  0
  154.0188  139.4563  183.5205 O   0  0  0  0  0  0  0  0  0  0  0  0
  152.5068  139.6207  181.8351 N   0  0  0  0  0  0  0  0  0  0  0  0
  152.0066  140.1778  180.6314 C   0  0  0  0  0  0  0  0  0  0  0  0
  150.8216  139.4794  179.9881 C   0  0  0  0  0  0  0  0  0  0  0  0
  150.4485  138.2355  180.5449 N   0  0  0  0  0  0  0  0  0  0  0  0
  151.5236  137.5351  181.3218 C   0  0  0  0  0  0  0  0  0  0  0  0
  151.7239  138.5336  182.4835 C   0  0  0  0  0  0  0  0  0  0  0  0
  154.3332  141.4289  180.9866 H   0  0  0  0  0  0  0  0  0  0  0  0
  158.3444  141.8590  183.7161 C   0  0  0  0  0  0  0  0  0  0  0  0
  158.2459  140.9772  182.6716 C   0  0  0  0  0  0  0  0  0  0  0  0
  157.0018  140.7383  182.1169 C   0  0  0  0  0  0  0  0  0  0  0  0
  155.8373  141.3352  182.5496 C   0  0  0  0  0  0  0  0  0  0  0  0
  155.9459  142.2090  183.5842 C   0  0  0  0  0  0  0  0  0  0  0  0
  157.1940  142.4741  184.1704 C   0  0  0  0  0  0  0  0  0  0  0  0
  160.7093  141.1812  183.8627 C   0  0  0  0  0  0  0  0  0  0  0  0
  159.6509  142.1592  184.3992 C   0  0  0  0  0  0  0  0  0  0  0  0
  159.5897  141.9545  185.8876 C   0  0  0  0  0  0  0  0  0  0  0  0
  160.0726  143.5530  184.0689 C   0  0  0  0  0  0  0  0  0  0  0  0
  149.2440  137.5331  180.5495 C   0  0  0  0  0  0  0  0  0  0  0  0
  149.1692  136.3799  179.7881 N   0  0  0  0  0  0  0  0  0  0  0  0
  148.0859  135.6444  179.6266 C   0  0  0  0  0  0  0  0  0  0  0  0
  146.9102  136.0079  180.2430 C   0  0  0  0  0  0  0  0  0  0  0  0
  146.9026  137.1326  181.0129 C   0  0  0  0  0  0  0  0  0  0  0  0
  148.0913  137.8924  181.1585 C   0  0  0  0  0  0  0  0  0  0  0  0
  148.0100  139.0672  182.0579 C   0  0  0  0  0  0  0  0  0  0  0  0
  149.0135  139.1120  182.9985 F   0  0  0  0  0  0  0  0  0  0  0  0
  146.8119  139.0463  182.7456 F   0  0  0  0  0  0  0  0  0  0  0  0
  147.9721  140.2503  181.3187 F   0  0  0  0  0  0  0  0  0  0  0  0
 17 18  1  0  0  0
 18 19  1  0  0  0
 18 20  1  0  0  0
 18 11  1  0  0  0
 11 12  2  0  0  0
 12 13  1  0  0  0
 13 14  2  0  0  0
 14  1  1  0  0  0
  1  2  1  0  0  0
  2  3  2  0  0  0
  2  4  1  0  0  0
  4  5  1  0  0  0
  5  6  1  0  0  0
  6  7  1  0  0  0
  7  8  1  0  0  0
  8  9  1  0  0  0
  7 21  1  0  0  0
 21 22  2  0  0  0
 22 23  1  0  0  0
 23 24  2  0  0  0
 24 25  1  0  0  0
 25 26  2  0  0  0
 26 27  1  0  0  0
 27 28  1  0  0  0
 27 29  1  0  0  0
 27 30  1  0  0  0
 14 15  1  0  0  0
 15 16  2  0  0  0
 16 11  1  0  0  0
  9  4  1  0  0  0
 26 21  1  0  0  0
  1 10  1  0  0  0
M  END
> <minimizedAffinity>
-7.59214

> <CNNscore>
0.3298122883

> <CNNaffinity>
5.9223031998

> <CNN_VS>
1.9532483816

> <CNNaffinity_variance>
0.0414291583

$$$$
[H]c1nc(N2C([H])([H])C([H])([H])N(C(=O)N([H])c3c([H])c([H])c(C(C([H])([H])[H])(C([H])([H])[H])C([H])([H])[H])c([H])c3[H])C([H])([H])C2([H])[H])c(C(F)(F)F)c([H])c1[H]


 30 32  0  0  0  0  0  0  0  0999 V2000
  153.1476  135.9444  183.5046 N   0  0  0  0  0  0  0  0  0  0  0  0
  153.3461  136.1653  184.8791 C   0  0  0  0  0  0  0  0  0  0  0  0
  152.7453  137.1650  185.4077 O   0  0  0  0  0  0  0  0  0  0  0  0
  154.1439  135.4100  185.7506 N   0  0  0  0  0  0  0  0  0  0  0  0
  154.8480  134.2513  185.3371 C   0  0  0  0  0  0  0  0  0  0  0  0
  155.8620  133.6763  186.3101 C   0  0  0  0  0  0  0  0  0  0  0  0
  156.1448  134.4550  187.4548 N   0  0  0  0  0  0  0  0  0  0  0  0
  155.8280  135.9156  187.3279 C   0  0  0  0  0  0  0  0  0  0  0  0
  154.2932  135.8549  187.1630 C   0  0  0  0  0  0  0  0  0  0  0  0
  153.6679  135.1029  183.1040 H   0  0  0  0  0  0  0  0  0  0  0  0
  150.5858  138.1862  180.9934 C   0  0  0  0  0  0  0  0  0  0  0  0
  150.2526  136.9250  181.4138 C   0  0  0  0  0  0  0  0  0  0  0  0
  151.1276  136.2462  182.2421 C   0  0  0  0  0  0  0  0  0  0  0  0
  152.3297  136.7592  182.6797 C   0  0  0  0  0  0  0  0  0  0  0  0
  152.6499  138.0106  182.2590 C   0  0  0  0  0  0  0  0  0  0  0  0
  151.7840  138.7273  181.4174 C   0  0  0  0  0  0  0  0  0  0  0  0
  148.6184  139.6683  180.9133 C   0  0  0  0  0  0  0  0  0  0  0  0
  149.7093  138.9876  180.0699 C   0  0  0  0  0  0  0  0  0  0  0  0
  149.0001  138.1345  179.0548 C   0  0  0  0  0  0  0  0  0  0  0  0
  150.5288  140.0421  179.4019 C   0  0  0  0  0  0  0  0  0  0  0  0
  156.6328  134.1232  188.7181 C   0  0  0  0  0  0  0  0  0  0  0  0
  155.7142  133.9647  189.7410 N   0  0  0  0  0  0  0  0  0  0  0  0
  156.0153  133.7248  191.0029 C   0  0  0  0  0  0  0  0  0  0  0  0
  157.3326  133.6133  191.3859 C   0  0  0  0  0  0  0  0  0  0  0  0
  158.2986  133.7554  190.4348 C   0  0  0  0  0  0  0  0  0  0  0  0
  157.9281  134.0121  189.0901 C   0  0  0  0  0  0  0  0  0  0  0  0
  159.0374  134.0960  188.1113 C   0  0  0  0  0  0  0  0  0  0  0  0
  160.2815  134.1787  188.6936 F   0  0  0  0  0  0  0  0  0  0  0  0
  158.8828  135.2222  187.3262 F   0  0  0  0  0  0  0  0  0  0  0  0
  158.9820  133.0293  187.2131 F   0  0  0  0  0  0  0  0  0  0  0  0
 17 18  1  0  0  0
 18 19  1  0  0  0
 18 20  1  0  0  0
 18 11  1  0  0  0
 11 12  2  0  0  0
 12 13  1  0  0  0
 13 14  2  0  0  0
 14  1  1  0  0  0
  1  2  1  0  0  0
  2  3  2  0  0  0
  2  4  1  0  0  0
  4  5  1  0  0  0
  5  6  1  0  0  0
  6  7  1  0  0  0
  7  8  1  0  0  0
  8  9  1  0  0  0
  7 21  1  0  0  0
 21 22  2  0  0  0
 22 23  1  0  0  0
 23 24  2  0  0  0
 24 25  1  0  0  0
 25 26  2  0  0  0
 26 27  1  0  0  0
 27 28  1  0  0  0
 27 29  1  0  0  0
 27 30  1  0  0  0
 14 15  1  0  0  0
 15 16  2  0  0  0
 16 11  1  0  0  0
  9  4  1  0  0  0
 26 21  1  0  0  0
  1 10  1  0  0  0
M  END
> <minimizedAffinity>
-6.13090

> <CNNscore>
0.3293389380

> <CNNaffinity>
5.0962843895

> <CNN_VS>
1.6784049273

> <CNNaffinity_variance>
0.0932542309

$$$$
[H]c1nc(N2C([H])([H])C([H])([H])N(C(=O)N([H])c3c([H])c([H])c(C(C([H])([H])[H])(C([H])([H])[H])C([H])([H])[H])c([H])c3[H])C([H])([H])C2([H])[H])c(C(F)(F)F)c([H])c1[H]


 30 32  0  0  0  0  0  0  0  0999 V2000
  151.2654  135.0101  184.3522 N   0  0  0  0  0  0  0  0  0  0  0  0
  151.9780  135.7923  185.2784 C   0  0  0  0  0  0  0  0  0  0  0  0
  151.9684  137.0614  185.1081 O   0  0  0  0  0  0  0  0  0  0  0  0
  152.7155  135.3360  186.3804 N   0  0  0  0  0  0  0  0  0  0  0  0
  152.8005  133.9657  186.7331 C   0  0  0  0  0  0  0  0  0  0  0  0
  153.8233  133.5875  187.7897 C   0  0  0  0  0  0  0  0  0  0  0  0
  154.7220  134.6037  188.1852 N   0  0  0  0  0  0  0  0  0  0  0  0
  154.8976  135.7204  187.1993 C   0  0  0  0  0  0  0  0  0  0  0  0
  153.4737  136.3199  187.2003 C   0  0  0  0  0  0  0  0  0  0  0  0
  151.3013  133.9581  184.5293 H   0  0  0  0  0  0  0  0  0  0  0  0
  148.9322  136.5963  181.2003 C   0  0  0  0  0  0  0  0  0  0  0  0
  148.4792  136.5905  182.4938 C   0  0  0  0  0  0  0  0  0  0  0  0
  149.2927  136.0668  183.4819 C   0  0  0  0  0  0  0  0  0  0  0  0
  150.5462  135.5423  183.2509 C   0  0  0  0  0  0  0  0  0  0  0  0
  150.9867  135.5544  181.9658 C   0  0  0  0  0  0  0  0  0  0  0  0
  150.1858  136.0786  180.9385 C   0  0  0  0  0  0  0  0  0  0  0  0
  147.7813  135.9440  179.1210 C   0  0  0  0  0  0  0  0  0  0  0  0
  148.1056  137.1198  180.0574 C   0  0  0  0  0  0  0  0  0  0  0  0
  148.8369  138.1408  179.2303 C   0  0  0  0  0  0  0  0  0  0  0  0
  146.8268  137.6792  180.5877 C   0  0  0  0  0  0  0  0  0  0  0  0
  155.4634  134.7993  189.3498 C   0  0  0  0  0  0  0  0  0  0  0  0
  154.8943  135.5632  190.3537 N   0  0  0  0  0  0  0  0  0  0  0  0
  155.4895  135.9025  191.4811 C   0  0  0  0  0  0  0  0  0  0  0  0
  156.7789  135.4895  191.7289 C   0  0  0  0  0  0  0  0  0  0  0  0
  157.4087  134.7308  190.7879 C   0  0  0  0  0  0  0  0  0  0  0  0
  156.7294  134.3897  189.5906 C   0  0  0  0  0  0  0  0  0  0  0  0
  157.4659  133.5155  188.6477 C   0  0  0  0  0  0  0  0  0  0  0  0
  158.7504  133.2292  189.0499 F   0  0  0  0  0  0  0  0  0  0  0  0
  157.5563  134.1312  187.4142 F   0  0  0  0  0  0  0  0  0  0  0  0
  156.7508  132.3419  188.4048 F   0  0  0  0  0  0  0  0  0  0  0  0
 17 18  1  0  0  0
 18 19  1  0  0  0
 18 20  1  0  0  0
 18 11  1  0  0  0
 11 12  2  0  0  0
 12 13  1  0  0  0
 13 14  2  0  0  0
 14  1  1  0  0  0
  1  2  1  0  0  0
  2  3  2  0  0  0
  2  4  1  0  0  0
  4  5  1  0  0  0
  5  6  1  0  0  0
  6  7  1  0  0  0
  7  8  1  0  0  0
  8  9  1  0  0  0
  7 21  1  0  0  0
 21 22  2  0  0  0
 22 23  1  0  0  0
 23 24  2  0  0  0
 24 25  1  0  0  0
 25 26  2  0  0  0
 26 27  1  0  0  0
 27 28  1  0  0  0
 27 29  1  0  0  0
 27 30  1  0  0  0
 14 15  1  0  0  0
 15 16  2  0  0  0
 16 11  1  0  0  0
  9  4  1  0  0  0
 26 21  1  0  0  0
  1 10  1  0  0  0
M  END
> <minimizedAffinity>
-3.93350

> <CNNscore>
0.3262782991

> <CNNaffinity>
5.1201429367

> <CNN_VS>
1.6705914736

> <CNNaffinity_variance>
0.6542001963

$$$$
[H]c1nc(N2C([H])([H])C([H])([H])c3nc(-c4c([H])c([H])nc([H])c4[H])nc(N([H])c4c([H])c([H])c(C(F)(F)F)c([H])c4[H])c3C([H])([H])C2([H])[H])c(C(F)(F)F)c([H])c1[H]


 39 43  0  0  0  0  0  0  0  0999 V2000
  155.3250  139.0505  184.7487 C   0  0  0  0  0  0  0  0  0  0  0  0
  156.4341  139.8008  184.7670 N   0  0  0  0  0  0  0  0  0  0  0  0
  156.5876  140.8682  183.9798 C   0  0  0  0  0  0  0  0  0  0  0  0
  155.6016  141.2082  183.1434 N   0  0  0  0  0  0  0  0  0  0  0  0
  154.4235  140.5329  183.0240 C   0  0  0  0  0  0  0  0  0  0  0  0
  153.5383  141.2281  182.0845 C   0  0  0  0  0  0  0  0  0  0  0  0
  152.7142  140.3865  181.1924 C   0  0  0  0  0  0  0  0  0  0  0  0
  152.2081  139.1816  181.7601 N   0  0  0  0  0  0  0  0  0  0  0  0
  153.0259  138.1076  182.3122 C   0  0  0  0  0  0  0  0  0  0  0  0
  153.2386  138.4104  183.8033 C   0  0  0  0  0  0  0  0  0  0  0  0
  154.3156  139.4345  183.8510 C   0  0  0  0  0  0  0  0  0  0  0  0
  150.8275  138.8754  181.8571 C   0  0  0  0  0  0  0  0  0  0  0  0
  150.3129  138.4480  183.0560 N   0  0  0  0  0  0  0  0  0  0  0  0
  149.0399  138.1367  183.2610 C   0  0  0  0  0  0  0  0  0  0  0  0
  148.1079  138.2227  182.2448 C   0  0  0  0  0  0  0  0  0  0  0  0
  148.5697  138.6434  181.0303 C   0  0  0  0  0  0  0  0  0  0  0  0
  149.9256  138.9740  180.8223 C   0  0  0  0  0  0  0  0  0  0  0  0
  150.3110  139.3848  179.4801 C   0  0  0  0  0  0  0  0  0  0  0  0
  151.5681  138.9964  179.0717 F   0  0  0  0  0  0  0  0  0  0  0  0
  150.3572  140.7896  179.4237 F   0  0  0  0  0  0  0  0  0  0  0  0
  149.3574  139.0638  178.5170 F   0  0  0  0  0  0  0  0  0  0  0  0
  157.7899  141.7169  183.9306 C   0  0  0  0  0  0  0  0  0  0  0  0
  158.0125  142.6412  182.9563 C   0  0  0  0  0  0  0  0  0  0  0  0
  159.1516  143.4285  183.0122 C   0  0  0  0  0  0  0  0  0  0  0  0
  160.0634  143.3270  183.9862 N   0  0  0  0  0  0  0  0  0  0  0  0
  159.8659  142.4300  184.9453 C   0  0  0  0  0  0  0  0  0  0  0  0
  158.7474  141.6292  184.9289 C   0  0  0  0  0  0  0  0  0  0  0  0
  155.0588  138.0488  185.6451 N   0  0  0  0  0  0  0  0  0  0  0  0
  154.7745  137.0795  185.2159 H   0  0  0  0  0  0  0  0  0  0  0  0
  154.9408  138.0311  189.8959 C   0  0  0  0  0  0  0  0  0  0  0  0
  156.1064  137.7453  189.2020 C   0  0  0  0  0  0  0  0  0  0  0  0
  156.1019  137.7505  187.8237 C   0  0  0  0  0  0  0  0  0  0  0  0
  154.9493  138.0391  187.0571 C   0  0  0  0  0  0  0  0  0  0  0  0
  153.8245  138.3116  187.7764 C   0  0  0  0  0  0  0  0  0  0  0  0
  153.8000  138.3140  189.1761 C   0  0  0  0  0  0  0  0  0  0  0  0
  154.8069  139.3505  191.7568 F   0  0  0  0  0  0  0  0  0  0  0  0
  155.0357  138.0367  191.3769 C   0  0  0  0  0  0  0  0  0  0  0  0
  154.2245  137.1430  191.9814 F   0  0  0  0  0  0  0  0  0  0  0  0
  156.3540  137.6839  191.7051 F   0  0  0  0  0  0  0  0  0  0  0  0
 36 37  1  0  0  0
 37 38  1  0  0  0
 37 39  1  0  0  0
 37 30  1  0  0  0
 30 31  2  0  0  0
 31 32  1  0  0  0
 32 33  2  0  0  0
 33 28  1  0  0  0
 28  1  1  0  0  0
  1  2  2  0  0  0
  2  3  1  0  0  0
  3  4  2  0  0  0
  4  5  1  0  0  0
  5  6  1  0  0  0
  6  7  1  0  0  0
  7  8  1  0  0  0
  8  9  1  0  0  0
  9 10  1  0  0  0
 10 11  1  0  0  0
  8 12  1  0  0  0
 12 13  2  0  0  0
 13 14  1  0  0  0
 14 15  2  0  0  0
 15 16  1  0  0  0
 16 17  2  0  0  0
 17 18  1  0  0  0
 18 19  1  0  0  0
 18 20  1  0  0  0
 18 21  1  0  0  0
  3 22  1  0  0  0
 22 23  2  0  0  0
 23 24  1  0  0  0
 24 25  2  0  0  0
 25 26  1  0  0  0
 26 27  2  0  0  0
 33 34  1  0  0  0
 34 35  2  0  0  0
 35 30  1  0  0  0
 11  1  1  0  0  0
 17 12  1  0  0  0
 27 22  1  0  0  0
 11  5  2  0  0  0
 28 29  1  0  0  0
M  END
> <minimizedAffinity>
-10.73843

> <CNNscore>
0.4654536545

> <CNNaffinity>
7.0503525734

> <CNN_VS>
3.2816123962

> <CNNaffinity_variance>
0.1056473702

$$$$
[H]c1nc(N2C([H])([H])C([H])([H])c3nc(-c4c([H])c([H])nc([H])c4[H])nc(N([H])c4c([H])c([H])c(C(F)(F)F)c([H])c4[H])c3C([H])([H])C2([H])[H])c(C(F)(F)F)c([H])c1[H]


 39 43  0  0  0  0  0  0  0  0999 V2000
  154.4396  138.3208  184.2942 C   0  0  0  0  0  0  0  0  0  0  0  0
  155.6652  138.8549  184.2177 N   0  0  0  0  0  0  0  0  0  0  0  0
  155.9553  139.8618  183.3902 C   0  0  0  0  0  0  0  0  0  0  0  0
  154.9920  140.3619  182.6096 N   0  0  0  0  0  0  0  0  0  0  0  0
  153.7053  139.9122  182.5874 C   0  0  0  0  0  0  0  0  0  0  0  0
  152.8984  140.7411  181.6868 C   0  0  0  0  0  0  0  0  0  0  0  0
  151.8750  140.0493  180.8760 C   0  0  0  0  0  0  0  0  0  0  0  0
  151.1988  138.9681  181.5116 N   0  0  0  0  0  0  0  0  0  0  0  0
  151.8439  137.7723  182.0419 C   0  0  0  0  0  0  0  0  0  0  0  0
  152.2111  138.0577  183.5061 C   0  0  0  0  0  0  0  0  0  0  0  0
  153.4571  138.8673  183.4527 C   0  0  0  0  0  0  0  0  0  0  0  0
  149.7957  138.9223  181.7073 C   0  0  0  0  0  0  0  0  0  0  0  0
  149.2810  139.1399  182.9614 N   0  0  0  0  0  0  0  0  0  0  0  0
  147.9883  139.1229  183.2582 C   0  0  0  0  0  0  0  0  0  0  0  0
  147.0335  138.8748  182.2910 C   0  0  0  0  0  0  0  0  0  0  0  0
  147.4944  138.6515  181.0249 C   0  0  0  0  0  0  0  0  0  0  0  0
  148.8715  138.6732  180.7184 C   0  0  0  0  0  0  0  0  0  0  0  0
  149.2502  138.3949  179.3408 C   0  0  0  0  0  0  0  0  0  0  0  0
  148.2365  137.9574  178.5167 F   0  0  0  0  0  0  0  0  0  0  0  0
  150.1790  137.3385  179.3227 F   0  0  0  0  0  0  0  0  0  0  0  0
  149.9533  139.4404  178.7470 F   0  0  0  0  0  0  0  0  0  0  0  0
  157.2855  140.4744  183.2372 C   0  0  0  0  0  0  0  0  0  0  0  0
  158.3644  140.1142  183.9851 C   0  0  0  0  0  0  0  0  0  0  0  0
  159.5907  140.7130  183.7437 C   0  0  0  0  0  0  0  0  0  0  0  0
  159.7764  141.6449  182.8017 N   0  0  0  0  0  0  0  0  0  0  0  0
  158.7362  142.0118  182.0624 C   0  0  0  0  0  0  0  0  0  0  0  0
  157.5012  141.4414  182.2679 C   0  0  0  0  0  0  0  0  0  0  0  0
  154.0585  137.4013  185.2359 N   0  0  0  0  0  0  0  0  0  0  0  0
  153.1533  136.8237  185.0085 H   0  0  0  0  0  0  0  0  0  0  0  0
  155.4134  136.7473  189.2134 C   0  0  0  0  0  0  0  0  0  0  0  0
  155.0849  138.0150  188.7588 C   0  0  0  0  0  0  0  0  0  0  0  0
  154.6598  138.1881  187.4592 C   0  0  0  0  0  0  0  0  0  0  0  0
  154.5345  137.1208  186.5400 C   0  0  0  0  0  0  0  0  0  0  0  0
  154.8696  135.8922  187.0248 C   0  0  0  0  0  0  0  0  0  0  0  0
  155.3037  135.6870  188.3398 C   0  0  0  0  0  0  0  0  0  0  0  0
  154.6806  136.3115  191.3335 F   0  0  0  0  0  0  0  0  0  0  0  0
  155.8314  136.6401  190.6333 C   0  0  0  0  0  0  0  0  0  0  0  0
  156.8591  135.7893  190.8393 F   0  0  0  0  0  0  0  0  0  0  0  0
  156.2658  137.9143  191.0306 F   0  0  0  0  0  0  0  0  0  0  0  0
 36 37  1  0  0  0
 37 38  1  0  0  0
 37 39  1  0  0  0
 37 30  1  0  0  0
 30 31  2  0  0  0
 31 32  1  0  0  0
 32 33  2  0  0  0
 33 28  1  0  0  0
 28  1  1  0  0  0
  1  2  2  0  0  0
  2  3  1  0  0  0
  3  4  2  0  0  0
  4  5  1  0  0  0
  5  6  1  0  0  0
  6  7  1  0  0  0
  7  8  1  0  0  0
  8  9  1  0  0  0
  9 10  1  0  0  0
 10 11  1  0  0  0
  8 12  1  0  0  0
 12 13  2  0  0  0
 13 14  1  0  0  0
 14 15  2  0  0  0
 15 16  1  0  0  0
 16 17  2  0  0  0
 17 18  1  0  0  0
 18 19  1  0  0  0
 18 20  1  0  0  0
 18 21  1  0  0  0
  3 22  1  0  0  0
 22 23  2  0  0  0
 23 24  1  0  0  0
 24 25  2  0  0  0
 25 26  1  0  0  0
 26 27  2  0  0  0
 33 34  1  0  0  0
 34 35  2  0  0  0
 35 30  1  0  0  0
 11  1  1  0  0  0
 17 12  1  0  0  0
 27 22  1  0  0  0
 11  5  2  0  0  0
 28 29  1  0  0  0
M  END
> <minimizedAffinity>
-8.87897

> <CNNscore>
0.4136193395

> <CNNaffinity>
6.8858041763

> <CNN_VS>
2.8481018543

> <CNNaffinity_variance>
0.0414955281

$$$$
[H]c1nc(N2C([H])([H])C([H])([H])c3nc(-c4c([H])c([H])nc([H])c4[H])nc(N([H])c4c([H])c([H])c(C(F)(F)F)c([H])c4[H])c3C([H])([H])C2([H])[H])c(C(F)(F)F)c([H])c1[H]


 39 43  0  0  0  0  0  0  0  0999 V2000
  155.6313  139.0493  184.8992 C   0  0  0  0  0  0  0  0  0  0  0  0
  154.7955  139.2557  183.8734 N   0  0  0  0  0  0  0  0  0  0  0  0
  153.5709  138.7253  183.8318 C   0  0  0  0  0  0  0  0  0  0  0  0
  153.1563  137.9626  184.8486 N   0  0  0  0  0  0  0  0  0  0  0  0
  153.9041  137.6724  185.9507 C   0  0  0  0  0  0  0  0  0  0  0  0
  153.1119  136.8893  186.9039 C   0  0  0  0  0  0  0  0  0  0  0  0
  153.8149  135.8166  187.6377 C   0  0  0  0  0  0  0  0  0  0  0  0
  155.1601  136.0950  188.0161 N   0  0  0  0  0  0  0  0  0  0  0  0
  156.2412  136.4159  187.0912 C   0  0  0  0  0  0  0  0  0  0  0  0
  156.2545  137.9414  186.9093 C   0  0  0  0  0  0  0  0  0  0  0  0
  155.1629  138.2359  185.9437 C   0  0  0  0  0  0  0  0  0  0  0  0
  155.6179  136.0925  189.3575 C   0  0  0  0  0  0  0  0  0  0  0  0
  156.4769  135.1067  189.7764 N   0  0  0  0  0  0  0  0  0  0  0  0
  156.9687  135.0081  191.0044 C   0  0  0  0  0  0  0  0  0  0  0  0
  156.6380  135.9234  191.9850 C   0  0  0  0  0  0  0  0  0  0  0  0
  155.7851  136.9252  191.6189 C   0  0  0  0  0  0  0  0  0  0  0  0
  155.2685  137.0229  190.3095 C   0  0  0  0  0  0  0  0  0  0  0  0
  154.3465  138.1162  190.0388 C   0  0  0  0  0  0  0  0  0  0  0  0
  154.6739  138.9275  188.9745 F   0  0  0  0  0  0  0  0  0  0  0  0
  154.3346  138.9922  191.1394 F   0  0  0  0  0  0  0  0  0  0  0  0
  153.0194  137.7016  189.9541 F   0  0  0  0  0  0  0  0  0  0  0  0
  152.6153  138.8896  182.7237 C   0  0  0  0  0  0  0  0  0  0  0  0
  152.7130  139.8785  181.7934 C   0  0  0  0  0  0  0  0  0  0  0  0
  151.7937  139.9321  180.7576 C   0  0  0  0  0  0  0  0  0  0  0  0
  150.7952  139.0522  180.6202 N   0  0  0  0  0  0  0  0  0  0  0  0
  150.6811  138.0808  181.5184 C   0  0  0  0  0  0  0  0  0  0  0  0
  151.5735  137.9899  182.5615 C   0  0  0  0  0  0  0  0  0  0  0  0
  156.8275  139.6981  185.0596 N   0  0  0  0  0  0  0  0  0  0  0  0
  157.4117  139.4219  185.9468 H   0  0  0  0  0  0  0  0  0  0  0  0
  158.4427  143.0352  182.9767 C   0  0  0  0  0  0  0  0  0  0  0  0
  157.0743  142.8437  183.0884 C   0  0  0  0  0  0  0  0  0  0  0  0
  156.5892  141.7436  183.7623 C   0  0  0  0  0  0  0  0  0  0  0  0
  157.4271  140.7756  184.3629 C   0  0  0  0  0  0  0  0  0  0  0  0
  158.7646  140.9987  184.2281 C   0  0  0  0  0  0  0  0  0  0  0  0
  159.2852  142.1072  183.5498 C   0  0  0  0  0  0  0  0  0  0  0  0
  159.8600  144.8253  183.0712 F   0  0  0  0  0  0  0  0  0  0  0  0
  158.8845  144.2598  182.2642 C   0  0  0  0  0  0  0  0  0  0  0  0
  159.2847  144.0404  180.9938 F   0  0  0  0  0  0  0  0  0  0  0  0
  157.7780  145.1214  182.2042 F   0  0  0  0  0  0  0  0  0  0  0  0
 36 37  1  0  0  0
 37 38  1  0  0  0
 37 39  1  0  0  0
 37 30  1  0  0  0
 30 31  2  0  0  0
 31 32  1  0  0  0
 32 33  2  0  0  0
 33 28  1  0  0  0
 28  1  1  0  0  0
  1  2  2  0  0  0
  2  3  1  0  0  0
  3  4  2  0  0  0
  4  5  1  0  0  0
  5  6  1  0  0  0
  6  7  1  0  0  0
  7  8  1  0  0  0
  8  9  1  0  0  0
  9 10  1  0  0  0
 10 11  1  0  0  0
  8 12  1  0  0  0
 12 13  2  0  0  0
 13 14  1  0  0  0
 14 15  2  0  0  0
 15 16  1  0  0  0
 16 17  2  0  0  0
 17 18  1  0  0  0
 18 19  1  0  0  0
 18 20  1  0  0  0
 18 21  1  0  0  0
  3 22  1  0  0  0
 22 23  2  0  0  0
 23 24  1  0  0  0
 24 25  2  0  0  0
 25 26  1  0  0  0
 26 27  2  0  0  0
 33 34  1  0  0  0
 34 35  2  0  0  0
 35 30  1  0  0  0
 11  1  1  0  0  0
 17 12  1  0  0  0
 27 22  1  0  0  0
 11  5  2  0  0  0
 28 29  1  0  0  0
M  END
> <minimizedAffinity>
-9.60059

> <CNNscore>
0.3591835201

> <CNNaffinity>
6.9598832130

> <CNN_VS>
2.4998753071

> <CNNaffinity_variance>
0.1391466856

$$$$
[H]c1nc(N2C([H])([H])C([H])([H])c3nc(-c4c([H])c([H])nc([H])c4[H])nc(N([H])c4c([H])c([H])c(C(F)(F)F)c([H])c4[H])c3C([H])([H])C2([H])[H])c(C(F)(F)F)c([H])c1[H]


 39 43  0  0  0  0  0  0  0  0999 V2000
  154.0240  138.8350  184.1857 C   0  0  0  0  0  0  0  0  0  0  0  0
  154.9394  139.8078  184.0904 N   0  0  0  0  0  0  0  0  0  0  0  0
  154.9497  140.6826  183.0818 C   0  0  0  0  0  0  0  0  0  0  0  0
  154.0138  140.5924  182.1313 N   0  0  0  0  0  0  0  0  0  0  0  0
  153.0270  139.6523  182.1066 C   0  0  0  0  0  0  0  0  0  0  0  0
  152.1251  139.8996  180.9775 C   0  0  0  0  0  0  0  0  0  0  0  0
  151.6035  138.7152  180.2645 C   0  0  0  0  0  0  0  0  0  0  0  0
  151.3046  137.5800  181.0721 N   0  0  0  0  0  0  0  0  0  0  0  0
  152.2648  136.8733  181.9122 C   0  0  0  0  0  0  0  0  0  0  0  0
  152.2402  137.5363  183.2979 C   0  0  0  0  0  0  0  0  0  0  0  0
  153.0630  138.7675  183.1639 C   0  0  0  0  0  0  0  0  0  0  0  0
  150.0186  136.9901  181.1571 C   0  0  0  0  0  0  0  0  0  0  0  0
  149.8517  135.6776  180.7901 N   0  0  0  0  0  0  0  0  0  0  0  0
  148.6976  135.0251  180.8309 C   0  0  0  0  0  0  0  0  0  0  0  0
  147.5390  135.6432  181.2603 C   0  0  0  0  0  0  0  0  0  0  0  0
  147.6515  136.9512  181.6371 C   0  0  0  0  0  0  0  0  0  0  0  0
  148.8840  137.6365  181.5918 C   0  0  0  0  0  0  0  0  0  0  0  0
  148.8812  139.0362  181.9912 C   0  0  0  0  0  0  0  0  0  0  0  0
  149.7930  139.3844  182.9636 F   0  0  0  0  0  0  0  0  0  0  0  0
  147.6369  139.3480  182.5687 F   0  0  0  0  0  0  0  0  0  0  0  0
  148.9530  139.9116  180.9102 F   0  0  0  0  0  0  0  0  0  0  0  0
  155.9421  141.7557  182.9031 C   0  0  0  0  0  0  0  0  0  0  0  0
  157.2716  141.5916  183.1452 C   0  0  0  0  0  0  0  0  0  0  0  0
  158.1418  142.6438  182.9078 C   0  0  0  0  0  0  0  0  0  0  0  0
  157.7406  143.8349  182.4488 N   0  0  0  0  0  0  0  0  0  0  0  0
  156.4474  144.0161  182.2080 C   0  0  0  0  0  0  0  0  0  0  0  0
  155.5495  142.9973  182.4284 C   0  0  0  0  0  0  0  0  0  0  0  0
  153.8781  138.0201  185.2777 N   0  0  0  0  0  0  0  0  0  0  0  0
  153.1835  137.1781  185.1627 H   0  0  0  0  0  0  0  0  0  0  0  0
  155.1173  138.2937  189.3364 C   0  0  0  0  0  0  0  0  0  0  0  0
  153.8059  138.5405  188.9608 C   0  0  0  0  0  0  0  0  0  0  0  0
  153.4453  138.4523  187.6334 C   0  0  0  0  0  0  0  0  0  0  0  0
  154.3575  138.1146  186.6070 C   0  0  0  0  0  0  0  0  0  0  0  0
  155.6361  137.8828  187.0171 C   0  0  0  0  0  0  0  0  0  0  0  0
  156.0304  137.9646  188.3579 C   0  0  0  0  0  0  0  0  0  0  0  0
  156.7692  138.0880  190.9019 F   0  0  0  0  0  0  0  0  0  0  0  0
  155.4181  138.3777  190.7872 C   0  0  0  0  0  0  0  0  0  0  0  0
  155.0595  139.5490  191.3543 F   0  0  0  0  0  0  0  0  0  0  0  0
  154.6741  137.3693  191.4196 F   0  0  0  0  0  0  0  0  0  0  0  0
 36 37  1  0  0  0
 37 38  1  0  0  0
 37 39  1  0  0  0
 37 30  1  0  0  0
 30 31  2  0  0  0
 31 32  1  0  0  0
 32 33  2  0  0  0
 33 28  1  0  0  0
 28  1  1  0  0  0
  1  2  2  0  0  0
  2  3  1  0  0  0
  3  4  2  0  0  0
  4  5  1  0  0  0
  5  6  1  0  0  0
  6  7  1  0  0  0
  7  8  1  0  0  0
  8  9  1  0  0  0
  9 10  1  0  0  0
 10 11  1  0  0  0
  8 12  1  0  0  0
 12 13  2  0  0  0
 13 14  1  0  0  0
 14 15  2  0  0  0
 15 16  1  0  0  0
 16 17  2  0  0  0
 17 18  1  0  0  0
 18 19  1  0  0  0
 18 20  1  0  0  0
 18 21  1  0  0  0
  3 22  1  0  0  0
 22 23  2  0  0  0
 23 24  1  0  0  0
 24 25  2  0  0  0
 25 26  1  0  0  0
 26 27  2  0  0  0
 33 34  1  0  0  0
 34 35  2  0  0  0
 35 30  1  0  0  0
 11  1  1  0  0  0
 17 12  1  0  0  0
 27 22  1  0  0  0
 11  5  2  0  0  0
 28 29  1  0  0  0
M  END
> <minimizedAffinity>
-9.89626

> <CNNscore>
0.3412557840

> <CNNaffinity>
6.7436361313

> <CNN_VS>
2.3013048172

> <CNNaffinity_variance>
0.1468055993

$$$$
[H]c1nc(N2C([H])([H])C([H])([H])c3nc(-c4c([H])c([H])nc([H])c4[H])nc(N([H])c4c([H])c([H])c(C(F)(F)F)c([H])c4[H])c3C([H])([H])C2([H])[H])c(C(F)(F)F)c([H])c1[H]


 39 43  0  0  0  0  0  0  0  0999 V2000
  155.9817  140.6359  184.4839 C   0  0  0  0  0  0  0  0  0  0  0  0
  157.1612  141.2560  184.6154 N   0  0  0  0  0  0  0  0  0  0  0  0
  158.1637  140.7403  185.3308 C   0  0  0  0  0  0  0  0  0  0  0  0
  157.9921  139.5614  185.9375 N   0  0  0  0  0  0  0  0  0  0  0  0
  156.8450  138.8267  185.8862 C   0  0  0  0  0  0  0  0  0  0  0  0
  157.0329  137.5515  186.5847 C   0  0  0  0  0  0  0  0  0  0  0  0
  155.8892  137.0423  187.3696 C   0  0  0  0  0  0  0  0  0  0  0  0
  154.5973  137.2713  186.8136 N   0  0  0  0  0  0  0  0  0  0  0  0
  154.0358  138.5829  186.5114 C   0  0  0  0  0  0  0  0  0  0  0  0
  154.4294  138.9311  185.0677 C   0  0  0  0  0  0  0  0  0  0  0  0
  155.8370  139.4041  185.1428 C   0  0  0  0  0  0  0  0  0  0  0  0
  153.6870  136.2362  186.4833 C   0  0  0  0  0  0  0  0  0  0  0  0
  153.6046  135.7979  185.1848 N   0  0  0  0  0  0  0  0  0  0  0  0
  152.7923  134.8372  184.7644 C   0  0  0  0  0  0  0  0  0  0  0  0
  151.9397  134.1867  185.6354 C   0  0  0  0  0  0  0  0  0  0  0  0
  151.9830  134.5863  186.9406 C   0  0  0  0  0  0  0  0  0  0  0  0
  152.8517  135.6082  187.3788 C   0  0  0  0  0  0  0  0  0  0  0  0
  152.7939  135.9710  188.7872 C   0  0  0  0  0  0  0  0  0  0  0  0
  153.8751  135.5879  189.5503 F   0  0  0  0  0  0  0  0  0  0  0  0
  151.7063  135.3118  189.3885 F   0  0  0  0  0  0  0  0  0  0  0  0
  152.4966  137.3163  188.9917 F   0  0  0  0  0  0  0  0  0  0  0  0
  159.4725  141.3823  185.5381 C   0  0  0  0  0  0  0  0  0  0  0  0
  160.4682  141.3656  184.6100 C   0  0  0  0  0  0  0  0  0  0  0  0
  161.6537  142.0342  184.8712 C   0  0  0  0  0  0  0  0  0  0  0  0
  161.8801  142.7045  186.0069 N   0  0  0  0  0  0  0  0  0  0  0  0
  160.9222  142.7313  186.9261 C   0  0  0  0  0  0  0  0  0  0  0  0
  159.7291  142.0824  186.7065 C   0  0  0  0  0  0  0  0  0  0  0  0
  154.9870  141.0461  183.6353 N   0  0  0  0  0  0  0  0  0  0  0  0
  154.2178  140.3004  183.3964 H   0  0  0  0  0  0  0  0  0  0  0  0
  154.6290  144.5564  181.2619 C   0  0  0  0  0  0  0  0  0  0  0  0
  155.8273  143.8663  181.3591 C   0  0  0  0  0  0  0  0  0  0  0  0
  155.9065  142.7385  182.1474 C   0  0  0  0  0  0  0  0  0  0  0  0
  154.8086  142.2307  182.8797 C   0  0  0  0  0  0  0  0  0  0  0  0
  153.6507  142.9389  182.7597 C   0  0  0  0  0  0  0  0  0  0  0  0
  153.5413  144.0870  181.9662 C   0  0  0  0  0  0  0  0  0  0  0  0
  153.2779  146.0174  180.1386 F   0  0  0  0  0  0  0  0  0  0  0  0
  154.6171  145.7413  180.3683 C   0  0  0  0  0  0  0  0  0  0  0  0
  155.3191  146.7923  180.8426 F   0  0  0  0  0  0  0  0  0  0  0  0
  155.2220  145.3524  179.1629 F   0  0  0  0  0  0  0  0  0  0  0  0
 36 37  1  0  0  0
 37 38  1  0  0  0
 37 39  1  0  0  0
 37 30  1  0  0  0
 30 31  2  0  0  0
 31 32  1  0  0  0
 32 33  2  0  0  0
 33 28  1  0  0  0
 28  1  1  0  0  0
  1  2  2  0  0  0
  2  3  1  0  0  0
  3  4  2  0  0  0
  4  5  1  0  0  0
  5  6  1  0  0  0
  6  7  1  0  0  0
  7  8  1  0  0  0
  8  9  1  0  0  0
  9 10  1  0  0  0
 10 11  1  0  0  0
  8 12  1  0  0  0
 12 13  2  0  0  0
 13 14  1  0  0  0
 14 15  2  0  0  0
 15 16  1  0  0  0
 16 17  2  0  0  0
 17 18  1  0  0  0
 18 19  1  0  0  0
 18 20  1  0  0  0
 18 21  1  0  0  0
  3 22  1  0  0  0
 22 23  2  0  0  0
 23 24  1  0  0  0
 24 25  2  0  0  0
 25 26  1  0  0  0
 26 27  2  0  0  0
 33 34  1  0  0  0
 34 35  2  0  0  0
 35 30  1  0  0  0
 11  1  1  0  0  0
 17 12  1  0  0  0
 27 22  1  0  0  0
 11  5  2  0  0  0
 28 29  1  0  0  0
M  END
> <minimizedAffinity>
7.89199

> <CNNscore>
0.3087609112

> <CNNaffinity>
6.8084425926

> <CNN_VS>
2.1021809578

> <CNNaffinity_variance>
0.3482824564

$$$$
[H]c1nc(N2C([H])([H])C([H])([H])c3nc(-c4c([H])c([H])nc([H])c4[H])nc(N([H])c4c([H])c([H])c(C(F)(F)F)c([H])c4[H])c3C([H])([H])C2([H])[H])c(C(F)(F)F)c([H])c1[H]


 39 43  0  0  0  0  0  0  0  0999 V2000
  154.7570  138.4456  184.8768 C   0  0  0  0  0  0  0  0  0  0  0  0
  155.2197  138.5091  186.1318 N   0  0  0  0  0  0  0  0  0  0  0  0
  154.5635  137.9720  187.1632 C   0  0  0  0  0  0  0  0  0  0  0  0
  153.4041  137.3440  186.9420 N   0  0  0  0  0  0  0  0  0  0  0  0
  152.8214  137.2078  185.7172 C   0  0  0  0  0  0  0  0  0  0  0  0
  151.6093  136.3902  185.8251 C   0  0  0  0  0  0  0  0  0  0  0  0
  150.4590  136.7830  184.9850 C   0  0  0  0  0  0  0  0  0  0  0  0
  150.7726  137.2755  183.6852 N   0  0  0  0  0  0  0  0  0  0  0  0
  151.6013  138.4435  183.4094 C   0  0  0  0  0  0  0  0  0  0  0  0
  153.0544  137.9594  183.2889 C   0  0  0  0  0  0  0  0  0  0  0  0
  153.5323  137.7854  184.6861 C   0  0  0  0  0  0  0  0  0  0  0  0
  150.3089  136.6818  182.4846 C   0  0  0  0  0  0  0  0  0  0  0  0
  150.8138  135.4666  182.0929 N   0  0  0  0  0  0  0  0  0  0  0  0
  150.4519  134.8200  180.9927 C   0  0  0  0  0  0  0  0  0  0  0  0
  149.5073  135.3435  180.1310 C   0  0  0  0  0  0  0  0  0  0  0  0
  148.9735  136.5523  180.4758 C   0  0  0  0  0  0  0  0  0  0  0  0
  149.3636  137.2319  181.6493 C   0  0  0  0  0  0  0  0  0  0  0  0
  148.7484  138.5265  181.9031 C   0  0  0  0  0  0  0  0  0  0  0  0
  148.2819  138.7283  183.1836 F   0  0  0  0  0  0  0  0  0  0  0  0
  147.5997  138.6559  181.1015 F   0  0  0  0  0  0  0  0  0  0  0  0
  149.5399  139.5961  181.4913 F   0  0  0  0  0  0  0  0  0  0  0  0
  155.0019  138.0307  188.5676 C   0  0  0  0  0  0  0  0  0  0  0  0
  154.1383  138.1050  189.6173 C   0  0  0  0  0  0  0  0  0  0  0  0
  154.6373  138.1118  190.9102 C   0  0  0  0  0  0  0  0  0  0  0  0
  155.9444  138.0517  191.1897 N   0  0  0  0  0  0  0  0  0  0  0  0
  156.8037  137.9807  190.1798 C   0  0  0  0  0  0  0  0  0  0  0  0
  156.3507  137.9697  188.8808 C   0  0  0  0  0  0  0  0  0  0  0  0
  155.4686  138.8386  183.7736 N   0  0  0  0  0  0  0  0  0  0  0  0
  155.6727  138.0597  183.0277 H   0  0  0  0  0  0  0  0  0  0  0  0
  157.5833  142.3645  182.6875 C   0  0  0  0  0  0  0  0  0  0  0  0
  158.1831  141.1156  182.6390 C   0  0  0  0  0  0  0  0  0  0  0  0
  157.4679  139.9972  183.0094 C   0  0  0  0  0  0  0  0  0  0  0  0
  156.1237  140.0506  183.4454 C   0  0  0  0  0  0  0  0  0  0  0  0
  155.5721  141.2961  183.4816 C   0  0  0  0  0  0  0  0  0  0  0  0
  156.2744  142.4490  183.1108 C   0  0  0  0  0  0  0  0  0  0  0  0
  159.3876  143.6644  183.2136 F   0  0  0  0  0  0  0  0  0  0  0  0
  158.4095  143.5142  182.2423 C   0  0  0  0  0  0  0  0  0  0  0  0
  158.8968  143.3864  180.9900 F   0  0  0  0  0  0  0  0  0  0  0  0
  157.5767  144.6441  182.2468 F   0  0  0  0  0  0  0  0  0  0  0  0
 36 37  1  0  0  0
 37 38  1  0  0  0
 37 39  1  0  0  0
 37 30  1  0  0  0
 30 31  2  0  0  0
 31 32  1  0  0  0
 32 33  2  0  0  0
 33 28  1  0  0  0
 28  1  1  0  0  0
  1  2  2  0  0  0
  2  3  1  0  0  0
  3  4  2  0  0  0
  4  5  1  0  0  0
  5  6  1  0  0  0
  6  7  1  0  0  0
  7  8  1  0  0  0
  8  9  1  0  0  0
  9 10  1  0  0  0
 10 11  1  0  0  0
  8 12  1  0  0  0
 12 13  2  0  0  0
 13 14  1  0  0  0
 14 15  2  0  0  0
 15 16  1  0  0  0
 16 17  2  0  0  0
 17 18  1  0  0  0
 18 19  1  0  0  0
 18 20  1  0  0  0
 18 21  1  0  0  0
  3 22  1  0  0  0
 22 23  2  0  0  0
 23 24  1  0  0  0
 24 25  2  0  0  0
 25 26  1  0  0  0
 26 27  2  0  0  0
 33 34  1  0  0  0
 34 35  2  0  0  0
 35 30  1  0  0  0
 11  1  1  0  0  0
 17 12  1  0  0  0
 27 22  1  0  0  0
 11  5  2  0  0  0
 28 29  1  0  0  0
M  END
> <minimizedAffinity>
-8.01669

> <CNNscore>
0.3028659225

> <CNNaffinity>
6.8839569092

> <CNN_VS>
2.0849158764

> <CNNaffinity_variance>
0.0839125142

$$$$
[H]c1nc(N2C([H])([H])C([H])([H])c3nc(-c4c([H])c([H])nc([H])c4[H])nc(N([H])c4c([H])c([H])c(C(F)(F)F)c([H])c4[H])c3C([H])([H])C2([H])[H])c(C(F)(F)F)c([H])c1[H]


 39 43  0  0  0  0  0  0  0  0999 V2000
  154.3300  138.6904  184.1797 C   0  0  0  0  0  0  0  0  0  0  0  0
  155.4981  139.3102  183.9688 N   0  0  0  0  0  0  0  0  0  0  0  0
  155.6592  140.2230  183.0078 C   0  0  0  0  0  0  0  0  0  0  0  0
  154.6207  140.5370  182.2266 N   0  0  0  0  0  0  0  0  0  0  0  0
  153.3798  139.9829  182.3326 C   0  0  0  0  0  0  0  0  0  0  0  0
  152.4620  140.6193  181.3829 C   0  0  0  0  0  0  0  0  0  0  0  0
  151.4691  139.7465  180.7229 C   0  0  0  0  0  0  0  0  0  0  0  0
  150.9218  138.7034  181.5247 N   0  0  0  0  0  0  0  0  0  0  0  0
  151.6946  137.6435  182.1621 C   0  0  0  0  0  0  0  0  0  0  0  0
  152.1006  138.1440  183.5567 C   0  0  0  0  0  0  0  0  0  0  0  0
  153.2654  139.0408  183.3334 C   0  0  0  0  0  0  0  0  0  0  0  0
  149.5387  138.5668  181.8031 C   0  0  0  0  0  0  0  0  0  0  0  0
  149.0268  139.0981  182.9609 N   0  0  0  0  0  0  0  0  0  0  0  0
  147.7518  139.0315  183.3208 C   0  0  0  0  0  0  0  0  0  0  0  0
  146.8147  138.3985  182.5272 C   0  0  0  0  0  0  0  0  0  0  0  0
  147.2736  137.8522  181.3626 C   0  0  0  0  0  0  0  0  0  0  0  0
  148.6316  137.9296  180.9874 C   0  0  0  0  0  0  0  0  0  0  0  0
  149.0133  137.2884  179.7377 C   0  0  0  0  0  0  0  0  0  0  0  0
  149.5552  138.1168  178.7794 F   0  0  0  0  0  0  0  0  0  0  0  0
  147.8639  136.7640  179.1191 F   0  0  0  0  0  0  0  0  0  0  0  0
  149.8103  136.1615  179.9245 F   0  0  0  0  0  0  0  0  0  0  0  0
  156.9210  140.9193  182.7056 C   0  0  0  0  0  0  0  0  0  0  0  0
  158.0703  140.2711  182.3707 C   0  0  0  0  0  0  0  0  0  0  0  0
  159.2015  141.0084  182.0586 C   0  0  0  0  0  0  0  0  0  0  0  0
  159.2289  142.3461  182.0716 N   0  0  0  0  0  0  0  0  0  0  0  0
  158.1186  142.9975  182.3974 C   0  0  0  0  0  0  0  0  0  0  0  0
  156.9727  142.3044  182.7126 C   0  0  0  0  0  0  0  0  0  0  0  0
  154.0756  137.8709  185.2481 N   0  0  0  0  0  0  0  0  0  0  0  0
  153.4722  136.9781  185.0393 H   0  0  0  0  0  0  0  0  0  0  0  0
  155.0530  138.2673  189.3677 C   0  0  0  0  0  0  0  0  0  0  0  0
  155.9728  137.7891  188.4473 C   0  0  0  0  0  0  0  0  0  0  0  0
  155.6147  137.6647  187.1222 C   0  0  0  0  0  0  0  0  0  0  0  0
  154.3322  138.0067  186.6343 C   0  0  0  0  0  0  0  0  0  0  0  0
  153.4572  138.4696  187.5707 C   0  0  0  0  0  0  0  0  0  0  0  0
  153.7936  138.6067  188.9227 C   0  0  0  0  0  0  0  0  0  0  0  0
  156.9078  138.3155  190.7016 F   0  0  0  0  0  0  0  0  0  0  0  0
  155.5255  138.4019  190.7681 C   0  0  0  0  0  0  0  0  0  0  0  0
  155.0759  139.5102  191.3940 F   0  0  0  0  0  0  0  0  0  0  0  0
  155.0272  137.2978  191.4773 F   0  0  0  0  0  0  0  0  0  0  0  0
 36 37  1  0  0  0
 37 38  1  0  0  0
 37 39  1  0  0  0
 37 30  1  0  0  0
 30 31  2  0  0  0
 31 32  1  0  0  0
 32 33  2  0  0  0
 33 28  1  0  0  0
 28  1  1  0  0  0
  1  2  2  0  0  0
  2  3  1  0  0  0
  3  4  2  0  0  0
  4  5  1  0  0  0
  5  6  1  0  0  0
  6  7  1  0  0  0
  7  8  1  0  0  0
  8  9  1  0  0  0
  9 10  1  0  0  0
 10 11  1  0  0  0
  8 12  1  0  0  0
 12 13  2  0  0  0
 13 14  1  0  0  0
 14 15  2  0  0  0
 15 16  1  0  0  0
 16 17  2  0  0  0
 17 18  1  0  0  0
 18 19  1  0  0  0
 18 20  1  0  0  0
 18 21  1  0  0  0
  3 22  1  0  0  0
 22 23  2  0  0  0
 23 24  1  0  0  0
 24 25  2  0  0  0
 25 26  1  0  0  0
 26 27  2  0  0  0
 33 34  1  0  0  0
 34 35  2  0  0  0
 35 30  1  0  0  0
 11  1  1  0  0  0
 17 12  1  0  0  0
 27 22  1  0  0  0
 11  5  2  0  0  0
 28 29  1  0  0  0
M  END
> <minimizedAffinity>
-10.17819

> <CNNscore>
0.2800458372

> <CNNaffinity>
6.8473291397

> <CNN_VS>
1.9175660610

> <CNNaffinity_variance>
0.0527627468

$$$$
[H]c1nc(N2C([H])([H])C([H])([H])c3nc(-c4c([H])c([H])nc([H])c4[H])nc(N([H])c4c([H])c([H])c(C(F)(F)F)c([H])c4[H])c3C([H])([H])C2([H])[H])c(C(F)(F)F)c([H])c1[H]


 39 43  0  0  0  0  0  0  0  0999 V2000
  155.1669  139.4800  183.9270 C   0  0  0  0  0  0  0  0  0  0  0  0
  154.3505  139.5011  182.8658 N   0  0  0  0  0  0  0  0  0  0  0  0
  153.1465  138.9240  182.8792 C   0  0  0  0  0  0  0  0  0  0  0  0
  152.7334  138.3041  183.9893 N   0  0  0  0  0  0  0  0  0  0  0  0
  153.4630  138.2081  185.1368 C   0  0  0  0  0  0  0  0  0  0  0  0
  152.6749  137.5443  186.1797 C   0  0  0  0  0  0  0  0  0  0  0  0
  153.3963  136.6191  187.0780 C   0  0  0  0  0  0  0  0  0  0  0  0
  154.7211  137.0014  187.4373 N   0  0  0  0  0  0  0  0  0  0  0  0
  155.8132  137.2235  186.4965 C   0  0  0  0  0  0  0  0  0  0  0  0
  155.7779  138.7049  186.0909 C   0  0  0  0  0  0  0  0  0  0  0  0
  154.7011  138.8121  185.0711 C   0  0  0  0  0  0  0  0  0  0  0  0
  155.1449  137.2139  188.7730 C   0  0  0  0  0  0  0  0  0  0  0  0
  154.7502  138.3505  189.4343 N   0  0  0  0  0  0  0  0  0  0  0  0
  155.0845  138.6501  190.6825 C   0  0  0  0  0  0  0  0  0  0  0  0
  155.8839  137.8091  191.4324 C   0  0  0  0  0  0  0  0  0  0  0  0
  156.3041  136.6632  190.8196 C   0  0  0  0  0  0  0  0  0  0  0  0
  155.9418  136.3522  189.4918 C   0  0  0  0  0  0  0  0  0  0  0  0
  156.4694  135.1170  188.9310 C   0  0  0  0  0  0  0  0  0  0  0  0
  155.5570  134.3163  188.2794 F   0  0  0  0  0  0  0  0  0  0  0  0
  156.9465  134.3039  189.9750 F   0  0  0  0  0  0  0  0  0  0  0  0
  157.6024  135.3153  188.1455 F   0  0  0  0  0  0  0  0  0  0  0  0
  152.2138  138.8866  181.7404 C   0  0  0  0  0  0  0  0  0  0  0  0
  151.1952  137.9893  181.6381 C   0  0  0  0  0  0  0  0  0  0  0  0
  150.3371  138.0544  180.5518 C   0  0  0  0  0  0  0  0  0  0  0  0
  150.4579  138.9642  179.5782 N   0  0  0  0  0  0  0  0  0  0  0  0
  151.4463  139.8474  179.6581 C   0  0  0  0  0  0  0  0  0  0  0  0
  152.3198  139.8193  180.7206 C   0  0  0  0  0  0  0  0  0  0  0  0
  156.3355  140.1906  184.0130 N   0  0  0  0  0  0  0  0  0  0  0  0
  156.8325  140.1864  184.9916 H   0  0  0  0  0  0  0  0  0  0  0  0
  158.3343  142.6342  181.1639 C   0  0  0  0  0  0  0  0  0  0  0  0
  158.4626  141.2539  181.1519 C   0  0  0  0  0  0  0  0  0  0  0  0
  157.8074  140.4967  182.0990 C   0  0  0  0  0  0  0  0  0  0  0  0
  156.9901  141.0597  183.1064 C   0  0  0  0  0  0  0  0  0  0  0  0
  156.8925  142.4187  183.0853 C   0  0  0  0  0  0  0  0  0  0  0  0
  157.5461  143.2125  182.1353 C   0  0  0  0  0  0  0  0  0  0  0  0
  158.3343  143.1156  178.9300 F   0  0  0  0  0  0  0  0  0  0  0  0
  159.0449  143.3751  180.0921 C   0  0  0  0  0  0  0  0  0  0  0  0
  159.2093  144.6896  180.3512 F   0  0  0  0  0  0  0  0  0  0  0  0
  160.3266  142.8131  179.9851 F   0  0  0  0  0  0  0  0  0  0  0  0
 36 37  1  0  0  0
 37 38  1  0  0  0
 37 39  1  0  0  0
 37 30  1  0  0  0
 30 31  2  0  0  0
 31 32  1  0  0  0
 32 33  2  0  0  0
 33 28  1  0  0  0
 28  1  1  0  0  0
  1  2  2  0  0  0
  2  3  1  0  0  0
  3  4  2  0  0  0
  4  5  1  0  0  0
  5  6  1  0  0  0
  6  7  1  0  0  0
  7  8  1  0  0  0
  8  9  1  0  0  0
  9 10  1  0  0  0
 10 11  1  0  0  0
  8 12  1  0  0  0
 12 13  2  0  0  0
 13 14  1  0  0  0
 14 15  2  0  0  0
 15 16  1  0  0  0
 16 17  2  0  0  0
 17 18  1  0  0  0
 18 19  1  0  0  0
 18 20  1  0  0  0
 18 21  1  0  0  0
  3 22  1  0  0  0
 22 23  2  0  0  0
 23 24  1  0  0  0
 24 25  2  0  0  0
 25 26  1  0  0  0
 26 27  2  0  0  0
 33 34  1  0  0  0
 34 35  2  0  0  0
 35 30  1  0  0  0
 11  1  1  0  0  0
 17 12  1  0  0  0
 27 22  1  0  0  0
 11  5  2  0  0  0
 28 29  1  0  0  0
M  END
> <minimizedAffinity>
-9.35038

> <CNNscore>
0.2502697408

> <CNNaffinity>
6.9415884018

> <CNN_VS>
1.7372695208

> <CNNaffinity_variance>
0.0756013989

$$$$
[H]c1nc(N2C([H])([H])C([H])([H])c3nc(-c4c([H])c([H])nc([H])c4[H])nc(N([H])c4c([H])c([H])c(C(F)(F)F)c([H])c4[H])c3C([H])([H])C2([H])[H])c(C(F)(F)F)c([H])c1[H]


 39 43  0  0  0  0  0  0  0  0999 V2000
  152.6821  136.8985  184.8866 C   0  0  0  0  0  0  0  0  0  0  0  0
  152.5749  137.5214  183.7061 N   0  0  0  0  0  0  0  0  0  0  0  0
  151.3937  137.8376  183.1698 C   0  0  0  0  0  0  0  0  0  0  0  0
  150.2739  137.5274  183.8310 N   0  0  0  0  0  0  0  0  0  0  0  0
  150.2404  136.8945  185.0378 C   0  0  0  0  0  0  0  0  0  0  0  0
  148.8576  136.7934  185.5144 C   0  0  0  0  0  0  0  0  0  0  0  0
  148.4794  135.5484  186.2146 C   0  0  0  0  0  0  0  0  0  0  0  0
  149.4779  134.9741  187.0533 N   0  0  0  0  0  0  0  0  0  0  0  0
  150.7950  134.5342  186.6073 C   0  0  0  0  0  0  0  0  0  0  0  0
  151.7490  135.7314  186.7370 C   0  0  0  0  0  0  0  0  0  0  0  0
  151.4836  136.5817  185.5465 C   0  0  0  0  0  0  0  0  0  0  0  0
  149.3091  134.7560  188.4436 C   0  0  0  0  0  0  0  0  0  0  0  0
  149.8683  135.6347  189.3382 N   0  0  0  0  0  0  0  0  0  0  0  0
  149.7725  135.5298  190.6570 C   0  0  0  0  0  0  0  0  0  0  0  0
  149.0786  134.4901  191.2452 C   0  0  0  0  0  0  0  0  0  0  0  0
  148.5026  133.5871  190.3977 C   0  0  0  0  0  0  0  0  0  0  0  0
  148.6085  133.7080  188.9959 C   0  0  0  0  0  0  0  0  0  0  0  0
  147.9778  132.6728  188.1901 C   0  0  0  0  0  0  0  0  0  0  0  0
  148.7770  132.0878  187.2324 F   0  0  0  0  0  0  0  0  0  0  0  0
  146.9260  133.2422  187.4496 F   0  0  0  0  0  0  0  0  0  0  0  0
  147.3334  131.7036  188.9552 F   0  0  0  0  0  0  0  0  0  0  0  0
  151.2058  138.4957  181.8660 C   0  0  0  0  0  0  0  0  0  0  0  0
  149.9829  138.8092  181.3568 C   0  0  0  0  0  0  0  0  0  0  0  0
  149.9005  139.4686  180.1407 C   0  0  0  0  0  0  0  0  0  0  0  0
  150.9752  139.8177  179.4241 N   0  0  0  0  0  0  0  0  0  0  0  0
  152.1774  139.5193  179.9023 C   0  0  0  0  0  0  0  0  0  0  0  0
  152.3045  138.8667  181.1068 C   0  0  0  0  0  0  0  0  0  0  0  0
  153.8663  136.6990  185.5466 N   0  0  0  0  0  0  0  0  0  0  0  0
  154.6131  136.0870  185.0247 H   0  0  0  0  0  0  0  0  0  0  0  0
  154.9787  137.8065  189.4988 C   0  0  0  0  0  0  0  0  0  0  0  0
  154.0879  138.5665  188.7567 C   0  0  0  0  0  0  0  0  0  0  0  0
  153.7605  138.1805  187.4747 C   0  0  0  0  0  0  0  0  0  0  0  0
  154.2921  137.0246  186.8576 C   0  0  0  0  0  0  0  0  0  0  0  0
  155.1655  136.3073  187.6188 C   0  0  0  0  0  0  0  0  0  0  0  0
  155.5158  136.6752  188.9233 C   0  0  0  0  0  0  0  0  0  0  0  0
  154.8720  139.6035  190.9064 F   0  0  0  0  0  0  0  0  0  0  0  0
  155.2548  138.2710  190.8810 C   0  0  0  0  0  0  0  0  0  0  0  0
  154.6751  137.5166  191.8386 F   0  0  0  0  0  0  0  0  0  0  0  0
  156.6426  138.1854  191.0733 F   0  0  0  0  0  0  0  0  0  0  0  0
 36 37  1  0  0  0
 37 38  1  0  0  0
 37 39  1  0  0  0
 37 30  1  0  0  0
 30 31  2  0  0  0
 31 32  1  0  0  0
 32 33  2  0  0  0
 33 28  1  0  0  0
 28  1  1  0  0  0
  1  2  2  0  0  0
  2  3  1  0  0  0
  3  4  2  0  0  0
  4  5  1  0  0  0
  5  6  1  0  0  0
  6  7  1  0  0  0
  7  8  1  0  0  0
  8  9  1  0  0  0
  9 10  1  0  0  0
 10 11  1  0  0  0
  8 12  1  0  0  0
 12 13  2  0  0  0
 13 14  1  0  0  0
 14 15  2  0  0  0
 15 16  1  0  0  0
 16 17  2  0  0  0
 17 18  1  0  0  0
 18 19  1  0  0  0
 18 20  1  0  0  0
 18 21  1  0  0  0
  3 22  1  0  0  0
 22 23  2  0  0  0
 23 24  1  0  0  0
 24 25  2  0  0  0
 25 26  1  0  0  0
 26 27  2  0  0  0
 33 34  1  0  0  0
 34 35  2  0  0  0
 35 30  1  0  0  0
 11  1  1  0  0  0
 17 12  1  0  0  0
 27 22  1  0  0  0
 11  5  2  0  0  0
 28 29  1  0  0  0
M  END
> <minimizedAffinity>
-6.82344

> <CNNscore>
0.2476511151

> <CNNaffinity>
6.4075021744

> <CNN_VS>
1.5868250132

> <CNNaffinity_variance>
0.0856104717

$$$$
[H]c1c([H])c(C([H])(C(=O)N([H])C([H])([H])c2c([H])c([H])c(C(C([H])([H])[H])(C([H])([H])[H])C([H])([H])[H])c([H])c2[H])C([H])([H])[H])c([H])c(F)c1N([H])S(=O)(=O)C([H])([H])[H]


 30 31  0  0  0  0  0  0  0  0999 V2000
  157.5396  141.6957  180.5822 C   0  0  0  0  0  0  0  0  0  0  0  0
  157.3474  142.3618  181.9038 C   0  0  0  0  0  0  0  0  0  0  0  0
  158.5837  142.4089  182.7122 C   0  0  0  0  0  0  0  0  0  0  0  0
  159.1912  141.2533  183.1648 C   0  0  0  0  0  0  0  0  0  0  0  0
  160.3259  141.3611  183.9663 C   0  0  0  0  0  0  0  0  0  0  0  0
  160.8550  142.5276  184.3252 C   0  0  0  0  0  0  0  0  0  0  0  0
  160.2440  143.7168  183.8688 C   0  0  0  0  0  0  0  0  0  0  0  0
  160.7713  144.9172  184.2130 F   0  0  0  0  0  0  0  0  0  0  0  0
  159.1360  143.6482  183.0804 C   0  0  0  0  0  0  0  0  0  0  0  0
  161.9848  142.7130  185.1368 N   0  0  0  0  0  0  0  0  0  0  0  0
  162.9545  142.6661  184.6759 H   0  0  0  0  0  0  0  0  0  0  0  0
  161.8688  143.0152  186.8115 S   0  0  0  0  0  0  0  0  0  0  0  0
  163.3111  142.3375  187.6493 C   0  0  0  0  0  0  0  0  0  0  0  0
  160.6442  142.2584  187.3050 O   0  0  0  0  0  0  0  0  0  0  0  0
  161.7389  144.4633  187.1006 O   0  0  0  0  0  0  0  0  0  0  0  0
  156.2220  141.8217  182.6918 C   0  0  0  0  0  0  0  0  0  0  0  0
  155.7293  142.5664  183.6172 O   0  0  0  0  0  0  0  0  0  0  0  0
  155.6784  140.5619  182.4974 N   0  0  0  0  0  0  0  0  0  0  0  0
  156.0467  139.9226  181.7823 H   0  0  0  0  0  0  0  0  0  0  0  0
  154.5724  140.1276  183.3318 C   0  0  0  0  0  0  0  0  0  0  0  0
  153.3699  139.7938  182.5139 C   0  0  0  0  0  0  0  0  0  0  0  0
  152.8812  140.5798  181.4960 C   0  0  0  0  0  0  0  0  0  0  0  0
  151.7236  140.2318  180.7824 C   0  0  0  0  0  0  0  0  0  0  0  0
  151.0434  139.0790  181.0913 C   0  0  0  0  0  0  0  0  0  0  0  0
  151.5119  138.2514  182.1204 C   0  0  0  0  0  0  0  0  0  0  0  0
  152.6473  138.6404  182.7842 C   0  0  0  0  0  0  0  0  0  0  0  0
  149.8328  138.7066  180.3808 C   0  0  0  0  0  0  0  0  0  0  0  0
  148.6262  139.3587  180.9998 C   0  0  0  0  0  0  0  0  0  0  0  0
  149.5598  137.1844  180.4476 C   0  0  0  0  0  0  0  0  0  0  0  0
  149.8078  139.0838  178.9150 C   0  0  0  0  0  0  0  0  0  0  0  0
  1  2  1  0  0  0
  2 16  1  0  0  0
 16 17  2  0  0  0
 16 18  1  0  0  0
 18 20  1  0  0  0
 20 21  1  0  0  0
 21 22  2  0  0  0
 22 23  1  0  0  0
 23 24  2  0  0  0
 24 25  1  0  0  0
 25 26  2  0  0  0
 24 27  1  0  0  0
 27 28  1  0  0  0
 27 29  1  0  0  0
 27 30  1  0  0  0
  2  3  1  0  0  0
  3  4  2  0  0  0
  4  5  1  0  0  0
  5  6  2  0  0  0
  6 10  1  0  0  0
 10 12  1  0  0  0
 12 13  1  0  0  0
 12 14  2  0  0  0
 12 15  2  0  0  0
  6  7  1  0  0  0
  7  8  1  0  0  0
  7  9  2  0  0  0
 26 21  1  0  0  0
  9  3  1  0  0  0
 18 19  1  0  0  0
 10 11  1  0  0  0
M  END
> <minimizedAffinity>
-8.77632

> <CNNscore>
0.5539360046

> <CNNaffinity>
6.3764200211

> <CNN_VS>
3.5321285725

> <CNNaffinity_variance>
0.0223317035

$$$$
[H]c1c([H])c(C([H])(C(=O)N([H])C([H])([H])c2c([H])c([H])c(C(C([H])([H])[H])(C([H])([H])[H])C([H])([H])[H])c([H])c2[H])C([H])([H])[H])c([H])c(F)c1N([H])S(=O)(=O)C([H])([H])[H]


 30 31  0  0  0  0  0  0  0  0999 V2000
  156.5768  138.1349  189.9173 C   0  0  0  0  0  0  0  0  0  0  0  0
  155.2302  138.0602  189.2782 C   0  0  0  0  0  0  0  0  0  0  0  0
  154.3114  137.1344  189.9731 C   0  0  0  0  0  0  0  0  0  0  0  0
  153.1460  136.6947  189.3751 C   0  0  0  0  0  0  0  0  0  0  0  0
  152.2928  135.8634  190.0981 C   0  0  0  0  0  0  0  0  0  0  0  0
  152.5417  135.4731  191.3452 C   0  0  0  0  0  0  0  0  0  0  0  0
  153.7301  135.9151  191.9681 C   0  0  0  0  0  0  0  0  0  0  0  0
  154.0102  135.5221  193.2349 F   0  0  0  0  0  0  0  0  0  0  0  0
  154.5885  136.7251  191.2891 C   0  0  0  0  0  0  0  0  0  0  0  0
  151.7260  134.6499  192.1367 N   0  0  0  0  0  0  0  0  0  0  0  0
  151.8087  133.5853  192.0153 H   0  0  0  0  0  0  0  0  0  0  0  0
  150.6254  135.2781  193.2785 S   0  0  0  0  0  0  0  0  0  0  0  0
  149.1002  134.3222  193.2372 C   0  0  0  0  0  0  0  0  0  0  0  0
  150.2996  136.6960  192.8322 O   0  0  0  0  0  0  0  0  0  0  0  0
  151.1949  135.2796  194.6470 O   0  0  0  0  0  0  0  0  0  0  0  0
  155.2664  137.7791  187.8295 C   0  0  0  0  0  0  0  0  0  0  0  0
  156.0616  136.8549  187.4202 O   0  0  0  0  0  0  0  0  0  0  0  0
  154.5043  138.4584  186.8924 N   0  0  0  0  0  0  0  0  0  0  0  0
  153.8661  139.2158  187.1662 H   0  0  0  0  0  0  0  0  0  0  0  0
  154.6192  138.1033  185.4892 C   0  0  0  0  0  0  0  0  0  0  0  0
  155.3117  139.1716  184.7108 C   0  0  0  0  0  0  0  0  0  0  0  0
  156.6174  139.5556  184.9119 C   0  0  0  0  0  0  0  0  0  0  0  0
  157.2065  140.5925  184.1715 C   0  0  0  0  0  0  0  0  0  0  0  0
  156.4785  141.2562  183.2142 C   0  0  0  0  0  0  0  0  0  0  0  0
  155.1461  140.8918  182.9790 C   0  0  0  0  0  0  0  0  0  0  0  0
  154.6217  139.8722  183.7317 C   0  0  0  0  0  0  0  0  0  0  0  0
  157.0591  142.3448  182.4482 C   0  0  0  0  0  0  0  0  0  0  0  0
  157.3638  141.9071  181.0412 C   0  0  0  0  0  0  0  0  0  0  0  0
  158.4108  142.8181  183.0356 C   0  0  0  0  0  0  0  0  0  0  0  0
  156.1891  143.5776  182.3249 C   0  0  0  0  0  0  0  0  0  0  0  0
  1  2  1  0  0  0
  2 16  1  0  0  0
 16 17  2  0  0  0
 16 18  1  0  0  0
 18 20  1  0  0  0
 20 21  1  0  0  0
 21 22  2  0  0  0
 22 23  1  0  0  0
 23 24  2  0  0  0
 24 25  1  0  0  0
 25 26  2  0  0  0
 24 27  1  0  0  0
 27 28  1  0  0  0
 27 29  1  0  0  0
 27 30  1  0  0  0
  2  3  1  0  0  0
  3  4  2  0  0  0
  4  5  1  0  0  0
  5  6  2  0  0  0
  6 10  1  0  0  0
 10 12  1  0  0  0
 12 13  1  0  0  0
 12 14  2  0  0  0
 12 15  2  0  0  0
  6  7  1  0  0  0
  7  8  1  0  0  0
  7  9  2  0  0  0
 26 21  1  0  0  0
  9  3  1  0  0  0
 18 19  1  0  0  0
 10 11  1  0  0  0
M  END
> <minimizedAffinity>
-7.33117

> <CNNscore>
0.4937308431

> <CNNaffinity>
5.6872196198

> <CNN_VS>
2.8079557419

> <CNNaffinity_variance>
0.0466972068

$$$$
[H]c1c([H])c(C([H])(C(=O)N([H])C([H])([H])c2c([H])c([H])c(C(C([H])([H])[H])(C([H])([H])[H])C([H])([H])[H])c([H])c2[H])C([H])([H])[H])c([H])c(F)c1N([H])S(=O)(=O)C([H])([H])[H]


 30 31  0  0  0  0  0  0  0  0999 V2000
  156.5662  138.0551  190.2142 C   0  0  0  0  0  0  0  0  0  0  0  0
  155.2877  138.2503  189.4694 C   0  0  0  0  0  0  0  0  0  0  0  0
  154.1304  137.6125  190.1312 C   0  0  0  0  0  0  0  0  0  0  0  0
  154.0155  137.5839  191.5079 C   0  0  0  0  0  0  0  0  0  0  0  0
  152.9286  136.9234  192.0771 C   0  0  0  0  0  0  0  0  0  0  0  0
  151.9922  136.3100  191.3585 C   0  0  0  0  0  0  0  0  0  0  0  0
  152.0975  136.3322  189.9499 C   0  0  0  0  0  0  0  0  0  0  0  0
  151.1498  135.7228  189.1962 F   0  0  0  0  0  0  0  0  0  0  0  0
  153.1448  136.9721  189.3601 C   0  0  0  0  0  0  0  0  0  0  0  0
  150.8801  135.6171  191.8609 N   0  0  0  0  0  0  0  0  0  0  0  0
  149.9001  135.9881  191.6223 H   0  0  0  0  0  0  0  0  0  0  0  0
  151.0324  134.2154  192.8210 S   0  0  0  0  0  0  0  0  0  0  0  0
  151.2922  134.6853  194.5396 C   0  0  0  0  0  0  0  0  0  0  0  0
  152.2834  133.4943  192.3403 O   0  0  0  0  0  0  0  0  0  0  0  0
  149.8449  133.3363  192.7017 O   0  0  0  0  0  0  0  0  0  0  0  0
  155.3570  137.8693  188.0449 C   0  0  0  0  0  0  0  0  0  0  0  0
  156.1221  136.8860  187.7263 O   0  0  0  0  0  0  0  0  0  0  0  0
  154.6563  138.5149  187.0387 N   0  0  0  0  0  0  0  0  0  0  0  0
  154.0447  139.3160  187.2388 H   0  0  0  0  0  0  0  0  0  0  0  0
  154.7992  138.0599  185.6672 C   0  0  0  0  0  0  0  0  0  0  0  0
  155.3899  139.1202  184.7992 C   0  0  0  0  0  0  0  0  0  0  0  0
  154.7231  139.7385  183.7667 C   0  0  0  0  0  0  0  0  0  0  0  0
  155.3419  140.7064  182.9601 C   0  0  0  0  0  0  0  0  0  0  0  0
  156.6488  141.0622  183.1895 C   0  0  0  0  0  0  0  0  0  0  0  0
  157.3600  140.4561  184.2336 C   0  0  0  0  0  0  0  0  0  0  0  0
  156.7059  139.5170  184.9895 C   0  0  0  0  0  0  0  0  0  0  0  0
  157.3174  142.0467  182.3573 C   0  0  0  0  0  0  0  0  0  0  0  0
  158.5788  142.5367  183.0154 C   0  0  0  0  0  0  0  0  0  0  0  0
  156.4506  143.3095  182.1336 C   0  0  0  0  0  0  0  0  0  0  0  0
  157.7241  141.5559  180.9842 C   0  0  0  0  0  0  0  0  0  0  0  0
  1  2  1  0  0  0
  2 16  1  0  0  0
 16 17  2  0  0  0
 16 18  1  0  0  0
 18 20  1  0  0  0
 20 21  1  0  0  0
 21 22  2  0  0  0
 22 23  1  0  0  0
 23 24  2  0  0  0
 24 25  1  0  0  0
 25 26  2  0  0  0
 24 27  1  0  0  0
 27 28  1  0  0  0
 27 29  1  0  0  0
 27 30  1  0  0  0
  2  3  1  0  0  0
  3  4  2  0  0  0
  4  5  1  0  0  0
  5  6  2  0  0  0
  6 10  1  0  0  0
 10 12  1  0  0  0
 12 13  1  0  0  0
 12 14  2  0  0  0
 12 15  2  0  0  0
  6  7  1  0  0  0
  7  8  1  0  0  0
  7  9  2  0  0  0
 26 21  1  0  0  0
  9  3  1  0  0  0
 18 19  1  0  0  0
 10 11  1  0  0  0
M  END
> <minimizedAffinity>
-7.15036

> <CNNscore>
0.3932858109

> <CNNaffinity>
5.6964750290

> <CNN_VS>
2.2403428555

> <CNNaffinity_variance>
0.0651026294

$$$$
[H]c1c([H])c(C([H])(C(=O)N([H])C([H])([H])c2c([H])c([H])c(C(C([H])([H])[H])(C([H])([H])[H])C([H])([H])[H])c([H])c2[H])C([H])([H])[H])c([H])c(F)c1N([H])S(=O)(=O)C([H])([H])[H]


 30 31  0  0  0  0  0  0  0  0999 V2000
  157.1183  135.3711  187.7891 C   0  0  0  0  0  0  0  0  0  0  0  0
  156.5180  136.7159  188.0313 C   0  0  0  0  0  0  0  0  0  0  0  0
  155.6993  136.7703  189.2605 C   0  0  0  0  0  0  0  0  0  0  0  0
  155.0279  135.6562  189.7268 C   0  0  0  0  0  0  0  0  0  0  0  0
  154.2298  135.7801  190.8622 C   0  0  0  0  0  0  0  0  0  0  0  0
  154.0755  136.9249  191.5218 C   0  0  0  0  0  0  0  0  0  0  0  0
  154.7568  138.0714  191.0558 C   0  0  0  0  0  0  0  0  0  0  0  0
  154.6231  139.2469  191.7176 F   0  0  0  0  0  0  0  0  0  0  0  0
  155.5485  137.9852  189.9514 C   0  0  0  0  0  0  0  0  0  0  0  0
  153.2816  137.1270  192.6613 N   0  0  0  0  0  0  0  0  0  0  0  0
  153.4983  137.9727  193.2879 H   0  0  0  0  0  0  0  0  0  0  0  0
  151.9926  136.0889  193.0744 S   0  0  0  0  0  0  0  0  0  0  0  0
  150.5778  136.4309  192.0147 C   0  0  0  0  0  0  0  0  0  0  0  0
  151.5992  136.4335  194.5035 O   0  0  0  0  0  0  0  0  0  0  0  0
  152.3812  134.6623  192.9695 O   0  0  0  0  0  0  0  0  0  0  0  0
  155.7746  137.2595  186.8776 C   0  0  0  0  0  0  0  0  0  0  0  0
  154.7493  136.6022  186.4645 O   0  0  0  0  0  0  0  0  0  0  0  0
  156.1244  138.4247  186.2140 N   0  0  0  0  0  0  0  0  0  0  0  0
  156.9440  138.9772  186.4946 H   0  0  0  0  0  0  0  0  0  0  0  0
  155.3244  138.8692  185.0868 C   0  0  0  0  0  0  0  0  0  0  0  0
  156.0037  139.9632  184.3330 C   0  0  0  0  0  0  0  0  0  0  0  0
  157.1884  140.5493  184.7152 C   0  0  0  0  0  0  0  0  0  0  0  0
  157.7641  141.6002  183.9840 C   0  0  0  0  0  0  0  0  0  0  0  0
  157.1456  142.0728  182.8522 C   0  0  0  0  0  0  0  0  0  0  0  0
  155.9387  141.4995  182.4300 C   0  0  0  0  0  0  0  0  0  0  0  0
  155.4216  140.4761  183.1825 C   0  0  0  0  0  0  0  0  0  0  0  0
  157.7110  143.1715  182.0891 C   0  0  0  0  0  0  0  0  0  0  0  0
  159.0194  143.6187  182.6827 C   0  0  0  0  0  0  0  0  0  0  0  0
  156.8010  144.4236  182.1039 C   0  0  0  0  0  0  0  0  0  0  0  0
  157.9940  142.8631  180.6343 C   0  0  0  0  0  0  0  0  0  0  0  0
  1  2  1  0  0  0
  2 16  1  0  0  0
 16 17  2  0  0  0
 16 18  1  0  0  0
 18 20  1  0  0  0
 20 21  1  0  0  0
 21 22  2  0  0  0
 22 23  1  0  0  0
 23 24  2  0  0  0
 24 25  1  0  0  0
 25 26  2  0  0  0
 24 27  1  0  0  0
 27 28  1  0  0  0
 27 29  1  0  0  0
 27 30  1  0  0  0
  2  3  1  0  0  0
  3  4  2  0  0  0
  4  5  1  0  0  0
  5  6  2  0  0  0
  6 10  1  0  0  0
 10 12  1  0  0  0
 12 13  1  0  0  0
 12 14  2  0  0  0
 12 15  2  0  0  0
  6  7  1  0  0  0
  7  8  1  0  0  0
  7  9  2  0  0  0
 26 21  1  0  0  0
  9  3  1  0  0  0
 18 19  1  0  0  0
 10 11  1  0  0  0
M  END
> <minimizedAffinity>
-7.13432

> <CNNscore>
0.3807128072

> <CNNaffinity>
5.6436796188

> <CNN_VS>
2.1486210823

> <CNNaffinity_variance>
0.0746085942

$$$$
[H]c1c([H])c(C([H])(C(=O)N([H])C([H])([H])c2c([H])c([H])c(C(C([H])([H])[H])(C([H])([H])[H])C([H])([H])[H])c([H])c2[H])C([H])([H])[H])c([H])c(F)c1N([H])S(=O)(=O)C([H])([H])[H]


 30 31  0  0  0  0  0  0  0  0999 V2000
  153.9803  142.6169  182.5707 C   0  0  0  0  0  0  0  0  0  0  0  0
  154.5503  141.7087  183.6088 C   0  0  0  0  0  0  0  0  0  0  0  0
  156.0281  141.7010  183.6212 C   0  0  0  0  0  0  0  0  0  0  0  0
  156.7361  140.7609  184.3452 C   0  0  0  0  0  0  0  0  0  0  0  0
  158.1274  140.8342  184.3610 C   0  0  0  0  0  0  0  0  0  0  0  0
  158.8139  141.7726  183.7148 C   0  0  0  0  0  0  0  0  0  0  0  0
  158.1024  142.7396  182.9703 C   0  0  0  0  0  0  0  0  0  0  0  0
  158.7807  143.6996  182.2951 F   0  0  0  0  0  0  0  0  0  0  0  0
  156.7420  142.6953  182.9297 C   0  0  0  0  0  0  0  0  0  0  0  0
  160.2099  141.9158  183.6950 N   0  0  0  0  0  0  0  0  0  0  0  0
  160.7529  141.4865  182.8729 H   0  0  0  0  0  0  0  0  0  0  0  0
  161.0619  142.7471  184.9167 S   0  0  0  0  0  0  0  0  0  0  0  0
  160.2225  142.5291  186.4944 C   0  0  0  0  0  0  0  0  0  0  0  0
  161.0034  144.2248  184.5574 O   0  0  0  0  0  0  0  0  0  0  0  0
  162.4682  142.2890  185.0144 O   0  0  0  0  0  0  0  0  0  0  0  0
  154.0159  140.3334  183.5640 C   0  0  0  0  0  0  0  0  0  0  0  0
  153.8974  139.7022  184.6782 O   0  0  0  0  0  0  0  0  0  0  0  0
  153.6475  139.6865  182.3952 N   0  0  0  0  0  0  0  0  0  0  0  0
  153.7381  140.1411  181.4782 H   0  0  0  0  0  0  0  0  0  0  0  0
  153.1351  138.3297  182.4639 C   0  0  0  0  0  0  0  0  0  0  0  0
  151.8636  138.1869  181.6961 C   0  0  0  0  0  0  0  0  0  0  0  0
  151.0107  137.1124  181.8001 C   0  0  0  0  0  0  0  0  0  0  0  0
  149.8439  137.0156  181.0258 C   0  0  0  0  0  0  0  0  0  0  0  0
  149.5243  138.0095  180.1330 C   0  0  0  0  0  0  0  0  0  0  0  0
  150.3673  139.1210  180.0007 C   0  0  0  0  0  0  0  0  0  0  0  0
  151.4938  139.1632  180.7819 C   0  0  0  0  0  0  0  0  0  0  0  0
  148.3331  137.9238  179.3068 C   0  0  0  0  0  0  0  0  0  0  0  0
  147.1918  138.6794  179.9321 C   0  0  0  0  0  0  0  0  0  0  0  0
  147.8302  136.4679  179.1540 C   0  0  0  0  0  0  0  0  0  0  0  0
  148.4836  138.4758  177.9052 C   0  0  0  0  0  0  0  0  0  0  0  0
  1  2  1  0  0  0
  2 16  1  0  0  0
 16 17  2  0  0  0
 16 18  1  0  0  0
 18 20  1  0  0  0
 20 21  1  0  0  0
 21 22  2  0  0  0
 22 23  1  0  0  0
 23 24  2  0  0  0
 24 25  1  0  0  0
 25 26  2  0  0  0
 24 27  1  0  0  0
 27 28  1  0  0  0
 27 29  1  0  0  0
 27 30  1  0  0  0
  2  3  1  0  0  0
  3  4  2  0  0  0
  4  5  1  0  0  0
  5  6  2  0  0  0
  6 10  1  0  0  0
 10 12  1  0  0  0
 12 13  1  0  0  0
 12 14  2  0  0  0
 12 15  2  0  0  0
  6  7  1  0  0  0
  7  8  1  0  0  0
  7  9  2  0  0  0
 26 21  1  0  0  0
  9  3  1  0  0  0
 18 19  1  0  0  0
 10 11  1  0  0  0
M  END
> <minimizedAffinity>
-8.34955

> <CNNscore>
0.3481949270

> <CNNaffinity>
5.8919944763

> <CNN_VS>
2.0515625477

> <CNNaffinity_variance>
0.0353899971

$$$$
[H]c1c([H])c(C([H])(C(=O)N([H])C([H])([H])c2c([H])c([H])c(C(C([H])([H])[H])(C([H])([H])[H])C([H])([H])[H])c([H])c2[H])C([H])([H])[H])c([H])c(F)c1N([H])S(=O)(=O)C([H])([H])[H]


 30 31  0  0  0  0  0  0  0  0999 V2000
  156.9924  135.4334  187.9357 C   0  0  0  0  0  0  0  0  0  0  0  0
  156.0197  136.5429  188.1599 C   0  0  0  0  0  0  0  0  0  0  0  0
  155.0423  136.2472  189.2283 C   0  0  0  0  0  0  0  0  0  0  0  0
  154.5619  137.2419  190.0584 C   0  0  0  0  0  0  0  0  0  0  0  0
  153.6813  136.8954  191.0812 C   0  0  0  0  0  0  0  0  0  0  0  0
  153.2808  135.6467  191.3046 C   0  0  0  0  0  0  0  0  0  0  0  0
  153.7640  134.6203  190.4628 C   0  0  0  0  0  0  0  0  0  0  0  0
  153.3618  133.3416  190.6646 F   0  0  0  0  0  0  0  0  0  0  0  0
  154.6228  134.9240  189.4507 C   0  0  0  0  0  0  0  0  0  0  0  0
  152.4087  135.2227  192.3191 N   0  0  0  0  0  0  0  0  0  0  0  0
  152.8188  134.6656  193.1415 H   0  0  0  0  0  0  0  0  0  0  0  0
  150.7382  135.5667  192.2927 S   0  0  0  0  0  0  0  0  0  0  0  0
  150.0990  135.3320  190.6260 C   0  0  0  0  0  0  0  0  0  0  0  0
  150.5932  137.0401  192.6448 O   0  0  0  0  0  0  0  0  0  0  0  0
  149.9887  134.7240  193.2547 O   0  0  0  0  0  0  0  0  0  0  0  0
  155.3382  137.0027  186.9338 C   0  0  0  0  0  0  0  0  0  0  0  0
  154.8030  136.1105  186.1778 O   0  0  0  0  0  0  0  0  0  0  0  0
  155.2534  138.3316  186.5503 N   0  0  0  0  0  0  0  0  0  0  0  0
  155.6785  139.0805  187.1109 H   0  0  0  0  0  0  0  0  0  0  0  0
  154.5611  138.6748  185.3211 C   0  0  0  0  0  0  0  0  0  0  0  0
  155.3997  139.5468  184.4476 C   0  0  0  0  0  0  0  0  0  0  0  0
  154.9238  140.2442  183.3613 C   0  0  0  0  0  0  0  0  0  0  0  0
  155.7677  141.0228  182.5538 C   0  0  0  0  0  0  0  0  0  0  0  0
  157.1093  141.1059  182.8370 C   0  0  0  0  0  0  0  0  0  0  0  0
  157.6307  140.4115  183.9368 C   0  0  0  0  0  0  0  0  0  0  0  0
  156.7606  139.6661  184.6908 C   0  0  0  0  0  0  0  0  0  0  0  0
  158.0063  141.8892  182.0060 C   0  0  0  0  0  0  0  0  0  0  0  0
  157.3643  143.1885  181.6012 C   0  0  0  0  0  0  0  0  0  0  0  0
  158.3542  141.1695  180.6804 C   0  0  0  0  0  0  0  0  0  0  0  0
  159.3241  142.2566  182.6541 C   0  0  0  0  0  0  0  0  0  0  0  0
  1  2  1  0  0  0
  2 16  1  0  0  0
 16 17  2  0  0  0
 16 18  1  0  0  0
 18 20  1  0  0  0
 20 21  1  0  0  0
 21 22  2  0  0  0
 22 23  1  0  0  0
 23 24  2  0  0  0
 24 25  1  0  0  0
 25 26  2  0  0  0
 24 27  1  0  0  0
 27 28  1  0  0  0
 27 29  1  0  0  0
 27 30  1  0  0  0
  2  3  1  0  0  0
  3  4  2  0  0  0
  4  5  1  0  0  0
  5  6  2  0  0  0
  6 10  1  0  0  0
 10 12  1  0  0  0
 12 13  1  0  0  0
 12 14  2  0  0  0
 12 15  2  0  0  0
  6  7  1  0  0  0
  7  8  1  0  0  0
  7  9  2  0  0  0
 26 21  1  0  0  0
  9  3  1  0  0  0
 18 19  1  0  0  0
 10 11  1  0  0  0
M  END
> <minimizedAffinity>
-6.42327

> <CNNscore>
0.3144492209

> <CNNaffinity>
5.5883936882

> <CNN_VS>
1.7572660446

> <CNNaffinity_variance>
0.1966913044

$$$$
[H]c1c([H])c(C([H])(C(=O)N([H])C([H])([H])c2c([H])c([H])c(C(C([H])([H])[H])(C([H])([H])[H])C([H])([H])[H])c([H])c2[H])C([H])([H])[H])c([H])c(F)c1N([H])S(=O)(=O)C([H])([H])[H]


 30 31  0  0  0  0  0  0  0  0999 V2000
  154.9035  138.7375  185.3716 C   0  0  0  0  0  0  0  0  0  0  0  0
  155.3692  139.1317  184.0096 C   0  0  0  0  0  0  0  0  0  0  0  0
  156.7421  139.6787  184.0043 C   0  0  0  0  0  0  0  0  0  0  0  0
  157.3728  140.0492  185.1766 C   0  0  0  0  0  0  0  0  0  0  0  0
  158.6477  140.6069  185.1055 C   0  0  0  0  0  0  0  0  0  0  0  0
  159.2913  140.8075  183.9587 C   0  0  0  0  0  0  0  0  0  0  0  0
  158.6579  140.4326  182.7529 C   0  0  0  0  0  0  0  0  0  0  0  0
  159.2983  140.6178  181.5726 F   0  0  0  0  0  0  0  0  0  0  0  0
  157.4135  139.8809  182.7858 C   0  0  0  0  0  0  0  0  0  0  0  0
  160.5670  141.3730  183.8096 N   0  0  0  0  0  0  0  0  0  0  0  0
  161.1349  141.1211  182.9328 H   0  0  0  0  0  0  0  0  0  0  0  0
  161.2341  142.4422  184.9592 S   0  0  0  0  0  0  0  0  0  0  0  0
  160.9252  144.1424  184.4540 C   0  0  0  0  0  0  0  0  0  0  0  0
  162.7389  142.2158  184.9401 O   0  0  0  0  0  0  0  0  0  0  0  0
  160.6872  142.2010  186.3157 O   0  0  0  0  0  0  0  0  0  0  0  0
  154.4412  140.0283  183.2925 C   0  0  0  0  0  0  0  0  0  0  0  0
  154.2767  141.2150  183.7599 O   0  0  0  0  0  0  0  0  0  0  0  0
  153.7351  139.6606  182.1582 N   0  0  0  0  0  0  0  0  0  0  0  0
  153.8190  138.7192  181.7550 H   0  0  0  0  0  0  0  0  0  0  0  0
  152.8447  140.6212  181.5317 C   0  0  0  0  0  0  0  0  0  0  0  0
  151.6771  139.9469  180.8924 C   0  0  0  0  0  0  0  0  0  0  0  0
  151.3801  140.0160  179.5508 C   0  0  0  0  0  0  0  0  0  0  0  0
  150.2467  139.3885  179.0102 C   0  0  0  0  0  0  0  0  0  0  0  0
  149.3965  138.6802  179.8241 C   0  0  0  0  0  0  0  0  0  0  0  0
  149.6671  138.5853  181.1957 C   0  0  0  0  0  0  0  0  0  0  0  0
  150.7879  139.2181  181.6695 C   0  0  0  0  0  0  0  0  0  0  0  0
  148.2074  138.0381  179.2924 C   0  0  0  0  0  0  0  0  0  0  0  0
  146.9664  138.5835  179.9458 C   0  0  0  0  0  0  0  0  0  0  0  0
  148.1882  136.5163  179.5746 C   0  0  0  0  0  0  0  0  0  0  0  0
  148.0026  138.2013  177.8014 C   0  0  0  0  0  0  0  0  0  0  0  0
  1  2  1  0  0  0
  2 16  1  0  0  0
 16 17  2  0  0  0
 16 18  1  0  0  0
 18 20  1  0  0  0
 20 21  1  0  0  0
 21 22  2  0  0  0
 22 23  1  0  0  0
 23 24  2  0  0  0
 24 25  1  0  0  0
 25 26  2  0  0  0
 24 27  1  0  0  0
 27 28  1  0  0  0
 27 29  1  0  0  0
 27 30  1  0  0  0
  2  3  1  0  0  0
  3  4  2  0  0  0
  4  5  1  0  0  0
  5  6  2  0  0  0
  6 10  1  0  0  0
 10 12  1  0  0  0
 12 13  1  0  0  0
 12 14  2  0  0  0
 12 15  2  0  0  0
  6  7  1  0  0  0
  7  8  1  0  0  0
  7  9  2  0  0  0
 26 21  1  0  0  0
  9  3  1  0  0  0
 18 19  1  0  0  0
 10 11  1  0  0  0
M  END
> <minimizedAffinity>
-9.04047

> <CNNscore>
0.3072098494

> <CNNaffinity>
5.6668500900

> <CNN_VS>
1.7409121990

> <CNNaffinity_variance>
0.0760367662

$$$$
[H]c1c([H])c(C([H])(C(=O)N([H])C([H])([H])c2c([H])c([H])c(C(C([H])([H])[H])(C([H])([H])[H])C([H])([H])[H])c([H])c2[H])C([H])([H])[H])c([H])c(F)c1N([H])S(=O)(=O)C([H])([H])[H]


 30 31  0  0  0  0  0  0  0  0999 V2000
  153.5402  142.4896  182.4702 C   0  0  0  0  0  0  0  0  0  0  0  0
  153.9954  141.1172  182.1003 C   0  0  0  0  0  0  0  0  0  0  0  0
  152.8843  140.2279  181.7020 C   0  0  0  0  0  0  0  0  0  0  0  0
  152.4743  139.1841  182.5093 C   0  0  0  0  0  0  0  0  0  0  0  0
  151.4557  138.3470  182.0585 C   0  0  0  0  0  0  0  0  0  0  0  0
  150.8570  138.4988  180.8804 C   0  0  0  0  0  0  0  0  0  0  0  0
  151.2663  139.5623  180.0455 C   0  0  0  0  0  0  0  0  0  0  0  0
  150.6638  139.7432  178.8447 F   0  0  0  0  0  0  0  0  0  0  0  0
  152.2563  140.4021  180.4564 C   0  0  0  0  0  0  0  0  0  0  0  0
  149.8362  137.6905  180.3567 N   0  0  0  0  0  0  0  0  0  0  0  0
  150.1105  136.7547  179.9052 H   0  0  0  0  0  0  0  0  0  0  0  0
  148.1914  138.1376  180.4207 S   0  0  0  0  0  0  0  0  0  0  0  0
  147.9817  139.5076  181.5700 C   0  0  0  0  0  0  0  0  0  0  0  0
  147.4378  136.9397  180.9803 O   0  0  0  0  0  0  0  0  0  0  0  0
  147.6694  138.5040  179.0826 O   0  0  0  0  0  0  0  0  0  0  0  0
  154.8493  140.4720  183.1169 C   0  0  0  0  0  0  0  0  0  0  0  0
  154.3940  140.3943  184.3171 O   0  0  0  0  0  0  0  0  0  0  0  0
  156.1093  139.9589  182.8531 N   0  0  0  0  0  0  0  0  0  0  0  0
  156.5247  140.0109  181.9148 H   0  0  0  0  0  0  0  0  0  0  0  0
  156.8677  139.3463  183.9291 C   0  0  0  0  0  0  0  0  0  0  0  0
  158.0062  140.2114  184.3557 C   0  0  0  0  0  0  0  0  0  0  0  0
  158.0443  140.9180  185.5356 C   0  0  0  0  0  0  0  0  0  0  0  0
  159.1288  141.7446  185.8688 C   0  0  0  0  0  0  0  0  0  0  0  0
  160.1928  141.8666  185.0086 C   0  0  0  0  0  0  0  0  0  0  0  0
  160.1913  141.1604  183.7983 C   0  0  0  0  0  0  0  0  0  0  0  0
  159.1059  140.3681  183.5240 C   0  0  0  0  0  0  0  0  0  0  0  0
  161.3178  142.7299  185.3215 C   0  0  0  0  0  0  0  0  0  0  0  0
  161.1108  144.1074  184.7523 C   0  0  0  0  0  0  0  0  0  0  0  0
  162.6390  142.2190  184.6972 C   0  0  0  0  0  0  0  0  0  0  0  0
  161.5870  142.9226  186.7987 C   0  0  0  0  0  0  0  0  0  0  0  0
  1  2  1  0  0  0
  2 16  1  0  0  0
 16 17  2  0  0  0
 16 18  1  0  0  0
 18 20  1  0  0  0
 20 21  1  0  0  0
 21 22  2  0  0  0
 22 23  1  0  0  0
 23 24  2  0  0  0
 24 25  1  0  0  0
 25 26  2  0  0  0
 24 27  1  0  0  0
 27 28  1  0  0  0
 27 29  1  0  0  0
 27 30  1  0  0  0
  2  3  1  0  0  0
  3  4  2  0  0  0
  4  5  1  0  0  0
  5  6  2  0  0  0
  6 10  1  0  0  0
 10 12  1  0  0  0
 12 13  1  0  0  0
 12 14  2  0  0  0
 12 15  2  0  0  0
  6  7  1  0  0  0
  7  8  1  0  0  0
  7  9  2  0  0  0
 26 21  1  0  0  0
  9  3  1  0  0  0
 18 19  1  0  0  0
 10 11  1  0  0  0
M  END
> <minimizedAffinity>
-8.92668

> <CNNscore>
0.3007650673

> <CNNaffinity>
5.7323703766

> <CNN_VS>
1.7240967751

> <CNNaffinity_variance>
0.0823883787

$$$$
[H]c1c([H])c(C([H])(C(=O)N([H])C([H])([H])c2c([H])c([H])c(C(C([H])([H])[H])(C([H])([H])[H])C([H])([H])[H])c([H])c2[H])C([H])([H])[H])c([H])c(F)c1N([H])S(=O)(=O)C([H])([H])[H]


 30 31  0  0  0  0  0  0  0  0999 V2000
  156.2447  135.6012  191.3820 C   0  0  0  0  0  0  0  0  0  0  0  0
  155.1669  136.5261  191.8405 C   0  0  0  0  0  0  0  0  0  0  0  0
  153.9174  135.8237  192.2004 C   0  0  0  0  0  0  0  0  0  0  0  0
  153.8115  134.4495  192.1027 C   0  0  0  0  0  0  0  0  0  0  0  0
  152.5924  133.8470  192.4064 C   0  0  0  0  0  0  0  0  0  0  0  0
  151.5160  134.5319  192.7829 C   0  0  0  0  0  0  0  0  0  0  0  0
  151.6109  135.9375  192.8873 C   0  0  0  0  0  0  0  0  0  0  0  0
  150.5302  136.6560  193.2791 F   0  0  0  0  0  0  0  0  0  0  0  0
  152.7884  136.5589  192.6020 C   0  0  0  0  0  0  0  0  0  0  0  0
  150.2562  133.9962  193.0919 N   0  0  0  0  0  0  0  0  0  0  0  0
  150.0170  133.8245  194.1254 H   0  0  0  0  0  0  0  0  0  0  0  0
  149.1024  133.6207  191.8931 S   0  0  0  0  0  0  0  0  0  0  0  0
  147.5378  133.1912  192.6735 C   0  0  0  0  0  0  0  0  0  0  0  0
  149.6167  132.3855  191.1680 O   0  0  0  0  0  0  0  0  0  0  0  0
  148.9127  134.7425  190.9429 O   0  0  0  0  0  0  0  0  0  0  0  0
  154.8966  137.6420  190.9128 C   0  0  0  0  0  0  0  0  0  0  0  0
  155.1006  138.8373  191.3409 O   0  0  0  0  0  0  0  0  0  0  0  0
  154.4286  137.4738  189.6193 N   0  0  0  0  0  0  0  0  0  0  0  0
  154.2344  136.5407  189.2354 H   0  0  0  0  0  0  0  0  0  0  0  0
  154.1929  138.6423  188.7903 C   0  0  0  0  0  0  0  0  0  0  0  0
  153.7681  138.2574  187.4126 C   0  0  0  0  0  0  0  0  0  0  0  0
  154.5482  138.4080  186.2894 C   0  0  0  0  0  0  0  0  0  0  0  0
  154.0820  138.0597  185.0120 C   0  0  0  0  0  0  0  0  0  0  0  0
  152.8151  137.5525  184.8548 C   0  0  0  0  0  0  0  0  0  0  0  0
  151.9916  137.3823  185.9758 C   0  0  0  0  0  0  0  0  0  0  0  0
  152.4985  137.7394  187.1991 C   0  0  0  0  0  0  0  0  0  0  0  0
  152.3026  137.2025  183.5419 C   0  0  0  0  0  0  0  0  0  0  0  0
  152.9668  135.9563  183.0221 C   0  0  0  0  0  0  0  0  0  0  0  0
  152.5962  138.2976  182.4880 C   0  0  0  0  0  0  0  0  0  0  0  0
  150.8130  136.9391  183.4842 C   0  0  0  0  0  0  0  0  0  0  0  0
  1  2  1  0  0  0
  2 16  1  0  0  0
 16 17  2  0  0  0
 16 18  1  0  0  0
 18 20  1  0  0  0
 20 21  1  0  0  0
 21 22  2  0  0  0
 22 23  1  0  0  0
 23 24  2  0  0  0
 24 25  1  0  0  0
 25 26  2  0  0  0
 24 27  1  0  0  0
 27 28  1  0  0  0
 27 29  1  0  0  0
 27 30  1  0  0  0
  2  3  1  0  0  0
  3  4  2  0  0  0
  4  5  1  0  0  0
  5  6  2  0  0  0
  6 10  1  0  0  0
 10 12  1  0  0  0
 12 13  1  0  0  0
 12 14  2  0  0  0
 12 15  2  0  0  0
  6  7  1  0  0  0
  7  8  1  0  0  0
  7  9  2  0  0  0
 26 21  1  0  0  0
  9  3  1  0  0  0
 18 19  1  0  0  0
 10 11  1  0  0  0
M  END
> <minimizedAffinity>
-5.74949

> <CNNscore>
0.2995760739

> <CNNaffinity>
5.2080135345

> <CNN_VS>
1.5601962805

> <CNNaffinity_variance>
0.1120561212

$$$$
[H]c1nc(N2C([H])([H])C([H])([H])c3nc(-c4c([H])c([H])c([H])c([H])c4[H])nc(N([H])c4nc([H])c(C(F)(F)F)c([H])c4[H])c3C([H])([H])C2([H])[H])c(C(F)(F)F)c([H])c1[H]


 39 43  0  0  0  0  0  0  0  0999 V2000
  153.1941  139.3877  182.7115 C   0  0  0  0  0  0  0  0  0  0  0  0
  152.7081  138.2906  183.3412 N   0  0  0  0  0  0  0  0  0  0  0  0
  153.3963  137.6277  184.2721 C   0  0  0  0  0  0  0  0  0  0  0  0
  154.6575  138.1015  184.6047 N   0  0  0  0  0  0  0  0  0  0  0  0
  155.2042  139.1757  184.0300 C   0  0  0  0  0  0  0  0  0  0  0  0
  156.5267  139.5202  184.6484 C   0  0  0  0  0  0  0  0  0  0  0  0
  157.5676  139.9657  183.6382 C   0  0  0  0  0  0  0  0  0  0  0  0
  157.1258  141.0896  182.9038 N   0  0  0  0  0  0  0  0  0  0  0  0
  155.8288  141.7996  183.0932 C   0  0  0  0  0  0  0  0  0  0  0  0
  154.7796  141.0112  182.3111 C   0  0  0  0  0  0  0  0  0  0  0  0
  154.4892  139.8022  183.1002 C   0  0  0  0  0  0  0  0  0  0  0  0
  157.8223  141.6967  181.8461 C   0  0  0  0  0  0  0  0  0  0  0  0
  157.4359  141.4088  180.5521 N   0  0  0  0  0  0  0  0  0  0  0  0
  157.9610  141.9556  179.4751 C   0  0  0  0  0  0  0  0  0  0  0  0
  158.9637  142.8761  179.6074 C   0  0  0  0  0  0  0  0  0  0  0  0
  159.4166  143.2315  180.8516 C   0  0  0  0  0  0  0  0  0  0  0  0
  158.8183  142.6168  181.9808 C   0  0  0  0  0  0  0  0  0  0  0  0
  159.3374  142.9695  183.3341 C   0  0  0  0  0  0  0  0  0  0  0  0
  159.9176  144.2605  183.2562 F   0  0  0  0  0  0  0  0  0  0  0  0
  158.4430  142.9629  184.3259 F   0  0  0  0  0  0  0  0  0  0  0  0
  160.4987  142.1911  183.5932 F   0  0  0  0  0  0  0  0  0  0  0  0
  153.1630  136.2719  184.7466 C   0  0  0  0  0  0  0  0  0  0  0  0
  154.1463  135.3295  184.7959 C   0  0  0  0  0  0  0  0  0  0  0  0
  153.8738  133.9796  184.9484 C   0  0  0  0  0  0  0  0  0  0  0  0
  152.5630  133.5809  185.0541 C   0  0  0  0  0  0  0  0  0  0  0  0
  151.5534  134.5063  185.0109 C   0  0  0  0  0  0  0  0  0  0  0  0
  151.8548  135.8449  184.8596 C   0  0  0  0  0  0  0  0  0  0  0  0
  152.6295  139.9841  181.6020 N   0  0  0  0  0  0  0  0  0  0  0  0
  153.2154  140.6253  181.0003 H   0  0  0  0  0  0  0  0  0  0  0  0
  149.1991  138.8000  179.6249 C   0  0  0  0  0  0  0  0  0  0  0  0
  149.2208  138.5971  181.0126 C   0  0  0  0  0  0  0  0  0  0  0  0
  150.2800  139.1300  181.7365 C   0  0  0  0  0  0  0  0  0  0  0  0
  151.2804  139.8299  181.1512 C   0  0  0  0  0  0  0  0  0  0  0  0
  151.1837  140.0086  179.7640 N   0  0  0  0  0  0  0  0  0  0  0  0
  150.2055  139.5223  179.0393 C   0  0  0  0  0  0  0  0  0  0  0  0
  148.5025  138.4302  177.4355 F   0  0  0  0  0  0  0  0  0  0  0  0
  148.1909  138.1186  178.7655 C   0  0  0  0  0  0  0  0  0  0  0  0
  146.8981  138.4141  179.0479 F   0  0  0  0  0  0  0  0  0  0  0  0
  148.4244  136.7420  178.8985 F   0  0  0  0  0  0  0  0  0  0  0  0
 36 37  1  0  0  0
 37 38  1  0  0  0
 37 39  1  0  0  0
 37 30  1  0  0  0
 30 31  2  0  0  0
 31 32  1  0  0  0
 32 33  2  0  0  0
 33 28  1  0  0  0
 28  1  1  0  0  0
  1  2  2  0  0  0
  2  3  1  0  0  0
  3  4  2  0  0  0
  4  5  1  0  0  0
  5  6  1  0  0  0
  6  7  1  0  0  0
  7  8  1  0  0  0
  8  9  1  0  0  0
  9 10  1  0  0  0
 10 11  1  0  0  0
  8 12  1  0  0  0
 12 13  2  0  0  0
 13 14  1  0  0  0
 14 15  2  0  0  0
 15 16  1  0  0  0
 16 17  2  0  0  0
 17 18  1  0  0  0
 18 19  1  0  0  0
 18 20  1  0  0  0
 18 21  1  0  0  0
  3 22  1  0  0  0
 22 23  2  0  0  0
 23 24  1  0  0  0
 24 25  2  0  0  0
 25 26  1  0  0  0
 26 27  2  0  0  0
 33 34  1  0  0  0
 34 35  2  0  0  0
 35 30  1  0  0  0
 11  1  1  0  0  0
 17 12  1  0  0  0
 27 22  1  0  0  0
 11  5  2  0  0  0
 28 29  1  0  0  0
M  END
> <minimizedAffinity>
-9.72753

> <CNNscore>
0.5447241068

> <CNNaffinity>
7.2138991356

> <CNN_VS>
3.9295847416

> <CNNaffinity_variance>
0.1660709083

$$$$
[H]c1nc(N2C([H])([H])C([H])([H])c3nc(-c4c([H])c([H])c([H])c([H])c4[H])nc(N([H])c4nc([H])c(C(F)(F)F)c([H])c4[H])c3C([H])([H])C2([H])[H])c(C(F)(F)F)c([H])c1[H]


 39 43  0  0  0  0  0  0  0  0999 V2000
  155.9572  139.1539  184.9780 C   0  0  0  0  0  0  0  0  0  0  0  0
  155.2546  139.4706  183.8633 N   0  0  0  0  0  0  0  0  0  0  0  0
  153.9525  139.2121  183.7324 C   0  0  0  0  0  0  0  0  0  0  0  0
  153.3035  138.6018  184.7964 N   0  0  0  0  0  0  0  0  0  0  0  0
  153.9263  138.2604  185.9271 C   0  0  0  0  0  0  0  0  0  0  0  0
  152.9675  137.7116  186.9418 C   0  0  0  0  0  0  0  0  0  0  0  0
  153.5220  136.5332  187.7206 C   0  0  0  0  0  0  0  0  0  0  0  0
  154.7170  136.8757  188.3932 N   0  0  0  0  0  0  0  0  0  0  0  0
  155.3614  138.2199  188.3952 C   0  0  0  0  0  0  0  0  0  0  0  0
  156.1843  138.3131  187.1113 C   0  0  0  0  0  0  0  0  0  0  0  0
  155.2261  138.5269  186.0137 C   0  0  0  0  0  0  0  0  0  0  0  0
  155.5146  135.9917  189.1380 C   0  0  0  0  0  0  0  0  0  0  0  0
  156.4691  135.2472  188.4737 N   0  0  0  0  0  0  0  0  0  0  0  0
  157.3219  134.4312  189.0581 C   0  0  0  0  0  0  0  0  0  0  0  0
  157.2887  134.2825  190.4172 C   0  0  0  0  0  0  0  0  0  0  0  0
  156.3782  134.9808  191.1674 C   0  0  0  0  0  0  0  0  0  0  0  0
  155.4824  135.8486  190.4927 C   0  0  0  0  0  0  0  0  0  0  0  0
  154.4625  136.5776  191.3012 C   0  0  0  0  0  0  0  0  0  0  0  0
  154.4170  135.9815  192.5865 F   0  0  0  0  0  0  0  0  0  0  0  0
  154.6579  137.8908  191.4467 F   0  0  0  0  0  0  0  0  0  0  0  0
  153.1695  136.2318  190.8217 F   0  0  0  0  0  0  0  0  0  0  0  0
  153.1807  139.1598  182.4997 C   0  0  0  0  0  0  0  0  0  0  0  0
  152.9114  140.2668  181.7519 C   0  0  0  0  0  0  0  0  0  0  0  0
  151.9384  140.2778  180.7656 C   0  0  0  0  0  0  0  0  0  0  0  0
  151.2216  139.1281  180.5358 C   0  0  0  0  0  0  0  0  0  0  0  0
  151.4724  137.9987  181.2700 C   0  0  0  0  0  0  0  0  0  0  0  0
  152.4491  138.0166  182.2455 C   0  0  0  0  0  0  0  0  0  0  0  0
  157.3322  139.1979  185.0915 N   0  0  0  0  0  0  0  0  0  0  0  0
  157.8489  138.3678  185.4920 H   0  0  0  0  0  0  0  0  0  0  0  0
  160.3815  141.9768  184.8501 C   0  0  0  0  0  0  0  0  0  0  0  0
  160.1848  141.1670  183.7218 C   0  0  0  0  0  0  0  0  0  0  0  0
  159.0702  140.3382  183.6962 C   0  0  0  0  0  0  0  0  0  0  0  0
  158.1792  140.2876  184.7143 C   0  0  0  0  0  0  0  0  0  0  0  0
  158.4298  141.1374  185.8010 N   0  0  0  0  0  0  0  0  0  0  0  0
  159.4687  141.9337  185.8710 C   0  0  0  0  0  0  0  0  0  0  0  0
  161.3705  144.0670  184.5886 F   0  0  0  0  0  0  0  0  0  0  0  0
  161.6362  142.7614  185.0221 C   0  0  0  0  0  0  0  0  0  0  0  0
  162.7262  142.2504  184.3983 F   0  0  0  0  0  0  0  0  0  0  0  0
  161.8560  142.8567  186.4041 F   0  0  0  0  0  0  0  0  0  0  0  0
 36 37  1  0  0  0
 37 38  1  0  0  0
 37 39  1  0  0  0
 37 30  1  0  0  0
 30 31  2  0  0  0
 31 32  1  0  0  0
 32 33  2  0  0  0
 33 28  1  0  0  0
 28  1  1  0  0  0
  1  2  2  0  0  0
  2  3  1  0  0  0
  3  4  2  0  0  0
  4  5  1  0  0  0
  5  6  1  0  0  0
  6  7  1  0  0  0
  7  8  1  0  0  0
  8  9  1  0  0  0
  9 10  1  0  0  0
 10 11  1  0  0  0
  8 12  1  0  0  0
 12 13  2  0  0  0
 13 14  1  0  0  0
 14 15  2  0  0  0
 15 16  1  0  0  0
 16 17  2  0  0  0
 17 18  1  0  0  0
 18 19  1  0  0  0
 18 20  1  0  0  0
 18 21  1  0  0  0
  3 22  1  0  0  0
 22 23  2  0  0  0
 23 24  1  0  0  0
 24 25  2  0  0  0
 25 26  1  0  0  0
 26 27  2  0  0  0
 33 34  1  0  0  0
 34 35  2  0  0  0
 35 30  1  0  0  0
 11  1  1  0  0  0
 17 12  1  0  0  0
 27 22  1  0  0  0
 11  5  2  0  0  0
 28 29  1  0  0  0
M  END
> <minimizedAffinity>
-10.27626

> <CNNscore>
0.5196525455

> <CNNaffinity>
7.2114896774

> <CNN_VS>
3.7474689484

> <CNNaffinity_variance>
0.0688635558

$$$$
[H]c1nc(N2C([H])([H])C([H])([H])c3nc(-c4c([H])c([H])c([H])c([H])c4[H])nc(N([H])c4nc([H])c(C(F)(F)F)c([H])c4[H])c3C([H])([H])C2([H])[H])c(C(F)(F)F)c([H])c1[H]


 39 43  0  0  0  0  0  0  0  0999 V2000
  155.6891  139.3419  184.5866 C   0  0  0  0  0  0  0  0  0  0  0  0
  154.8930  139.6399  183.5312 N   0  0  0  0  0  0  0  0  0  0  0  0
  153.6325  139.2141  183.4342 C   0  0  0  0  0  0  0  0  0  0  0  0
  153.1281  138.4430  184.4718 N   0  0  0  0  0  0  0  0  0  0  0  0
  153.8493  138.1085  185.5446 C   0  0  0  0  0  0  0  0  0  0  0  0
  153.0274  137.3589  186.5509 C   0  0  0  0  0  0  0  0  0  0  0  0
  153.7754  136.2143  187.2088 C   0  0  0  0  0  0  0  0  0  0  0  0
  154.9468  136.6681  187.8565 N   0  0  0  0  0  0  0  0  0  0  0  0
  155.4035  138.0847  187.9397 C   0  0  0  0  0  0  0  0  0  0  0  0
  156.1382  138.3854  186.6343 C   0  0  0  0  0  0  0  0  0  0  0  0
  155.1041  138.5451  185.5982 C   0  0  0  0  0  0  0  0  0  0  0  0
  155.8940  135.8504  188.4941 C   0  0  0  0  0  0  0  0  0  0  0  0
  156.9188  135.3170  187.7379 N   0  0  0  0  0  0  0  0  0  0  0  0
  157.9041  134.5885  188.2207 C   0  0  0  0  0  0  0  0  0  0  0  0
  157.9480  134.3179  189.5605 C   0  0  0  0  0  0  0  0  0  0  0  0
  156.9769  134.8047  190.3968 C   0  0  0  0  0  0  0  0  0  0  0  0
  155.9379  135.5858  189.8300 C   0  0  0  0  0  0  0  0  0  0  0  0
  154.8564  136.0816  190.7301 C   0  0  0  0  0  0  0  0  0  0  0  0
  155.0653  135.5189  192.0144 F   0  0  0  0  0  0  0  0  0  0  0  0
  154.7595  137.4077  190.8561 F   0  0  0  0  0  0  0  0  0  0  0  0
  153.6383  135.4407  190.3739 F   0  0  0  0  0  0  0  0  0  0  0  0
  152.8116  139.1467  182.2344 C   0  0  0  0  0  0  0  0  0  0  0  0
  152.6801  140.1940  181.3723 C   0  0  0  0  0  0  0  0  0  0  0  0
  151.6800  140.2464  180.4149 C   0  0  0  0  0  0  0  0  0  0  0  0
  150.7908  139.2018  180.3347 C   0  0  0  0  0  0  0  0  0  0  0  0
  150.9001  138.1339  181.1863 C   0  0  0  0  0  0  0  0  0  0  0  0
  151.9078  138.1082  182.1295 C   0  0  0  0  0  0  0  0  0  0  0  0
  157.0496  139.5673  184.6461 N   0  0  0  0  0  0  0  0  0  0  0  0
  157.6311  139.0580  185.3664 H   0  0  0  0  0  0  0  0  0  0  0  0
  158.4314  141.8581  181.4963 C   0  0  0  0  0  0  0  0  0  0  0  0
  158.0950  142.5491  182.6697 C   0  0  0  0  0  0  0  0  0  0  0  0
  157.7866  141.8062  183.8022 C   0  0  0  0  0  0  0  0  0  0  0  0
  157.7994  140.4523  183.8085 C   0  0  0  0  0  0  0  0  0  0  0  0
  158.1623  139.8296  182.6059 N   0  0  0  0  0  0  0  0  0  0  0  0
  158.4583  140.4882  181.5118 C   0  0  0  0  0  0  0  0  0  0  0  0
  158.0967  141.7529  179.1958 F   0  0  0  0  0  0  0  0  0  0  0  0
  158.6081  142.5795  180.2049 C   0  0  0  0  0  0  0  0  0  0  0  0
  159.8787  142.9626  179.9273 F   0  0  0  0  0  0  0  0  0  0  0  0
  157.7552  143.6920  180.2541 F   0  0  0  0  0  0  0  0  0  0  0  0
 36 37  1  0  0  0
 37 38  1  0  0  0
 37 39  1  0  0  0
 37 30  1  0  0  0
 30 31  2  0  0  0
 31 32  1  0  0  0
 32 33  2  0  0  0
 33 28  1  0  0  0
 28  1  1  0  0  0
  1  2  2  0  0  0
  2  3  1  0  0  0
  3  4  2  0  0  0
  4  5  1  0  0  0
  5  6  1  0  0  0
  6  7  1  0  0  0
  7  8  1  0  0  0
  8  9  1  0  0  0
  9 10  1  0  0  0
 10 11  1  0  0  0
  8 12  1  0  0  0
 12 13  2  0  0  0
 13 14  1  0  0  0
 14 15  2  0  0  0
 15 16  1  0  0  0
 16 17  2  0  0  0
 17 18  1  0  0  0
 18 19  1  0  0  0
 18 20  1  0  0  0
 18 21  1  0  0  0
  3 22  1  0  0  0
 22 23  2  0  0  0
 23 24  1  0  0  0
 24 25  2  0  0  0
 25 26  1  0  0  0
 26 27  2  0  0  0
 33 34  1  0  0  0
 34 35  2  0  0  0
 35 30  1  0  0  0
 11  1  1  0  0  0
 17 12  1  0  0  0
 27 22  1  0  0  0
 11  5  2  0  0  0
 28 29  1  0  0  0
M  END
> <minimizedAffinity>
-9.78739

> <CNNscore>
0.3869195282

> <CNNaffinity>
6.9938292503

> <CNN_VS>
2.7060492039

> <CNNaffinity_variance>
0.0685965046

$$$$
[H]c1nc(N2C([H])([H])C([H])([H])c3nc(-c4c([H])c([H])c([H])c([H])c4[H])nc(N([H])c4nc([H])c(C(F)(F)F)c([H])c4[H])c3C([H])([H])C2([H])[H])c(C(F)(F)F)c([H])c1[H]


 39 43  0  0  0  0  0  0  0  0999 V2000
  155.6171  138.9837  184.6210 C   0  0  0  0  0  0  0  0  0  0  0  0
  154.3932  138.7348  184.0953 N   0  0  0  0  0  0  0  0  0  0  0  0
  153.9765  139.2736  182.9483 C   0  0  0  0  0  0  0  0  0  0  0  0
  154.8501  140.1139  182.2728 N   0  0  0  0  0  0  0  0  0  0  0  0
  156.0717  140.4066  182.7256 C   0  0  0  0  0  0  0  0  0  0  0  0
  156.8338  141.2544  181.7507 C   0  0  0  0  0  0  0  0  0  0  0  0
  157.6609  142.3405  182.4131 C   0  0  0  0  0  0  0  0  0  0  0  0
  158.5870  141.7959  183.3314 N   0  0  0  0  0  0  0  0  0  0  0  0
  158.7848  140.3455  183.6131 C   0  0  0  0  0  0  0  0  0  0  0  0
  157.7112  139.9451  184.6237 C   0  0  0  0  0  0  0  0  0  0  0  0
  156.4449  139.8566  183.8773 C   0  0  0  0  0  0  0  0  0  0  0  0
  159.4456  142.5376  184.1591 C   0  0  0  0  0  0  0  0  0  0  0  0
  159.9010  141.9555  185.3256 N   0  0  0  0  0  0  0  0  0  0  0  0
  160.7565  142.5145  186.1564 C   0  0  0  0  0  0  0  0  0  0  0  0
  161.2489  143.7600  185.8794 C   0  0  0  0  0  0  0  0  0  0  0  0
  160.8594  144.4208  184.7431 C   0  0  0  0  0  0  0  0  0  0  0  0
  159.9382  143.7767  183.8787 C   0  0  0  0  0  0  0  0  0  0  0  0
  159.4796  144.5101  182.6633 C   0  0  0  0  0  0  0  0  0  0  0  0
  160.1516  145.7578  182.6269 F   0  0  0  0  0  0  0  0  0  0  0  0
  159.6698  143.8890  181.4963 F   0  0  0  0  0  0  0  0  0  0  0  0
  158.1454  144.9533  182.8754 F   0  0  0  0  0  0  0  0  0  0  0  0
  152.6065  139.3870  182.4706 C   0  0  0  0  0  0  0  0  0  0  0  0
  151.6394  138.4799  182.7852 C   0  0  0  0  0  0  0  0  0  0  0  0
  150.4371  138.4087  182.1002 C   0  0  0  0  0  0  0  0  0  0  0  0
  150.2157  139.2873  181.0671 C   0  0  0  0  0  0  0  0  0  0  0  0
  151.1686  140.2124  180.7300 C   0  0  0  0  0  0  0  0  0  0  0  0
  152.3568  140.2611  181.4313 C   0  0  0  0  0  0  0  0  0  0  0  0
  156.0230  138.6342  185.8933 N   0  0  0  0  0  0  0  0  0  0  0  0
  157.0318  138.7733  186.1750 H   0  0  0  0  0  0  0  0  0  0  0  0
  154.3785  137.5309  189.5205 C   0  0  0  0  0  0  0  0  0  0  0  0
  153.5602  138.2878  188.6691 C   0  0  0  0  0  0  0  0  0  0  0  0
  154.0100  138.5369  187.3786 C   0  0  0  0  0  0  0  0  0  0  0  0
  155.1995  138.0783  186.9228 C   0  0  0  0  0  0  0  0  0  0  0  0
  155.9559  137.3140  187.8225 N   0  0  0  0  0  0  0  0  0  0  0  0
  155.5743  137.0556  189.0497 C   0  0  0  0  0  0  0  0  0  0  0  0
  152.6873  137.0158  191.0338 F   0  0  0  0  0  0  0  0  0  0  0  0
  154.0418  137.3671  190.9624 C   0  0  0  0  0  0  0  0  0  0  0  0
  154.3108  138.4423  191.7434 F   0  0  0  0  0  0  0  0  0  0  0  0
  154.7507  136.2418  191.4081 F   0  0  0  0  0  0  0  0  0  0  0  0
 36 37  1  0  0  0
 37 38  1  0  0  0
 37 39  1  0  0  0
 37 30  1  0  0  0
 30 31  2  0  0  0
 31 32  1  0  0  0
 32 33  2  0  0  0
 33 28  1  0  0  0
 28  1  1  0  0  0
  1  2  2  0  0  0
  2  3  1  0  0  0
  3  4  2  0  0  0
  4  5  1  0  0  0
  5  6  1  0  0  0
  6  7  1  0  0  0
  7  8  1  0  0  0
  8  9  1  0  0  0
  9 10  1  0  0  0
 10 11  1  0  0  0
  8 12  1  0  0  0
 12 13  2  0  0  0
 13 14  1  0  0  0
 14 15  2  0  0  0
 15 16  1  0  0  0
 16 17  2  0  0  0
 17 18  1  0  0  0
 18 19  1  0  0  0
 18 20  1  0  0  0
 18 21  1  0  0  0
  3 22  1  0  0  0
 22 23  2  0  0  0
 23 24  1  0  0  0
 24 25  2  0  0  0
 25 26  1  0  0  0
 26 27  2  0  0  0
 33 34  1  0  0  0
 34 35  2  0  0  0
 35 30  1  0  0  0
 11  1  1  0  0  0
 17 12  1  0  0  0
 27 22  1  0  0  0
 11  5  2  0  0  0
 28 29  1  0  0  0
M  END
> <minimizedAffinity>
-10.62168

> <CNNscore>
0.3490712643

> <CNNaffinity>
7.3702087402

> <CNN_VS>
2.5727281570

> <CNNaffinity_variance>
0.1616505831

$$$$
[H]c1nc(N2C([H])([H])C([H])([H])c3nc(-c4c([H])c([H])c([H])c([H])c4[H])nc(N([H])c4nc([H])c(C(F)(F)F)c([H])c4[H])c3C([H])([H])C2([H])[H])c(C(F)(F)F)c([H])c1[H]


 39 43  0  0  0  0  0  0  0  0999 V2000
  154.2468  138.6286  184.4791 C   0  0  0  0  0  0  0  0  0  0  0  0
  155.3891  139.3561  184.5253 N   0  0  0  0  0  0  0  0  0  0  0  0
  155.6946  140.2801  183.6129 C   0  0  0  0  0  0  0  0  0  0  0  0
  154.7881  140.4998  182.5855 N   0  0  0  0  0  0  0  0  0  0  0  0
  153.6417  139.8245  182.4722 C   0  0  0  0  0  0  0  0  0  0  0  0
  152.8116  140.3330  181.3310 C   0  0  0  0  0  0  0  0  0  0  0  0
  152.1170  139.2314  180.5521 C   0  0  0  0  0  0  0  0  0  0  0  0
  151.2793  138.4582  181.3876 N   0  0  0  0  0  0  0  0  0  0  0  0
  151.0493  138.6866  182.8426 C   0  0  0  0  0  0  0  0  0  0  0  0
  152.2131  138.0252  183.5791 C   0  0  0  0  0  0  0  0  0  0  0  0
  153.3793  138.9057  183.3969 C   0  0  0  0  0  0  0  0  0  0  0  0
  150.5569  137.3215  180.9894 C   0  0  0  0  0  0  0  0  0  0  0  0
  151.0194  136.0790  181.3752 N   0  0  0  0  0  0  0  0  0  0  0  0
  150.4058  134.9410  181.1238 C   0  0  0  0  0  0  0  0  0  0  0  0
  149.2261  134.9502  180.4320 C   0  0  0  0  0  0  0  0  0  0  0  0
  148.6826  136.1349  180.0070 C   0  0  0  0  0  0  0  0  0  0  0  0
  149.3795  137.3337  180.3038 C   0  0  0  0  0  0  0  0  0  0  0  0
  148.8130  138.6209  179.8062 C   0  0  0  0  0  0  0  0  0  0  0  0
  147.5799  138.3370  179.1671 F   0  0  0  0  0  0  0  0  0  0  0  0
  148.6086  139.5670  180.7265 F   0  0  0  0  0  0  0  0  0  0  0  0
  149.5778  139.0529  178.6882 F   0  0  0  0  0  0  0  0  0  0  0  0
  157.0040  140.8528  183.3382 C   0  0  0  0  0  0  0  0  0  0  0  0
  157.6725  140.6356  182.1707 C   0  0  0  0  0  0  0  0  0  0  0  0
  159.0221  140.9135  182.0252 C   0  0  0  0  0  0  0  0  0  0  0  0
  159.7074  141.4275  183.0997 C   0  0  0  0  0  0  0  0  0  0  0  0
  159.0609  141.6592  184.2853 C   0  0  0  0  0  0  0  0  0  0  0  0
  157.7151  141.3740  184.4008 C   0  0  0  0  0  0  0  0  0  0  0  0
  153.9751  137.5228  185.2594 N   0  0  0  0  0  0  0  0  0  0  0  0
  153.6505  136.6282  184.8005 H   0  0  0  0  0  0  0  0  0  0  0  0
  155.2694  137.7682  189.1765 C   0  0  0  0  0  0  0  0  0  0  0  0
  154.0812  138.4470  188.8685 C   0  0  0  0  0  0  0  0  0  0  0  0
  153.5237  138.2547  187.6107 C   0  0  0  0  0  0  0  0  0  0  0  0
  154.0851  137.4431  186.6838 C   0  0  0  0  0  0  0  0  0  0  0  0
  155.2613  136.7834  187.0673 N   0  0  0  0  0  0  0  0  0  0  0  0
  155.8253  136.9357  188.2408 C   0  0  0  0  0  0  0  0  0  0  0  0
  157.3084  138.4423  190.0728 F   0  0  0  0  0  0  0  0  0  0  0  0
  156.0121  138.0540  190.4359 C   0  0  0  0  0  0  0  0  0  0  0  0
  156.0382  137.0382  191.3335 F   0  0  0  0  0  0  0  0  0  0  0  0
  155.4163  139.1940  190.9956 F   0  0  0  0  0  0  0  0  0  0  0  0
 36 37  1  0  0  0
 37 38  1  0  0  0
 37 39  1  0  0  0
 37 30  1  0  0  0
 30 31  2  0  0  0
 31 32  1  0  0  0
 32 33  2  0  0  0
 33 28  1  0  0  0
 28  1  1  0  0  0
  1  2  2  0  0  0
  2  3  1  0  0  0
  3  4  2  0  0  0
  4  5  1  0  0  0
  5  6  1  0  0  0
  6  7  1  0  0  0
  7  8  1  0  0  0
  8  9  1  0  0  0
  9 10  1  0  0  0
 10 11  1  0  0  0
  8 12  1  0  0  0
 12 13  2  0  0  0
 13 14  1  0  0  0
 14 15  2  0  0  0
 15 16  1  0  0  0
 16 17  2  0  0  0
 17 18  1  0  0  0
 18 19  1  0  0  0
 18 20  1  0  0  0
 18 21  1  0  0  0
  3 22  1  0  0  0
 22 23  2  0  0  0
 23 24  1  0  0  0
 24 25  2  0  0  0
 25 26  1  0  0  0
 26 27  2  0  0  0
 33 34  1  0  0  0
 34 35  2  0  0  0
 35 30  1  0  0  0
 11  1  1  0  0  0
 17 12  1  0  0  0
 27 22  1  0  0  0
 11  5  2  0  0  0
 28 29  1  0  0  0
M  END
> <minimizedAffinity>
-9.94845

> <CNNscore>
0.3127508461

> <CNNaffinity>
6.6789298058

> <CNN_VS>
2.0888409615

> <CNNaffinity_variance>
0.0890679359

$$$$
[H]c1nc(N2C([H])([H])C([H])([H])c3nc(-c4c([H])c([H])c([H])c([H])c4[H])nc(N([H])c4nc([H])c(C(F)(F)F)c([H])c4[H])c3C([H])([H])C2([H])[H])c(C(F)(F)F)c([H])c1[H]


 39 43  0  0  0  0  0  0  0  0999 V2000
  155.9320  139.0988  185.1386 C   0  0  0  0  0  0  0  0  0  0  0  0
  155.2421  139.3976  184.0112 N   0  0  0  0  0  0  0  0  0  0  0  0
  153.9442  139.1262  183.8651 C   0  0  0  0  0  0  0  0  0  0  0  0
  153.2860  138.5214  184.9266 N   0  0  0  0  0  0  0  0  0  0  0  0
  153.8961  138.1975  186.0693 C   0  0  0  0  0  0  0  0  0  0  0  0
  152.9282  137.6509  187.0766 C   0  0  0  0  0  0  0  0  0  0  0  0
  153.4821  136.4857  187.8754 C   0  0  0  0  0  0  0  0  0  0  0  0
  154.6647  136.8458  188.5605 N   0  0  0  0  0  0  0  0  0  0  0  0
  155.2973  138.1956  188.5571 C   0  0  0  0  0  0  0  0  0  0  0  0
  156.1370  138.2825  187.2837 C   0  0  0  0  0  0  0  0  0  0  0  0
  155.1922  138.4763  186.1708 C   0  0  0  0  0  0  0  0  0  0  0  0
  155.4596  135.9767  189.3256 C   0  0  0  0  0  0  0  0  0  0  0  0
  155.3674  136.0399  190.7019 N   0  0  0  0  0  0  0  0  0  0  0  0
  156.0074  135.2426  191.5321 C   0  0  0  0  0  0  0  0  0  0  0  0
  156.8328  134.2729  191.0333 C   0  0  0  0  0  0  0  0  0  0  0  0
  156.9899  134.1275  189.6792 C   0  0  0  0  0  0  0  0  0  0  0  0
  156.2780  135.0086  188.8261 C   0  0  0  0  0  0  0  0  0  0  0  0
  156.4793  134.8810  187.3534 C   0  0  0  0  0  0  0  0  0  0  0  0
  156.9946  133.5862  187.0938 F   0  0  0  0  0  0  0  0  0  0  0  0
  155.3965  135.0693  186.5945 F   0  0  0  0  0  0  0  0  0  0  0  0
  157.5982  135.6732  186.9767 F   0  0  0  0  0  0  0  0  0  0  0  0
  153.1900  139.0541  182.6226 C   0  0  0  0  0  0  0  0  0  0  0  0
  152.9721  140.1406  181.8293 C   0  0  0  0  0  0  0  0  0  0  0  0
  152.0153  140.1482  180.8273 C   0  0  0  0  0  0  0  0  0  0  0  0
  151.2613  139.0166  180.6290 C   0  0  0  0  0  0  0  0  0  0  0  0
  151.4602  137.9079  181.4092 C   0  0  0  0  0  0  0  0  0  0  0  0
  152.4218  137.9286  182.3995 C   0  0  0  0  0  0  0  0  0  0  0  0
  157.3049  139.1562  185.2705 N   0  0  0  0  0  0  0  0  0  0  0  0
  157.8176  138.3574  185.7345 H   0  0  0  0  0  0  0  0  0  0  0  0
  160.3577  141.9141  184.8789 C   0  0  0  0  0  0  0  0  0  0  0  0
  160.1649  141.0394  183.7994 C   0  0  0  0  0  0  0  0  0  0  0  0
  159.0498  140.2113  183.8179 C   0  0  0  0  0  0  0  0  0  0  0  0
  158.1544  140.2213  184.8334 C   0  0  0  0  0  0  0  0  0  0  0  0
  158.4012  141.1333  185.8693 N   0  0  0  0  0  0  0  0  0  0  0  0
  159.4405  141.9317  185.8967 C   0  0  0  0  0  0  0  0  0  0  0  0
  161.3497  143.9845  184.4986 F   0  0  0  0  0  0  0  0  0  0  0  0
  161.6123  142.7066  185.0097 C   0  0  0  0  0  0  0  0  0  0  0  0
  162.7046  142.1589  184.4222 F   0  0  0  0  0  0  0  0  0  0  0  0
  161.8261  142.8834  186.3847 F   0  0  0  0  0  0  0  0  0  0  0  0
 36 37  1  0  0  0
 37 38  1  0  0  0
 37 39  1  0  0  0
 37 30  1  0  0  0
 30 31  2  0  0  0
 31 32  1  0  0  0
 32 33  2  0  0  0
 33 28  1  0  0  0
 28  1  1  0  0  0
  1  2  2  0  0  0
  2  3  1  0  0  0
  3  4  2  0  0  0
  4  5  1  0  0  0
  5  6  1  0  0  0
  6  7  1  0  0  0
  7  8  1  0  0  0
  8  9  1  0  0  0
  9 10  1  0  0  0
 10 11  1  0  0  0
  8 12  1  0  0  0
 12 13  2  0  0  0
 13 14  1  0  0  0
 14 15  2  0  0  0
 15 16  1  0  0  0
 16 17  2  0  0  0
 17 18  1  0  0  0
 18 19  1  0  0  0
 18 20  1  0  0  0
 18 21  1  0  0  0
  3 22  1  0  0  0
 22 23  2  0  0  0
 23 24  1  0  0  0
 24 25  2  0  0  0
 25 26  1  0  0  0
 26 27  2  0  0  0
 33 34  1  0  0  0
 34 35  2  0  0  0
 35 30  1  0  0  0
 11  1  1  0  0  0
 17 12  1  0  0  0
 27 22  1  0  0  0
 11  5  2  0  0  0
 28 29  1  0  0  0
M  END
> <minimizedAffinity>
-9.55300

> <CNNscore>
0.2942042947

> <CNNaffinity>
6.9355139732

> <CNN_VS>
2.0404579639

> <CNNaffinity_variance>
0.2000423670

$$$$
[H]c1nc(N2C([H])([H])C([H])([H])c3nc(-c4c([H])c([H])c([H])c([H])c4[H])nc(N([H])c4nc([H])c(C(F)(F)F)c([H])c4[H])c3C([H])([H])C2([H])[H])c(C(F)(F)F)c([H])c1[H]


 39 43  0  0  0  0  0  0  0  0999 V2000
  153.7632  138.5041  183.8897 C   0  0  0  0  0  0  0  0  0  0  0  0
  154.8886  139.2590  183.8897 N   0  0  0  0  0  0  0  0  0  0  0  0
  155.1325  140.1923  182.9683 C   0  0  0  0  0  0  0  0  0  0  0  0
  154.1779  140.3925  181.9812 N   0  0  0  0  0  0  0  0  0  0  0  0
  153.0443  139.6899  181.9146 C   0  0  0  0  0  0  0  0  0  0  0  0
  152.1543  140.1810  180.8115 C   0  0  0  0  0  0  0  0  0  0  0  0
  151.4538  139.0648  180.0592 C   0  0  0  0  0  0  0  0  0  0  0  0
  150.6715  138.2695  180.9269 N   0  0  0  0  0  0  0  0  0  0  0  0
  150.4984  138.4886  182.3912 C   0  0  0  0  0  0  0  0  0  0  0  0
  151.7081  137.8538  183.0751 C   0  0  0  0  0  0  0  0  0  0  0  0
  152.8439  138.7628  182.8464 C   0  0  0  0  0  0  0  0  0  0  0  0
  149.9603  137.1166  180.5559 C   0  0  0  0  0  0  0  0  0  0  0  0
  150.3810  135.8968  181.0476 N   0  0  0  0  0  0  0  0  0  0  0  0
  149.7692  134.7509  180.8299 C   0  0  0  0  0  0  0  0  0  0  0  0
  148.6354  134.7272  180.0654 C   0  0  0  0  0  0  0  0  0  0  0  0
  148.1356  135.8875  179.5331 C   0  0  0  0  0  0  0  0  0  0  0  0
  148.8284  137.0961  179.7976 C   0  0  0  0  0  0  0  0  0  0  0  0
  148.3116  138.3544  179.1851 C   0  0  0  0  0  0  0  0  0  0  0  0
  148.1417  139.3066  180.2214 F   0  0  0  0  0  0  0  0  0  0  0  0
  149.0698  138.8960  178.2282 F   0  0  0  0  0  0  0  0  0  0  0  0
  146.9554  138.1535  178.8084 F   0  0  0  0  0  0  0  0  0  0  0  0
  156.4148  140.7973  182.6400 C   0  0  0  0  0  0  0  0  0  0  0  0
  156.5311  141.8715  181.8095 C   0  0  0  0  0  0  0  0  0  0  0  0
  157.7422  142.2541  181.2559 C   0  0  0  0  0  0  0  0  0  0  0  0
  158.8647  141.5213  181.5586 C   0  0  0  0  0  0  0  0  0  0  0  0
  158.7787  140.4380  182.3931 C   0  0  0  0  0  0  0  0  0  0  0  0
  157.5587  140.0809  182.9314 C   0  0  0  0  0  0  0  0  0  0  0  0
  153.5518  137.3902  184.6771 N   0  0  0  0  0  0  0  0  0  0  0  0
  153.1270  136.5226  184.2492 H   0  0  0  0  0  0  0  0  0  0  0  0
  155.4215  136.7763  188.3111 C   0  0  0  0  0  0  0  0  0  0  0  0
  154.8914  138.0560  188.0907 C   0  0  0  0  0  0  0  0  0  0  0  0
  154.1126  138.2567  186.9580 C   0  0  0  0  0  0  0  0  0  0  0  0
  153.8532  137.2678  186.0704 C   0  0  0  0  0  0  0  0  0  0  0  0
  154.4005  136.0109  186.3642 N   0  0  0  0  0  0  0  0  0  0  0  0
  155.1433  135.7748  187.4182 C   0  0  0  0  0  0  0  0  0  0  0  0
  157.5879  136.0887  188.8107 F   0  0  0  0  0  0  0  0  0  0  0  0
  156.3992  136.5292  189.4076 C   0  0  0  0  0  0  0  0  0  0  0  0
  155.9839  135.6661  190.3672 F   0  0  0  0  0  0  0  0  0  0  0  0
  156.6945  137.7828  189.9634 F   0  0  0  0  0  0  0  0  0  0  0  0
 36 37  1  0  0  0
 37 38  1  0  0  0
 37 39  1  0  0  0
 37 30  1  0  0  0
 30 31  2  0  0  0
 31 32  1  0  0  0
 32 33  2  0  0  0
 33 28  1  0  0  0
 28  1  1  0  0  0
  1  2  2  0  0  0
  2  3  1  0  0  0
  3  4  2  0  0  0
  4  5  1  0  0  0
  5  6  1  0  0  0
  6  7  1  0  0  0
  7  8  1  0  0  0
  8  9  1  0  0  0
  9 10  1  0  0  0
 10 11  1  0  0  0
  8 12  1  0  0  0
 12 13  2  0  0  0
 13 14  1  0  0  0
 14 15  2  0  0  0
 15 16  1  0  0  0
 16 17  2  0  0  0
 17 18  1  0  0  0
 18 19  1  0  0  0
 18 20  1  0  0  0
 18 21  1  0  0  0
  3 22  1  0  0  0
 22 23  2  0  0  0
 23 24  1  0  0  0
 24 25  2  0  0  0
 25 26  1  0  0  0
 26 27  2  0  0  0
 33 34  1  0  0  0
 34 35  2  0  0  0
 35 30  1  0  0  0
 11  1  1  0  0  0
 17 12  1  0  0  0
 27 22  1  0  0  0
 11  5  2  0  0  0
 28 29  1  0  0  0
M  END
> <minimizedAffinity>
-9.10337

> <CNNscore>
0.2832345963

> <CNNaffinity>
6.5820264816

> <CNN_VS>
1.8642575741

> <CNNaffinity_variance>
0.0993228406

$$$$
[H]c1nc(N2C([H])([H])C([H])([H])c3nc(-c4c([H])c([H])c([H])c([H])c4[H])nc(N([H])c4nc([H])c(C(F)(F)F)c([H])c4[H])c3C([H])([H])C2([H])[H])c(C(F)(F)F)c([H])c1[H]


 39 43  0  0  0  0  0  0  0  0999 V2000
  153.6465  137.3746  185.7282 C   0  0  0  0  0  0  0  0  0  0  0  0
  152.3195  137.5072  185.4879 N   0  0  0  0  0  0  0  0  0  0  0  0
  151.3856  137.1238  186.3599 C   0  0  0  0  0  0  0  0  0  0  0  0
  151.8088  136.5774  187.5632 N   0  0  0  0  0  0  0  0  0  0  0  0
  153.0974  136.4151  187.8733 C   0  0  0  0  0  0  0  0  0  0  0  0
  153.2682  135.8973  189.2708 C   0  0  0  0  0  0  0  0  0  0  0  0
  154.3703  134.8623  189.4003 C   0  0  0  0  0  0  0  0  0  0  0  0
  155.6151  135.3779  188.9732 N   0  0  0  0  0  0  0  0  0  0  0  0
  155.8635  136.7655  188.4884 C   0  0  0  0  0  0  0  0  0  0  0  0
  155.4684  136.7912  187.0128 C   0  0  0  0  0  0  0  0  0  0  0  0
  153.9964  136.8015  186.9730 C   0  0  0  0  0  0  0  0  0  0  0  0
  156.8150  134.6519  188.8982 C   0  0  0  0  0  0  0  0  0  0  0  0
  157.3115  134.3276  187.6512 N   0  0  0  0  0  0  0  0  0  0  0  0
  158.4537  133.7073  187.4387 C   0  0  0  0  0  0  0  0  0  0  0  0
  159.2294  133.3404  188.5036 C   0  0  0  0  0  0  0  0  0  0  0  0
  158.8245  133.6199  189.7833 C   0  0  0  0  0  0  0  0  0  0  0  0
  157.5881  134.2913  189.9607 C   0  0  0  0  0  0  0  0  0  0  0  0
  157.1241  134.5593  191.3529 C   0  0  0  0  0  0  0  0  0  0  0  0
  158.1313  134.1090  192.2430 F   0  0  0  0  0  0  0  0  0  0  0  0
  156.8374  135.8315  191.6414 F   0  0  0  0  0  0  0  0  0  0  0  0
  156.0847  133.6427  191.6706 F   0  0  0  0  0  0  0  0  0  0  0  0
  149.9771  136.8721  186.0938 C   0  0  0  0  0  0  0  0  0  0  0  0
  149.3836  137.1887  184.9086 C   0  0  0  0  0  0  0  0  0  0  0  0
  148.0072  137.2387  184.7576 C   0  0  0  0  0  0  0  0  0  0  0  0
  147.2155  136.9574  185.8449 C   0  0  0  0  0  0  0  0  0  0  0  0
  147.7841  136.6330  187.0486 C   0  0  0  0  0  0  0  0  0  0  0  0
  149.1586  136.5896  187.1693 C   0  0  0  0  0  0  0  0  0  0  0  0
  154.6463  137.5502  184.7928 N   0  0  0  0  0  0  0  0  0  0  0  0
  155.2531  136.7299  184.5184 H   0  0  0  0  0  0  0  0  0  0  0  0
  154.6844  141.4305  183.3713 C   0  0  0  0  0  0  0  0  0  0  0  0
  155.8054  141.0262  184.1111 C   0  0  0  0  0  0  0  0  0  0  0  0
  155.9095  139.6866  184.4639 C   0  0  0  0  0  0  0  0  0  0  0  0
  154.9735  138.7704  184.1210 C   0  0  0  0  0  0  0  0  0  0  0  0
  153.8901  139.2425  183.3667 N   0  0  0  0  0  0  0  0  0  0  0  0
  153.7478  140.4967  183.0131 C   0  0  0  0  0  0  0  0  0  0  0  0
  155.4513  143.3338  182.2737 F   0  0  0  0  0  0  0  0  0  0  0  0
  154.4211  142.8721  183.1035 C   0  0  0  0  0  0  0  0  0  0  0  0
  154.2948  143.6502  184.2067 F   0  0  0  0  0  0  0  0  0  0  0  0
  153.2547  142.9227  182.3260 F   0  0  0  0  0  0  0  0  0  0  0  0
 36 37  1  0  0  0
 37 38  1  0  0  0
 37 39  1  0  0  0
 37 30  1  0  0  0
 30 31  2  0  0  0
 31 32  1  0  0  0
 32 33  2  0  0  0
 33 28  1  0  0  0
 28  1  1  0  0  0
  1  2  2  0  0  0
  2  3  1  0  0  0
  3  4  2  0  0  0
  4  5  1  0  0  0
  5  6  1  0  0  0
  6  7  1  0  0  0
  7  8  1  0  0  0
  8  9  1  0  0  0
  9 10  1  0  0  0
 10 11  1  0  0  0
  8 12  1  0  0  0
 12 13  2  0  0  0
 13 14  1  0  0  0
 14 15  2  0  0  0
 15 16  1  0  0  0
 16 17  2  0  0  0
 17 18  1  0  0  0
 18 19  1  0  0  0
 18 20  1  0  0  0
 18 21  1  0  0  0
  3 22  1  0  0  0
 22 23  2  0  0  0
 23 24  1  0  0  0
 24 25  2  0  0  0
 25 26  1  0  0  0
 26 27  2  0  0  0
 33 34  1  0  0  0
 34 35  2  0  0  0
 35 30  1  0  0  0
 11  1  1  0  0  0
 17 12  1  0  0  0
 27 22  1  0  0  0
 11  5  2  0  0  0
 28 29  1  0  0  0
M  END
> <minimizedAffinity>
-7.80029

> <CNNscore>
0.2780761421

> <CNNaffinity>
6.6103200912

> <CNN_VS>
1.8381723166

> <CNNaffinity_variance>
0.0569828823

$$$$
[H]c1nc(N2C([H])([H])C([H])([H])c3nc(-c4c([H])c([H])c([H])c([H])c4[H])nc(N([H])c4nc([H])c(C(F)(F)F)c([H])c4[H])c3C([H])([H])C2([H])[H])c(C(F)(F)F)c([H])c1[H]


 39 43  0  0  0  0  0  0  0  0999 V2000
  155.4868  138.9954  185.1934 C   0  0  0  0  0  0  0  0  0  0  0  0
  154.7369  139.1528  184.0757 N   0  0  0  0  0  0  0  0  0  0  0  0
  153.4994  138.6679  183.9619 C   0  0  0  0  0  0  0  0  0  0  0  0
  152.9694  137.9848  185.0473 N   0  0  0  0  0  0  0  0  0  0  0  0
  153.6450  137.7897  186.1824 C   0  0  0  0  0  0  0  0  0  0  0  0
  152.7991  137.1118  187.2192 C   0  0  0  0  0  0  0  0  0  0  0  0
  153.5524  136.0708  188.0263 C   0  0  0  0  0  0  0  0  0  0  0  0
  154.6711  136.6353  188.6800 N   0  0  0  0  0  0  0  0  0  0  0  0
  155.0715  138.0706  188.6398 C   0  0  0  0  0  0  0  0  0  0  0  0
  155.8623  138.2687  187.3476 C   0  0  0  0  0  0  0  0  0  0  0  0
  154.8787  138.2807  186.2517 C   0  0  0  0  0  0  0  0  0  0  0  0
  155.6125  135.9254  189.4432 C   0  0  0  0  0  0  0  0  0  0  0  0
  155.5974  136.0780  190.8155 N   0  0  0  0  0  0  0  0  0  0  0  0
  156.3805  135.4256  191.6496 C   0  0  0  0  0  0  0  0  0  0  0  0
  157.2872  134.5269  191.1592 C   0  0  0  0  0  0  0  0  0  0  0  0
  157.3781  134.3022  189.8098 C   0  0  0  0  0  0  0  0  0  0  0  0
  156.5121  135.0273  188.9524 C   0  0  0  0  0  0  0  0  0  0  0  0
  156.6372  134.8169  187.4809 C   0  0  0  0  0  0  0  0  0  0  0  0
  157.6178  133.8162  187.2649 F   0  0  0  0  0  0  0  0  0  0  0  0
  155.5192  134.4636  186.8412 F   0  0  0  0  0  0  0  0  0  0  0  0
  157.3006  135.9400  186.9152 F   0  0  0  0  0  0  0  0  0  0  0  0
  152.7454  138.4466  182.7369 C   0  0  0  0  0  0  0  0  0  0  0  0
  152.6611  139.3780  181.7456 C   0  0  0  0  0  0  0  0  0  0  0  0
  151.7149  139.3043  180.7363 C   0  0  0  0  0  0  0  0  0  0  0  0
  150.8315  138.2517  180.7382 C   0  0  0  0  0  0  0  0  0  0  0  0
  150.8942  137.2984  181.7204 C   0  0  0  0  0  0  0  0  0  0  0  0
  151.8488  137.3968  182.7129 C   0  0  0  0  0  0  0  0  0  0  0  0
  156.8334  139.2814  185.2954 N   0  0  0  0  0  0  0  0  0  0  0  0
  157.4053  138.8307  186.0609 H   0  0  0  0  0  0  0  0  0  0  0  0
  158.2288  141.5091  182.1065 C   0  0  0  0  0  0  0  0  0  0  0  0
  157.8496  142.2269  183.2504 C   0  0  0  0  0  0  0  0  0  0  0  0
  157.5341  141.5113  184.3985 C   0  0  0  0  0  0  0  0  0  0  0  0
  157.5799  140.1590  184.4471 C   0  0  0  0  0  0  0  0  0  0  0  0
  157.9845  139.5092  183.2724 N   0  0  0  0  0  0  0  0  0  0  0  0
  158.2888  140.1414  182.1651 C   0  0  0  0  0  0  0  0  0  0  0  0
  159.7894  142.4327  180.6482 F   0  0  0  0  0  0  0  0  0  0  0  0
  158.4167  142.1951  180.7975 C   0  0  0  0  0  0  0  0  0  0  0  0
  157.7017  143.3357  180.6360 F   0  0  0  0  0  0  0  0  0  0  0  0
  158.0832  141.2576  179.8089 F   0  0  0  0  0  0  0  0  0  0  0  0
 36 37  1  0  0  0
 37 38  1  0  0  0
 37 39  1  0  0  0
 37 30  1  0  0  0
 30 31  2  0  0  0
 31 32  1  0  0  0
 32 33  2  0  0  0
 33 28  1  0  0  0
 28  1  1  0  0  0
  1  2  2  0  0  0
  2  3  1  0  0  0
  3  4  2  0  0  0
  4  5  1  0  0  0
  5  6  1  0  0  0
  6  7  1  0  0  0
  7  8  1  0  0  0
  8  9  1  0  0  0
  9 10  1  0  0  0
 10 11  1  0  0  0
  8 12  1  0  0  0
 12 13  2  0  0  0
 13 14  1  0  0  0
 14 15  2  0  0  0
 15 16  1  0  0  0
 16 17  2  0  0  0
 17 18  1  0  0  0
 18 19  1  0  0  0
 18 20  1  0  0  0
 18 21  1  0  0  0
  3 22  1  0  0  0
 22 23  2  0  0  0
 23 24  1  0  0  0
 24 25  2  0  0  0
 25 26  1  0  0  0
 26 27  2  0  0  0
 33 34  1  0  0  0
 34 35  2  0  0  0
 35 30  1  0  0  0
 11  1  1  0  0  0
 17 12  1  0  0  0
 27 22  1  0  0  0
 11  5  2  0  0  0
 28 29  1  0  0  0
M  END
> <minimizedAffinity>
-8.85429

> <CNNscore>
0.2706589103

> <CNNaffinity>
6.8476586342

> <CNN_VS>
1.8533798456

> <CNNaffinity_variance>
0.1602587998

$$$$
[H]c1nc(N2C([H])([H])C([H])([H])N(C(=O)N([H])c3c([H])c([H])c(C(F)(F)F)c([H])c3[H])C([H])([H])C2([H])[H])c(C(F)(F)F)c([H])c1[H]


 30 32  0  0  0  0  0  0  0  0999 V2000
  153.5810  138.4253  184.5183 N   0  0  0  0  0  0  0  0  0  0  0  0
  154.0614  137.1755  184.8651 C   0  0  0  0  0  0  0  0  0  0  0  0
  153.8327  136.1643  184.0981 O   0  0  0  0  0  0  0  0  0  0  0  0
  154.7954  136.9134  186.0346 N   0  0  0  0  0  0  0  0  0  0  0  0
  155.1377  138.0387  186.8789 C   0  0  0  0  0  0  0  0  0  0  0  0
  155.9861  137.5215  188.0616 C   0  0  0  0  0  0  0  0  0  0  0  0
  155.1649  136.4579  188.6074 N   0  0  0  0  0  0  0  0  0  0  0  0
  155.1930  135.2326  187.8106 C   0  0  0  0  0  0  0  0  0  0  0  0
  155.1329  135.5422  186.3358 C   0  0  0  0  0  0  0  0  0  0  0  0
  153.7595  139.2979  185.1210 H   0  0  0  0  0  0  0  0  0  0  0  0
  151.3411  139.1712  181.0327 C   0  0  0  0  0  0  0  0  0  0  0  0
  150.9613  138.1816  181.9008 C   0  0  0  0  0  0  0  0  0  0  0  0
  151.6837  137.9193  183.0492 C   0  0  0  0  0  0  0  0  0  0  0  0
  152.8103  138.6689  183.3347 C   0  0  0  0  0  0  0  0  0  0  0  0
  153.1969  139.6604  182.4693 C   0  0  0  0  0  0  0  0  0  0  0  0
  152.4570  139.8949  181.3337 C   0  0  0  0  0  0  0  0  0  0  0  0
  149.4681  140.2013  180.1874 F   0  0  0  0  0  0  0  0  0  0  0  0
  150.5618  139.4811  179.8054 C   0  0  0  0  0  0  0  0  0  0  0  0
  151.4367  140.2227  178.9906 F   0  0  0  0  0  0  0  0  0  0  0  0
  150.1676  138.3277  179.1649 F   0  0  0  0  0  0  0  0  0  0  0  0
  154.3636  136.5172  189.7611 C   0  0  0  0  0  0  0  0  0  0  0  0
  152.9899  136.5440  189.6130 N   0  0  0  0  0  0  0  0  0  0  0  0
  152.1525  136.6299  190.6414 C   0  0  0  0  0  0  0  0  0  0  0  0
  152.6114  136.6958  191.9380 C   0  0  0  0  0  0  0  0  0  0  0  0
  153.9711  136.6739  192.1257 C   0  0  0  0  0  0  0  0  0  0  0  0
  154.8587  136.5827  191.0301 C   0  0  0  0  0  0  0  0  0  0  0  0
  156.2962  136.5450  191.2917 C   0  0  0  0  0  0  0  0  0  0  0  0
  156.9828  135.4906  190.7380 F   0  0  0  0  0  0  0  0  0  0  0  0
  156.8869  137.7699  191.1056 F   0  0  0  0  0  0  0  0  0  0  0  0
  156.4559  136.3088  192.6952 F   0  0  0  0  0  0  0  0  0  0  0  0
 17 18  1  0  0  0
 18 19  1  0  0  0
 18 20  1  0  0  0
 18 11  1  0  0  0
 11 12  2  0  0  0
 12 13  1  0  0  0
 13 14  2  0  0  0
 14  1  1  0  0  0
  1  2  1  0  0  0
  2  3  2  0  0  0
  2  4  1  0  0  0
  4  5  1  0  0  0
  5  6  1  0  0  0
  6  7  1  0  0  0
  7  8  1  0  0  0
  8  9  1  0  0  0
  7 21  1  0  0  0
 21 22  2  0  0  0
 22 23  1  0  0  0
 23 24  2  0  0  0
 24 25  1  0  0  0
 25 26  2  0  0  0
 26 27  1  0  0  0
 27 28  1  0  0  0
 27 29  1  0  0  0
 27 30  1  0  0  0
 14 15  1  0  0  0
 15 16  2  0  0  0
 16 11  1  0  0  0
  9  4  1  0  0  0
 26 21  1  0  0  0
  1 10  1  0  0  0
M  END
> <minimizedAffinity>
-7.37864

> <CNNscore>
0.5320286751

> <CNNaffinity>
5.2691860199

> <CNN_VS>
2.8033580780

> <CNNaffinity_variance>
0.0350826234

$$$$
[H]c1nc(N2C([H])([H])C([H])([H])N(C(=O)N([H])c3c([H])c([H])c(C(F)(F)F)c([H])c3[H])C([H])([H])C2([H])[H])c(C(F)(F)F)c([H])c1[H]


 30 32  0  0  0  0  0  0  0  0999 V2000
  151.8370  137.3650  186.5315 N   0  0  0  0  0  0  0  0  0  0  0  0
  152.0873  136.4243  185.5490 C   0  0  0  0  0  0  0  0  0  0  0  0
  153.1024  135.6364  185.6584 O   0  0  0  0  0  0  0  0  0  0  0  0
  151.2989  136.2637  184.3967 N   0  0  0  0  0  0  0  0  0  0  0  0
  150.1073  137.0778  184.2796 C   0  0  0  0  0  0  0  0  0  0  0  0
  149.3773  136.6901  182.9745 C   0  0  0  0  0  0  0  0  0  0  0  0
  150.4176  136.8190  181.9722 N   0  0  0  0  0  0  0  0  0  0  0  0
  151.3764  135.7154  181.9820 C   0  0  0  0  0  0  0  0  0  0  0  0
  151.7410  135.3252  183.3924 C   0  0  0  0  0  0  0  0  0  0  0  0
  150.9950  138.0327  186.4876 H   0  0  0  0  0  0  0  0  0  0  0  0
  154.3000  137.8846  189.9058 C   0  0  0  0  0  0  0  0  0  0  0  0
  153.2766  136.9740  189.9296 C   0  0  0  0  0  0  0  0  0  0  0  0
  152.4554  136.7896  188.8337 C   0  0  0  0  0  0  0  0  0  0  0  0
  152.6680  137.5329  187.6870 C   0  0  0  0  0  0  0  0  0  0  0  0
  153.6901  138.4473  187.6567 C   0  0  0  0  0  0  0  0  0  0  0  0
  154.4883  138.6081  188.7653 C   0  0  0  0  0  0  0  0  0  0  0  0
  155.0994  136.9710  191.8578 F   0  0  0  0  0  0  0  0  0  0  0  0
  155.2064  138.0781  191.0679 C   0  0  0  0  0  0  0  0  0  0  0  0
  156.4915  138.2213  190.5134 F   0  0  0  0  0  0  0  0  0  0  0  0
  154.8616  139.2032  191.7828 F   0  0  0  0  0  0  0  0  0  0  0  0
  150.5867  137.8771  181.0619 C   0  0  0  0  0  0  0  0  0  0  0  0
  151.6183  138.7726  181.2713 N   0  0  0  0  0  0  0  0  0  0  0  0
  151.8387  139.8199  180.4835 C   0  0  0  0  0  0  0  0  0  0  0  0
  151.0404  140.0783  179.3917 C   0  0  0  0  0  0  0  0  0  0  0  0
  150.0031  139.2116  179.1519 C   0  0  0  0  0  0  0  0  0  0  0  0
  149.7714  138.0991  179.9915 C   0  0  0  0  0  0  0  0  0  0  0  0
  148.6629  137.2000  179.6767 C   0  0  0  0  0  0  0  0  0  0  0  0
  148.9877  135.8735  179.5197 F   0  0  0  0  0  0  0  0  0  0  0  0
  147.5705  137.4281  180.4759 F   0  0  0  0  0  0  0  0  0  0  0  0
  148.1986  137.5565  178.3696 F   0  0  0  0  0  0  0  0  0  0  0  0
 17 18  1  0  0  0
 18 19  1  0  0  0
 18 20  1  0  0  0
 18 11  1  0  0  0
 11 12  2  0  0  0
 12 13  1  0  0  0
 13 14  2  0  0  0
 14  1  1  0  0  0
  1  2  1  0  0  0
  2  3  2  0  0  0
  2  4  1  0  0  0
  4  5  1  0  0  0
  5  6  1  0  0  0
  6  7  1  0  0  0
  7  8  1  0  0  0
  8  9  1  0  0  0
  7 21  1  0  0  0
 21 22  2  0  0  0
 22 23  1  0  0  0
 23 24  2  0  0  0
 24 25  1  0  0  0
 25 26  2  0  0  0
 26 27  1  0  0  0
 27 28  1  0  0  0
 27 29  1  0  0  0
 27 30  1  0  0  0
 14 15  1  0  0  0
 15 16  2  0  0  0
 16 11  1  0  0  0
  9  4  1  0  0  0
 26 21  1  0  0  0
  1 10  1  0  0  0
M  END
> <minimizedAffinity>
-7.59485

> <CNNscore>
0.5001969337

> <CNNaffinity>
5.2980575562

> <CNN_VS>
2.6500720978

> <CNNaffinity_variance>
0.0461824909

$$$$
[H]c1nc(N2C([H])([H])C([H])([H])N(C(=O)N([H])c3c([H])c([H])c(C(F)(F)F)c([H])c3[H])C([H])([H])C2([H])[H])c(C(F)(F)F)c([H])c1[H]


 30 32  0  0  0  0  0  0  0  0999 V2000
  153.4846  137.6354  185.5263 N   0  0  0  0  0  0  0  0  0  0  0  0
  153.5899  138.5709  184.5130 C   0  0  0  0  0  0  0  0  0  0  0  0
  154.2977  139.6341  184.6919 O   0  0  0  0  0  0  0  0  0  0  0  0
  152.9541  138.4518  183.2654 N   0  0  0  0  0  0  0  0  0  0  0  0
  152.2159  137.2346  183.0015 C   0  0  0  0  0  0  0  0  0  0  0  0
  151.6593  137.3033  181.5621 C   0  0  0  0  0  0  0  0  0  0  0  0
  150.9532  138.5701  181.5491 N   0  0  0  0  0  0  0  0  0  0  0  0
  151.8386  139.7300  181.4601 C   0  0  0  0  0  0  0  0  0  0  0  0
  153.0497  139.5578  182.3421 C   0  0  0  0  0  0  0  0  0  0  0  0
  152.9166  136.7289  185.4157 H   0  0  0  0  0  0  0  0  0  0  0  0
  155.3774  138.0610  189.2625 C   0  0  0  0  0  0  0  0  0  0  0  0
  154.0969  138.5129  189.0799 C   0  0  0  0  0  0  0  0  0  0  0  0
  153.4584  138.3847  187.8612 C   0  0  0  0  0  0  0  0  0  0  0  0
  154.1181  137.7868  186.8029 C   0  0  0  0  0  0  0  0  0  0  0  0
  155.4008  137.3333  186.9784 C   0  0  0  0  0  0  0  0  0  0  0  0
  156.0087  137.4778  188.2038 C   0  0  0  0  0  0  0  0  0  0  0  0
  157.3899  138.4005  190.3201 F   0  0  0  0  0  0  0  0  0  0  0  0
  156.0694  138.1704  190.5735 C   0  0  0  0  0  0  0  0  0  0  0  0
  155.4508  139.2514  191.2279 F   0  0  0  0  0  0  0  0  0  0  0  0
  155.9239  137.0149  191.3080 F   0  0  0  0  0  0  0  0  0  0  0  0
  149.5637  138.7634  181.6411 C   0  0  0  0  0  0  0  0  0  0  0  0
  149.0060  138.9800  182.8869 N   0  0  0  0  0  0  0  0  0  0  0  0
  147.7009  139.1428  183.0773 C   0  0  0  0  0  0  0  0  0  0  0  0
  146.8116  139.1072  182.0266 C   0  0  0  0  0  0  0  0  0  0  0  0
  147.3277  138.8918  180.7728 C   0  0  0  0  0  0  0  0  0  0  0  0
  148.7158  138.7190  180.5739 C   0  0  0  0  0  0  0  0  0  0  0  0
  149.2102  138.5112  179.2142 C   0  0  0  0  0  0  0  0  0  0  0  0
  150.0738  139.4666  178.7335 F   0  0  0  0  0  0  0  0  0  0  0  0
  149.6190  137.2175  179.0059 F   0  0  0  0  0  0  0  0  0  0  0  0
  148.0854  138.6493  178.3386 F   0  0  0  0  0  0  0  0  0  0  0  0
 17 18  1  0  0  0
 18 19  1  0  0  0
 18 20  1  0  0  0
 18 11  1  0  0  0
 11 12  2  0  0  0
 12 13  1  0  0  0
 13 14  2  0  0  0
 14  1  1  0  0  0
  1  2  1  0  0  0
  2  3  2  0  0  0
  2  4  1  0  0  0
  4  5  1  0  0  0
  5  6  1  0  0  0
  6  7  1  0  0  0
  7  8  1  0  0  0
  8  9  1  0  0  0
  7 21  1  0  0  0
 21 22  2  0  0  0
 22 23  1  0  0  0
 23 24  2  0  0  0
 24 25  1  0  0  0
 25 26  2  0  0  0
 26 27  1  0  0  0
 27 28  1  0  0  0
 27 29  1  0  0  0
 27 30  1  0  0  0
 14 15  1  0  0  0
 15 16  2  0  0  0
 16 11  1  0  0  0
  9  4  1  0  0  0
 26 21  1  0  0  0
  1 10  1  0  0  0
M  END
> <minimizedAffinity>
-8.09447

> <CNNscore>
0.4939627051

> <CNNaffinity>
5.3998260498

> <CNN_VS>
2.6673126221

> <CNNaffinity_variance>
0.0302347653

$$$$
[H]c1nc(N2C([H])([H])C([H])([H])N(C(=O)N([H])c3c([H])c([H])c(C(F)(F)F)c([H])c3[H])C([H])([H])C2([H])[H])c(C(F)(F)F)c([H])c1[H]


 30 32  0  0  0  0  0  0  0  0999 V2000
  153.0676  137.9189  185.2243 N   0  0  0  0  0  0  0  0  0  0  0  0
  153.3375  136.6024  185.5509 C   0  0  0  0  0  0  0  0  0  0  0  0
  153.2368  135.6841  184.6510 O   0  0  0  0  0  0  0  0  0  0  0  0
  153.7157  136.1737  186.8347 N   0  0  0  0  0  0  0  0  0  0  0  0
  153.9147  137.1871  187.8495 C   0  0  0  0  0  0  0  0  0  0  0  0
  154.3788  136.4925  189.1489 C   0  0  0  0  0  0  0  0  0  0  0  0
  153.3600  135.4813  189.3561 N   0  0  0  0  0  0  0  0  0  0  0  0
  153.4967  134.3261  188.4706 C   0  0  0  0  0  0  0  0  0  0  0  0
  153.8504  134.7553  187.0687 C   0  0  0  0  0  0  0  0  0  0  0  0
  153.1519  138.7180  185.9391 H   0  0  0  0  0  0  0  0  0  0  0  0
  151.8285  139.1142  181.3825 C   0  0  0  0  0  0  0  0  0  0  0  0
  152.9847  139.6124  181.9230 C   0  0  0  0  0  0  0  0  0  0  0  0
  153.4080  139.2346  183.1830 C   0  0  0  0  0  0  0  0  0  0  0  0
  152.6563  138.3342  183.9157 C   0  0  0  0  0  0  0  0  0  0  0  0
  151.4969  137.8325  183.3811 C   0  0  0  0  0  0  0  0  0  0  0  0
  151.1024  138.2304  182.1249 C   0  0  0  0  0  0  0  0  0  0  0  0
  150.6892  138.4285  179.5076 F   0  0  0  0  0  0  0  0  0  0  0  0
  151.3718  139.4928  180.0196 C   0  0  0  0  0  0  0  0  0  0  0  0
  150.5504  140.6198  180.2057 F   0  0  0  0  0  0  0  0  0  0  0  0
  152.4399  139.8033  179.2080 F   0  0  0  0  0  0  0  0  0  0  0  0
  152.2920  135.5333  190.2689 C   0  0  0  0  0  0  0  0  0  0  0  0
  151.0055  135.6485  189.7774 N   0  0  0  0  0  0  0  0  0  0  0  0
  149.9361  135.7352  190.5616 C   0  0  0  0  0  0  0  0  0  0  0  0
  150.0477  135.7125  191.9339 C   0  0  0  0  0  0  0  0  0  0  0  0
  151.3106  135.6011  192.4603 C   0  0  0  0  0  0  0  0  0  0  0  0
  152.4455  135.5094  191.6237 C   0  0  0  0  0  0  0  0  0  0  0  0
  153.7638  135.3741  192.2403 C   0  0  0  0  0  0  0  0  0  0  0  0
  154.4661  134.2367  191.9198 F   0  0  0  0  0  0  0  0  0  0  0  0
  154.4924  136.5347  192.1605 F   0  0  0  0  0  0  0  0  0  0  0  0
  153.5488  135.2128  193.6470 F   0  0  0  0  0  0  0  0  0  0  0  0
 17 18  1  0  0  0
 18 19  1  0  0  0
 18 20  1  0  0  0
 18 11  1  0  0  0
 11 12  2  0  0  0
 12 13  1  0  0  0
 13 14  2  0  0  0
 14  1  1  0  0  0
  1  2  1  0  0  0
  2  3  2  0  0  0
  2  4  1  0  0  0
  4  5  1  0  0  0
  5  6  1  0  0  0
  6  7  1  0  0  0
  7  8  1  0  0  0
  8  9  1  0  0  0
  7 21  1  0  0  0
 21 22  2  0  0  0
 22 23  1  0  0  0
 23 24  2  0  0  0
 24 25  1  0  0  0
 25 26  2  0  0  0
 26 27  1  0  0  0
 27 28  1  0  0  0
 27 29  1  0  0  0
 27 30  1  0  0  0
 14 15  1  0  0  0
 15 16  2  0  0  0
 16 11  1  0  0  0
  9  4  1  0  0  0
 26 21  1  0  0  0
  1 10  1  0  0  0
M  END
> <minimizedAffinity>
-5.95758

> <CNNscore>
0.3748853207

> <CNNaffinity>
5.1400833130

> <CNN_VS>
1.9269417524

> <CNNaffinity_variance>
0.1033088565

$$$$
[H]c1nc(N2C([H])([H])C([H])([H])N(C(=O)N([H])c3c([H])c([H])c(C(F)(F)F)c([H])c3[H])C([H])([H])C2([H])[H])c(C(F)(F)F)c([H])c1[H]


 30 32  0  0  0  0  0  0  0  0999 V2000
  156.1077  138.7402  185.2285 N   0  0  0  0  0  0  0  0  0  0  0  0
  154.7301  138.6508  185.3122 C   0  0  0  0  0  0  0  0  0  0  0  0
  153.9941  139.5719  184.7896 O   0  0  0  0  0  0  0  0  0  0  0  0
  154.0490  137.6027  185.9545 N   0  0  0  0  0  0  0  0  0  0  0  0
  154.8408  136.5121  186.4837 C   0  0  0  0  0  0  0  0  0  0  0  0
  153.8828  135.4601  187.0853 C   0  0  0  0  0  0  0  0  0  0  0  0
  153.0714  136.2454  187.9955 N   0  0  0  0  0  0  0  0  0  0  0  0
  152.0571  137.0546  187.3219 C   0  0  0  0  0  0  0  0  0  0  0  0
  152.6129  137.6938  186.0741 C   0  0  0  0  0  0  0  0  0  0  0  0
  156.7590  137.9887  185.6380 H   0  0  0  0  0  0  0  0  0  0  0  0
  158.1195  141.9522  183.3958 C   0  0  0  0  0  0  0  0  0  0  0  0
  157.1781  141.2386  182.7016 C   0  0  0  0  0  0  0  0  0  0  0  0
  156.5080  140.1798  183.2839 C   0  0  0  0  0  0  0  0  0  0  0  0
  156.7861  139.8311  184.5930 C   0  0  0  0  0  0  0  0  0  0  0  0
  157.7283  140.5405  185.2935 C   0  0  0  0  0  0  0  0  0  0  0  0
  158.3789  141.5880  184.6841 C   0  0  0  0  0  0  0  0  0  0  0  0
  159.7430  143.5497  183.7058 F   0  0  0  0  0  0  0  0  0  0  0  0
  158.8320  143.1082  182.7914 C   0  0  0  0  0  0  0  0  0  0  0  0
  159.4397  142.5999  181.6287 F   0  0  0  0  0  0  0  0  0  0  0  0
  157.9538  144.1199  182.4734 F   0  0  0  0  0  0  0  0  0  0  0  0
  153.1948  136.3111  189.3944 C   0  0  0  0  0  0  0  0  0  0  0  0
  152.5904  135.3316  190.1595 N   0  0  0  0  0  0  0  0  0  0  0  0
  152.6263  135.3258  191.4879 C   0  0  0  0  0  0  0  0  0  0  0  0
  153.2810  136.3107  192.1933 C   0  0  0  0  0  0  0  0  0  0  0  0
  153.8924  137.3030  191.4679 C   0  0  0  0  0  0  0  0  0  0  0  0
  153.8522  137.3063  190.0556 C   0  0  0  0  0  0  0  0  0  0  0  0
  154.5367  138.3784  189.3357 C   0  0  0  0  0  0  0  0  0  0  0  0
  155.6737  138.0169  188.6531 F   0  0  0  0  0  0  0  0  0  0  0  0
  153.6638  139.1563  188.6165 F   0  0  0  0  0  0  0  0  0  0  0  0
  155.0485  139.2800  190.3238 F   0  0  0  0  0  0  0  0  0  0  0  0
 17 18  1  0  0  0
 18 19  1  0  0  0
 18 20  1  0  0  0
 18 11  1  0  0  0
 11 12  2  0  0  0
 12 13  1  0  0  0
 13 14  2  0  0  0
 14  1  1  0  0  0
  1  2  1  0  0  0
  2  3  2  0  0  0
  2  4  1  0  0  0
  4  5  1  0  0  0
  5  6  1  0  0  0
  6  7  1  0  0  0
  7  8  1  0  0  0
  8  9  1  0  0  0
  7 21  1  0  0  0
 21 22  2  0  0  0
 22 23  1  0  0  0
 23 24  2  0  0  0
 24 25  1  0  0  0
 25 26  2  0  0  0
 26 27  1  0  0  0
 27 28  1  0  0  0
 27 29  1  0  0  0
 27 30  1  0  0  0
 14 15  1  0  0  0
 15 16  2  0  0  0
 16 11  1  0  0  0
  9  4  1  0  0  0
 26 21  1  0  0  0
  1 10  1  0  0  0
M  END
> <minimizedAffinity>
-7.86335

> <CNNscore>
0.3639500141

> <CNNaffinity>
5.5670456886

> <CNN_VS>
2.0261263847

> <CNNaffinity_variance>
0.1265732050

$$$$
[H]c1nc(N2C([H])([H])C([H])([H])N(C(=O)N([H])c3c([H])c([H])c(C(F)(F)F)c([H])c3[H])C([H])([H])C2([H])[H])c(C(F)(F)F)c([H])c1[H]


 30 32  0  0  0  0  0  0  0  0999 V2000
  155.3848  138.8443  184.6692 N   0  0  0  0  0  0  0  0  0  0  0  0
  154.2598  138.7803  185.4713 C   0  0  0  0  0  0  0  0  0  0  0  0
  153.4987  139.8142  185.5933 O   0  0  0  0  0  0  0  0  0  0  0  0
  153.8764  137.6389  186.1961 N   0  0  0  0  0  0  0  0  0  0  0  0
  154.6637  136.4364  186.0211 C   0  0  0  0  0  0  0  0  0  0  0  0
  154.0259  135.3085  186.8620 C   0  0  0  0  0  0  0  0  0  0  0  0
  153.9342  135.9023  188.1821 N   0  0  0  0  0  0  0  0  0  0  0  0
  152.8444  136.8680  188.3123 C   0  0  0  0  0  0  0  0  0  0  0  0
  152.7468  137.7450  187.0893 C   0  0  0  0  0  0  0  0  0  0  0  0
  156.0395  138.0028  184.5282 H   0  0  0  0  0  0  0  0  0  0  0  0
  156.5624  142.3208  182.6078 C   0  0  0  0  0  0  0  0  0  0  0  0
  155.4541  141.6213  182.2083 C   0  0  0  0  0  0  0  0  0  0  0  0
  155.0518  140.4769  182.8698 C   0  0  0  0  0  0  0  0  0  0  0  0
  155.7756  140.0260  183.9586 C   0  0  0  0  0  0  0  0  0  0  0  0
  156.8870  140.7208  184.3632 C   0  0  0  0  0  0  0  0  0  0  0  0
  157.2618  141.8553  183.6819 C   0  0  0  0  0  0  0  0  0  0  0  0
  157.4579  143.2129  180.6879 F   0  0  0  0  0  0  0  0  0  0  0  0
  156.9946  143.5664  181.9212 C   0  0  0  0  0  0  0  0  0  0  0  0
  155.8412  144.3691  181.8530 F   0  0  0  0  0  0  0  0  0  0  0  0
  157.9854  144.2054  182.6325 F   0  0  0  0  0  0  0  0  0  0  0  0
  154.7813  135.6601  189.2777 C   0  0  0  0  0  0  0  0  0  0  0  0
  154.6519  134.4677  189.9643 N   0  0  0  0  0  0  0  0  0  0  0  0
  155.3858  134.1624  191.0293 C   0  0  0  0  0  0  0  0  0  0  0  0
  156.3369  135.0294  191.5189 C   0  0  0  0  0  0  0  0  0  0  0  0
  156.4936  136.2259  190.8645 C   0  0  0  0  0  0  0  0  0  0  0  0
  155.7115  136.5476  189.7326 C   0  0  0  0  0  0  0  0  0  0  0  0
  155.9349  137.8286  189.0652 C   0  0  0  0  0  0  0  0  0  0  0  0
  156.4063  137.7631  187.7756 F   0  0  0  0  0  0  0  0  0  0  0  0
  154.8844  138.6938  189.2442 F   0  0  0  0  0  0  0  0  0  0  0  0
  157.0151  138.4709  189.7520 F   0  0  0  0  0  0  0  0  0  0  0  0
 17 18  1  0  0  0
 18 19  1  0  0  0
 18 20  1  0  0  0
 18 11  1  0  0  0
 11 12  2  0  0  0
 12 13  1  0  0  0
 13 14  2  0  0  0
 14  1  1  0  0  0
  1  2  1  0  0  0
  2  3  2  0  0  0
  2  4  1  0  0  0
  4  5  1  0  0  0
  5  6  1  0  0  0
  6  7  1  0  0  0
  7  8  1  0  0  0
  8  9  1  0  0  0
  7 21  1  0  0  0
 21 22  2  0  0  0
 22 23  1  0  0  0
 23 24  2  0  0  0
 24 25  1  0  0  0
 25 26  2  0  0  0
 26 27  1  0  0  0
 27 28  1  0  0  0
 27 29  1  0  0  0
 27 30  1  0  0  0
 14 15  1  0  0  0
 15 16  2  0  0  0
 16 11  1  0  0  0
  9  4  1  0  0  0
 26 21  1  0  0  0
  1 10  1  0  0  0
M  END
> <minimizedAffinity>
-7.23411

> <CNNscore>
0.2922437191

> <CNNaffinity>
5.5118155479

> <CNN_VS>
1.6107934713

> <CNNaffinity_variance>
0.1459218711

$$$$
[H]c1nc(N2C([H])([H])C([H])([H])N(C(=O)N([H])c3c([H])c([H])c(C(F)(F)F)c([H])c3[H])C([H])([H])C2([H])[H])c(C(F)(F)F)c([H])c1[H]


 30 32  0  0  0  0  0  0  0  0999 V2000
  154.0491  138.9959  186.8845 N   0  0  0  0  0  0  0  0  0  0  0  0
  154.6516  138.4697  185.7562 C   0  0  0  0  0  0  0  0  0  0  0  0
  154.8803  137.2027  185.6824 O   0  0  0  0  0  0  0  0  0  0  0  0
  155.0566  139.2385  184.6517 N   0  0  0  0  0  0  0  0  0  0  0  0
  154.7447  140.6522  184.6669 C   0  0  0  0  0  0  0  0  0  0  0  0
  155.2288  141.2735  183.3380 C   0  0  0  0  0  0  0  0  0  0  0  0
  156.6179  140.8611  183.2759 N   0  0  0  0  0  0  0  0  0  0  0  0
  156.7936  139.4596  182.8991 C   0  0  0  0  0  0  0  0  0  0  0  0
  155.7826  138.5802  183.5912 C   0  0  0  0  0  0  0  0  0  0  0  0
  153.8276  140.0437  186.9829 H   0  0  0  0  0  0  0  0  0  0  0  0
  152.8972  136.6439  190.1806 C   0  0  0  0  0  0  0  0  0  0  0  0
  153.9671  137.4944  190.2774 C   0  0  0  0  0  0  0  0  0  0  0  0
  154.3627  138.2734  189.2069 C   0  0  0  0  0  0  0  0  0  0  0  0
  153.6674  138.2001  188.0137 C   0  0  0  0  0  0  0  0  0  0  0  0
  152.5960  137.3498  187.9095 C   0  0  0  0  0  0  0  0  0  0  0  0
  152.2290  136.5864  188.9932 C   0  0  0  0  0  0  0  0  0  0  0  0
  151.3997  135.0542  190.8976 F   0  0  0  0  0  0  0  0  0  0  0  0
  152.4449  135.8168  191.3299 C   0  0  0  0  0  0  0  0  0  0  0  0
  153.5632  135.0426  191.6897 F   0  0  0  0  0  0  0  0  0  0  0  0
  152.0474  136.6088  192.3838 F   0  0  0  0  0  0  0  0  0  0  0  0
  157.7463  141.6491  183.5631 C   0  0  0  0  0  0  0  0  0  0  0  0
  158.4089  141.4466  184.7589 N   0  0  0  0  0  0  0  0  0  0  0  0
  159.4653  142.1617  185.1312 C   0  0  0  0  0  0  0  0  0  0  0  0
  159.9729  143.1625  184.3331 C   0  0  0  0  0  0  0  0  0  0  0  0
  159.3400  143.3952  183.1373 C   0  0  0  0  0  0  0  0  0  0  0  0
  158.2169  142.6331  182.7446 C   0  0  0  0  0  0  0  0  0  0  0  0
  157.5948  142.9135  181.4520 C   0  0  0  0  0  0  0  0  0  0  0  0
  158.2719  143.7854  180.6329 F   0  0  0  0  0  0  0  0  0  0  0  0
  157.1590  141.7700  180.8302 F   0  0  0  0  0  0  0  0  0  0  0  0
  156.3830  143.6277  181.7215 F   0  0  0  0  0  0  0  0  0  0  0  0
 17 18  1  0  0  0
 18 19  1  0  0  0
 18 20  1  0  0  0
 18 11  1  0  0  0
 11 12  2  0  0  0
 12 13  1  0  0  0
 13 14  2  0  0  0
 14  1  1  0  0  0
  1  2  1  0  0  0
  2  3  2  0  0  0
  2  4  1  0  0  0
  4  5  1  0  0  0
  5  6  1  0  0  0
  6  7  1  0  0  0
  7  8  1  0  0  0
  8  9  1  0  0  0
  7 21  1  0  0  0
 21 22  2  0  0  0
 22 23  1  0  0  0
 23 24  2  0  0  0
 24 25  1  0  0  0
 25 26  2  0  0  0
 26 27  1  0  0  0
 27 28  1  0  0  0
 27 29  1  0  0  0
 27 30  1  0  0  0
 14 15  1  0  0  0
 15 16  2  0  0  0
 16 11  1  0  0  0
  9  4  1  0  0  0
 26 21  1  0  0  0
  1 10  1  0  0  0
M  END
> <minimizedAffinity>
-6.00588

> <CNNscore>
0.2835969627

> <CNNaffinity>
5.8745722771

> <CNN_VS>
1.6660108566

> <CNNaffinity_variance>
0.5052138567

$$$$
[H]c1nc(N2C([H])([H])C([H])([H])N(C(=O)N([H])c3c([H])c([H])c(C(F)(F)F)c([H])c3[H])C([H])([H])C2([H])[H])c(C(F)(F)F)c([H])c1[H]


 30 32  0  0  0  0  0  0  0  0999 V2000
  151.8495  136.5527  188.0292 N   0  0  0  0  0  0  0  0  0  0  0  0
  152.6689  136.0104  187.0558 C   0  0  0  0  0  0  0  0  0  0  0  0
  153.6099  135.1944  187.3904 O   0  0  0  0  0  0  0  0  0  0  0  0
  152.5567  136.2992  185.6850 N   0  0  0  0  0  0  0  0  0  0  0  0
  151.4627  137.1495  185.2652 C   0  0  0  0  0  0  0  0  0  0  0  0
  151.5063  137.2776  183.7264 C   0  0  0  0  0  0  0  0  0  0  0  0
  152.8680  137.7102  183.4769 N   0  0  0  0  0  0  0  0  0  0  0  0
  153.8525  136.6366  183.6006 C   0  0  0  0  0  0  0  0  0  0  0  0
  153.5526  135.7589  184.7898 C   0  0  0  0  0  0  0  0  0  0  0  0
  151.0447  137.2262  187.7940 H   0  0  0  0  0  0  0  0  0  0  0  0
  152.3103  135.7418  192.1344 C   0  0  0  0  0  0  0  0  0  0  0  0
  151.3696  135.0712  191.3978 C   0  0  0  0  0  0  0  0  0  0  0  0
  151.2009  135.3239  190.0499 C   0  0  0  0  0  0  0  0  0  0  0  0
  151.9961  136.2679  189.4261 C   0  0  0  0  0  0  0  0  0  0  0  0
  152.9392  136.9439  190.1579 C   0  0  0  0  0  0  0  0  0  0  0  0
  153.0805  136.6702  191.4984 C   0  0  0  0  0  0  0  0  0  0  0  0
  151.9967  134.2322  193.8392 F   0  0  0  0  0  0  0  0  0  0  0  0
  152.5199  135.4650  193.5797 C   0  0  0  0  0  0  0  0  0  0  0  0
  153.9140  135.5077  193.7650 F   0  0  0  0  0  0  0  0  0  0  0  0
  151.9005  136.4148  194.3607 F   0  0  0  0  0  0  0  0  0  0  0  0
  153.2975  139.0138  183.1725 C   0  0  0  0  0  0  0  0  0  0  0  0
  154.0504  139.6986  184.1074 N   0  0  0  0  0  0  0  0  0  0  0  0
  154.4757  140.9440  183.9227 C   0  0  0  0  0  0  0  0  0  0  0  0
  154.1889  141.6373  182.7681 C   0  0  0  0  0  0  0  0  0  0  0  0
  153.4407  140.9909  181.8158 C   0  0  0  0  0  0  0  0  0  0  0  0
  152.9899  139.6668  182.0154 C   0  0  0  0  0  0  0  0  0  0  0  0
  152.2122  139.0225  180.9588 C   0  0  0  0  0  0  0  0  0  0  0  0
  152.6319  137.7698  180.5790 F   0  0  0  0  0  0  0  0  0  0  0  0
  150.8608  139.1292  181.1745 F   0  0  0  0  0  0  0  0  0  0  0  0
  152.4198  139.7877  179.7661 F   0  0  0  0  0  0  0  0  0  0  0  0
 17 18  1  0  0  0
 18 19  1  0  0  0
 18 20  1  0  0  0
 18 11  1  0  0  0
 11 12  2  0  0  0
 12 13  1  0  0  0
 13 14  2  0  0  0
 14  1  1  0  0  0
  1  2  1  0  0  0
  2  3  2  0  0  0
  2  4  1  0  0  0
  4  5  1  0  0  0
  5  6  1  0  0  0
  6  7  1  0  0  0
  7  8  1  0  0  0
  8  9  1  0  0  0
  7 21  1  0  0  0
 21 22  2  0  0  0
 22 23  1  0  0  0
 23 24  2  0  0  0
 24 25  1  0  0  0
 25 26  2  0  0  0
 26 27  1  0  0  0
 27 28  1  0  0  0
 27 29  1  0  0  0
 27 30  1  0  0  0
 14 15  1  0  0  0
 15 16  2  0  0  0
 16 11  1  0  0  0
  9  4  1  0  0  0
 26 21  1  0  0  0
  1 10  1  0  0  0
M  END
> <minimizedAffinity>
-6.72568

> <CNNscore>
0.2726461589

> <CNNaffinity>
5.1158142090

> <CNN_VS>
1.3948071003

> <CNNaffinity_variance>
0.1142723560

$$$$
[H]c1nc(N2C([H])([H])C([H])([H])N(C(=O)N([H])c3c([H])c([H])c(C(F)(F)F)c([H])c3[H])C([H])([H])C2([H])[H])c(C(F)(F)F)c([H])c1[H]


 30 32  0  0  0  0  0  0  0  0999 V2000
  154.3972  139.6748  182.1587 N   0  0  0  0  0  0  0  0  0  0  0  0
  154.9615  139.7368  183.4200 C   0  0  0  0  0  0  0  0  0  0  0  0
  154.2150  139.6112  184.4641 O   0  0  0  0  0  0  0  0  0  0  0  0
  156.3310  139.9437  183.6580 N   0  0  0  0  0  0  0  0  0  0  0  0
  157.2097  140.0104  182.5092 C   0  0  0  0  0  0  0  0  0  0  0  0
  158.6599  140.1819  183.0128 C   0  0  0  0  0  0  0  0  0  0  0  0
  158.5629  141.3322  183.8908 N   0  0  0  0  0  0  0  0  0  0  0  0
  157.9532  141.0283  185.1843 C   0  0  0  0  0  0  0  0  0  0  0  0
  156.7693  140.1079  185.0239 C   0  0  0  0  0  0  0  0  0  0  0  0
  154.9835  139.7609  181.2612 H   0  0  0  0  0  0  0  0  0  0  0  0
  150.2742  139.1645  181.4783 C   0  0  0  0  0  0  0  0  0  0  0  0
  150.9379  138.3449  182.3529 C   0  0  0  0  0  0  0  0  0  0  0  0
  152.2912  138.4943  182.5888 C   0  0  0  0  0  0  0  0  0  0  0  0
  152.9936  139.4904  181.9353 C   0  0  0  0  0  0  0  0  0  0  0  0
  152.3356  140.3137  181.0574 C   0  0  0  0  0  0  0  0  0  0  0  0
  150.9883  140.1374  180.8434 C   0  0  0  0  0  0  0  0  0  0  0  0
  148.6309  138.9939  179.8800 F   0  0  0  0  0  0  0  0  0  0  0  0
  148.8145  139.0317  181.2312 C   0  0  0  0  0  0  0  0  0  0  0  0
  148.4423  137.8287  181.8587 F   0  0  0  0  0  0  0  0  0  0  0  0
  148.1223  140.0919  181.7723 F   0  0  0  0  0  0  0  0  0  0  0  0
  158.9582  142.6503  183.6026 C   0  0  0  0  0  0  0  0  0  0  0  0
  160.1840  143.0903  184.0650 N   0  0  0  0  0  0  0  0  0  0  0  0
  160.6302  144.3267  183.8689 C   0  0  0  0  0  0  0  0  0  0  0  0
  159.8864  145.2580  183.1794 C   0  0  0  0  0  0  0  0  0  0  0  0
  158.6612  144.8588  182.7059 C   0  0  0  0  0  0  0  0  0  0  0  0
  158.1897  143.5436  182.9163 C   0  0  0  0  0  0  0  0  0  0  0  0
  156.8853  143.1696  182.3733 C   0  0  0  0  0  0  0  0  0  0  0  0
  156.9006  142.2835  181.3224 F   0  0  0  0  0  0  0  0  0  0  0  0
  155.9828  142.8650  183.3618 F   0  0  0  0  0  0  0  0  0  0  0  0
  156.3341  144.3464  181.7713 F   0  0  0  0  0  0  0  0  0  0  0  0
 17 18  1  0  0  0
 18 19  1  0  0  0
 18 20  1  0  0  0
 18 11  1  0  0  0
 11 12  2  0  0  0
 12 13  1  0  0  0
 13 14  2  0  0  0
 14  1  1  0  0  0
  1  2  1  0  0  0
  2  3  2  0  0  0
  2  4  1  0  0  0
  4  5  1  0  0  0
  5  6  1  0  0  0
  6  7  1  0  0  0
  7  8  1  0  0  0
  8  9  1  0  0  0
  7 21  1  0  0  0
 21 22  2  0  0  0
 22 23  1  0  0  0
 23 24  2  0  0  0
 24 25  1  0  0  0
 25 26  2  0  0  0
 26 27  1  0  0  0
 27 28  1  0  0  0
 27 29  1  0  0  0
 27 30  1  0  0  0
 14 15  1  0  0  0
 15 16  2  0  0  0
 16 11  1  0  0  0
  9  4  1  0  0  0
 26 21  1  0  0  0
  1 10  1  0  0  0
M  END
> <minimizedAffinity>
-8.03351

> <CNNscore>
0.2484373897

> <CNNaffinity>
6.1523518562

> <CNN_VS>
1.5284742117

> <CNNaffinity_variance>
0.0328757279

$$$$
[H]c1nc([H])c2c([H])c([H])c([H])c(N([H])C(=O)N([H])[C@@]([H])(c3c([H])c([H])c(C(F)(F)F)c([H])c3[H])C([H])([H])[H])c2c1[H]


 28 30  0  0  0  0  0  0  0  0999 V2000
  153.2196  136.9690  185.0729 N   0  0  0  0  0  0  0  0  0  0  0  0
  152.6571  136.8677  183.7962 C   0  0  0  0  0  0  0  0  0  0  0  0
  153.2911  136.1791  182.9605 O   0  0  0  0  0  0  0  0  0  0  0  0
  151.4524  137.4941  183.4810 N   0  0  0  0  0  0  0  0  0  0  0  0
  152.6509  137.5487  185.7883 H   0  0  0  0  0  0  0  0  0  0  0  0
  151.0731  138.1114  184.2867 H   0  0  0  0  0  0  0  0  0  0  0  0
  150.6557  137.4687  182.3393 C   0  0  0  0  0  0  0  0  0  0  0  0
  149.5444  136.6397  182.2677 C   0  0  0  0  0  0  0  0  0  0  0  0
  148.6693  136.6723  181.1941 C   0  0  0  0  0  0  0  0  0  0  0  0
  148.9042  137.5494  180.1665 C   0  0  0  0  0  0  0  0  0  0  0  0
  150.0013  138.3803  180.2126 C   0  0  0  0  0  0  0  0  0  0  0  0
  150.1997  139.2297  179.1391 C   0  0  0  0  0  0  0  0  0  0  0  0
  151.2586  140.0307  179.1453 N   0  0  0  0  0  0  0  0  0  0  0  0
  152.1279  140.0306  180.1600 C   0  0  0  0  0  0  0  0  0  0  0  0
  151.9310  139.1805  181.2364 C   0  0  0  0  0  0  0  0  0  0  0  0
  150.8602  138.3434  181.2749 C   0  0  0  0  0  0  0  0  0  0  0  0
  154.4776  134.8923  185.5392 C   0  0  0  0  0  0  0  0  0  0  0  0
  154.4237  136.4378  185.6142 C   0  0  0  0  0  0  0  0  0  0  0  0
  154.5943  136.8267  187.0238 C   0  0  0  0  0  0  0  0  0  0  0  0
  154.0131  138.0197  187.4730 C   0  0  0  0  0  0  0  0  0  0  0  0
  154.2025  138.4471  188.7621 C   0  0  0  0  0  0  0  0  0  0  0  0
  154.9562  137.7408  189.6453 C   0  0  0  0  0  0  0  0  0  0  0  0
  155.5441  136.5586  189.2332 C   0  0  0  0  0  0  0  0  0  0  0  0
  155.3534  136.1239  187.9361 C   0  0  0  0  0  0  0  0  0  0  0  0
  155.1290  138.2435  191.0383 C   0  0  0  0  0  0  0  0  0  0  0  0
  156.3962  138.0468  191.4981 F   0  0  0  0  0  0  0  0  0  0  0  0
  154.1955  137.5711  191.8368 F   0  0  0  0  0  0  0  0  0  0  0  0
  154.8387  139.6152  191.0704 F   0  0  0  0  0  0  0  0  0  0  0  0
 17 18  1  0  0  0
 18  1  1  0  0  0
  1  2  1  0  0  0
  2  3  2  0  0  0
  2  4  1  0  0  0
  4  7  1  0  0  0
  7  8  2  0  0  0
  8  9  1  0  0  0
  9 10  2  0  0  0
 10 11  1  0  0  0
 11 12  2  0  0  0
 12 13  1  0  0  0
 13 14  2  0  0  0
 14 15  1  0  0  0
 15 16  2  0  0  0
 18 19  1  0  0  0
 19 20  2  0  0  0
 20 21  1  0  0  0
 21 22  2  0  0  0
 22 23  1  0  0  0
 23 24  2  0  0  0
 22 25  1  0  0  0
 25 26  1  0  0  0
 25 27  1  0  0  0
 25 28  1  0  0  0
 16  7  1  0  0  0
 24 19  1  0  0  0
 16 11  1  0  0  0
  1  5  1  0  0  0
  4  6  1  0  0  0
M  END
> <minimizedAffinity>
-6.96155

> <CNNscore>
0.5962206125

> <CNNaffinity>
5.0878667831

> <CNN_VS>
3.0334911346

> <CNNaffinity_variance>
0.0765737742

$$$$
[H]c1nc([H])c2c([H])c([H])c([H])c(N([H])C(=O)N([H])[C@@]([H])(c3c([H])c([H])c(C(F)(F)F)c([H])c3[H])C([H])([H])[H])c2c1[H]


 28 30  0  0  0  0  0  0  0  0999 V2000
  153.1839  137.7156  184.8236 N   0  0  0  0  0  0  0  0  0  0  0  0
  152.7705  137.8084  183.4905 C   0  0  0  0  0  0  0  0  0  0  0  0
  153.0899  136.8549  182.7400 O   0  0  0  0  0  0  0  0  0  0  0  0
  152.0364  138.9008  183.0317 N   0  0  0  0  0  0  0  0  0  0  0  0
  152.8831  138.5352  185.4632 H   0  0  0  0  0  0  0  0  0  0  0  0
  151.9106  139.6716  183.7829 H   0  0  0  0  0  0  0  0  0  0  0  0
  151.4392  139.1776  181.8046 C   0  0  0  0  0  0  0  0  0  0  0  0
  152.1675  139.7603  180.7762 C   0  0  0  0  0  0  0  0  0  0  0  0
  151.6358  139.9455  179.5103 C   0  0  0  0  0  0  0  0  0  0  0  0
  150.3491  139.5424  179.2602 C   0  0  0  0  0  0  0  0  0  0  0  0
  149.6050  138.9644  180.2644 C   0  0  0  0  0  0  0  0  0  0  0  0
  148.3067  138.5962  179.9607 C   0  0  0  0  0  0  0  0  0  0  0  0
  147.5576  138.0524  180.9125 N   0  0  0  0  0  0  0  0  0  0  0  0
  148.0307  137.8569  182.1468 C   0  0  0  0  0  0  0  0  0  0  0  0
  149.3309  138.2250  182.4531 C   0  0  0  0  0  0  0  0  0  0  0  0
  150.1360  138.7840  181.5106 C   0  0  0  0  0  0  0  0  0  0  0  0
  153.1581  135.3959  185.6786 C   0  0  0  0  0  0  0  0  0  0  0  0
  153.9393  136.7214  185.5062 C   0  0  0  0  0  0  0  0  0  0  0  0
  154.3453  137.1822  186.8442 C   0  0  0  0  0  0  0  0  0  0  0  0
  155.3490  136.4823  187.5266 C   0  0  0  0  0  0  0  0  0  0  0  0
  155.7102  136.8426  188.7994 C   0  0  0  0  0  0  0  0  0  0  0  0
  155.1134  137.8792  189.4448 C   0  0  0  0  0  0  0  0  0  0  0  0
  154.1187  138.5906  188.7988 C   0  0  0  0  0  0  0  0  0  0  0  0
  153.7541  138.2319  187.5158 C   0  0  0  0  0  0  0  0  0  0  0  0
  155.5439  138.2366  190.8268 C   0  0  0  0  0  0  0  0  0  0  0  0
  155.1891  137.2843  191.7340 F   0  0  0  0  0  0  0  0  0  0  0  0
  154.9538  139.4685  191.1356 F   0  0  0  0  0  0  0  0  0  0  0  0
  156.9377  138.3913  190.8475 F   0  0  0  0  0  0  0  0  0  0  0  0
 17 18  1  0  0  0
 18  1  1  0  0  0
  1  2  1  0  0  0
  2  3  2  0  0  0
  2  4  1  0  0  0
  4  7  1  0  0  0
  7  8  2  0  0  0
  8  9  1  0  0  0
  9 10  2  0  0  0
 10 11  1  0  0  0
 11 12  2  0  0  0
 12 13  1  0  0  0
 13 14  2  0  0  0
 14 15  1  0  0  0
 15 16  2  0  0  0
 18 19  1  0  0  0
 19 20  2  0  0  0
 20 21  1  0  0  0
 21 22  2  0  0  0
 22 23  1  0  0  0
 23 24  2  0  0  0
 22 25  1  0  0  0
 25 26  1  0  0  0
 25 27  1  0  0  0
 25 28  1  0  0  0
 16  7  1  0  0  0
 24 19  1  0  0  0
 16 11  1  0  0  0
  1  5  1  0  0  0
  4  6  1  0  0  0
M  END
> <minimizedAffinity>
-7.51824

> <CNNscore>
0.4965273440

> <CNNaffinity>
5.0903291702

> <CNN_VS>
2.5274875164

> <CNNaffinity_variance>
0.1279571056

$$$$
[H]c1nc([H])c2c([H])c([H])c([H])c(N([H])C(=O)N([H])[C@@]([H])(c3c([H])c([H])c(C(F)(F)F)c([H])c3[H])C([H])([H])[H])c2c1[H]


 28 30  0  0  0  0  0  0  0  0999 V2000
  156.9607  142.6102  182.4781 N   0  0  0  0  0  0  0  0  0  0  0  0
  156.3798  141.3378  182.4785 C   0  0  0  0  0  0  0  0  0  0  0  0
  157.0911  140.3999  182.0437 O   0  0  0  0  0  0  0  0  0  0  0  0
  155.0833  141.1309  182.9467 N   0  0  0  0  0  0  0  0  0  0  0  0
  156.3427  143.4050  182.8752 H   0  0  0  0  0  0  0  0  0  0  0  0
  154.5780  142.0515  183.2138 H   0  0  0  0  0  0  0  0  0  0  0  0
  154.3306  139.9748  183.1363 C   0  0  0  0  0  0  0  0  0  0  0  0
  154.6201  139.1022  184.1766 C   0  0  0  0  0  0  0  0  0  0  0  0
  153.8238  138.0045  184.4602 C   0  0  0  0  0  0  0  0  0  0  0  0
  152.7132  137.7677  183.6913 C   0  0  0  0  0  0  0  0  0  0  0  0
  152.4062  138.6170  182.6518 C   0  0  0  0  0  0  0  0  0  0  0  0
  151.2860  138.3177  181.8974 C   0  0  0  0  0  0  0  0  0  0  0  0
  150.9733  139.1074  180.8769 N   0  0  0  0  0  0  0  0  0  0  0  0
  151.7144  140.1755  180.5683 C   0  0  0  0  0  0  0  0  0  0  0  0
  152.8368  140.4771  181.3227 C   0  0  0  0  0  0  0  0  0  0  0  0
  153.1956  139.6983  182.3780 C   0  0  0  0  0  0  0  0  0  0  0  0
  158.8345  142.1694  180.9265 C   0  0  0  0  0  0  0  0  0  0  0  0
  158.2399  143.0592  182.0453 C   0  0  0  0  0  0  0  0  0  0  0  0
  159.2026  143.0863  183.1588 C   0  0  0  0  0  0  0  0  0  0  0  0
  159.3278  141.9540  183.9744 C   0  0  0  0  0  0  0  0  0  0  0  0
  160.1673  141.9632  185.0586 C   0  0  0  0  0  0  0  0  0  0  0  0
  160.9008  143.0600  185.3846 C   0  0  0  0  0  0  0  0  0  0  0  0
  160.7999  144.1944  184.5998 C   0  0  0  0  0  0  0  0  0  0  0  0
  159.9570  144.1877  183.5056 C   0  0  0  0  0  0  0  0  0  0  0  0
  161.8039  143.0203  186.5703 C   0  0  0  0  0  0  0  0  0  0  0  0
  163.0289  142.5105  186.2617 F   0  0  0  0  0  0  0  0  0  0  0  0
  161.1679  142.2424  187.5458 F   0  0  0  0  0  0  0  0  0  0  0  0
  161.9626  144.3212  187.0699 F   0  0  0  0  0  0  0  0  0  0  0  0
 17 18  1  0  0  0
 18  1  1  0  0  0
  1  2  1  0  0  0
  2  3  2  0  0  0
  2  4  1  0  0  0
  4  7  1  0  0  0
  7  8  2  0  0  0
  8  9  1  0  0  0
  9 10  2  0  0  0
 10 11  1  0  0  0
 11 12  2  0  0  0
 12 13  1  0  0  0
 13 14  2  0  0  0
 14 15  1  0  0  0
 15 16  2  0  0  0
 18 19  1  0  0  0
 19 20  2  0  0  0
 20 21  1  0  0  0
 21 22  2  0  0  0
 22 23  1  0  0  0
 23 24  2  0  0  0
 22 25  1  0  0  0
 25 26  1  0  0  0
 25 27  1  0  0  0
 25 28  1  0  0  0
 16  7  1  0  0  0
 24 19  1  0  0  0
 16 11  1  0  0  0
  1  5  1  0  0  0
  4  6  1  0  0  0
M  END
> <minimizedAffinity>
-9.89666

> <CNNscore>
0.4874552488

> <CNNaffinity>
6.4386129379

> <CNN_VS>
3.1385357380

> <CNNaffinity_variance>
0.2211977541

$$$$
[H]c1nc([H])c2c([H])c([H])c([H])c(N([H])C(=O)N([H])[C@@]([H])(c3c([H])c([H])c(C(F)(F)F)c([H])c3[H])C([H])([H])[H])c2c1[H]


 28 30  0  0  0  0  0  0  0  0999 V2000
  155.6972  140.0133  183.5131 N   0  0  0  0  0  0  0  0  0  0  0  0
  156.2749  141.2872  183.5164 C   0  0  0  0  0  0  0  0  0  0  0  0
  155.6181  142.1960  184.0798 O   0  0  0  0  0  0  0  0  0  0  0  0
  157.5175  141.5232  182.9306 N   0  0  0  0  0  0  0  0  0  0  0  0
  156.2847  139.2361  183.0420 H   0  0  0  0  0  0  0  0  0  0  0  0
  157.9165  140.6544  182.4205 H   0  0  0  0  0  0  0  0  0  0  0  0
  158.3309  142.6525  182.8853 C   0  0  0  0  0  0  0  0  0  0  0  0
  158.1016  143.6554  181.9532 C   0  0  0  0  0  0  0  0  0  0  0  0
  158.8203  144.8399  181.9539 C   0  0  0  0  0  0  0  0  0  0  0  0
  159.7907  145.0324  182.9036 C   0  0  0  0  0  0  0  0  0  0  0  0
  160.0392  144.0515  183.8375 C   0  0  0  0  0  0  0  0  0  0  0  0
  161.0431  144.2915  184.7583 C   0  0  0  0  0  0  0  0  0  0  0  0
  161.3190  143.3576  185.6608 N   0  0  0  0  0  0  0  0  0  0  0  0
  160.6510  142.2009  185.6947 C   0  0  0  0  0  0  0  0  0  0  0  0
  159.6450  141.9584  184.7733 C   0  0  0  0  0  0  0  0  0  0  0  0
  159.3261  142.8857  183.8313 C   0  0  0  0  0  0  0  0  0  0  0  0
  154.5860  138.1664  184.7242 C   0  0  0  0  0  0  0  0  0  0  0  0
  154.4565  139.5428  184.0274 C   0  0  0  0  0  0  0  0  0  0  0  0
  153.4491  139.4151  182.9615 C   0  0  0  0  0  0  0  0  0  0  0  0
  153.2807  140.4723  182.0576 C   0  0  0  0  0  0  0  0  0  0  0  0
  152.3102  140.4169  181.0905 C   0  0  0  0  0  0  0  0  0  0  0  0
  151.4790  139.3480  180.9733 C   0  0  0  0  0  0  0  0  0  0  0  0
  151.6189  138.2877  181.8503 C   0  0  0  0  0  0  0  0  0  0  0  0
  152.5971  138.3391  182.8240 C   0  0  0  0  0  0  0  0  0  0  0  0
  150.4419  139.3313  179.9022 C   0  0  0  0  0  0  0  0  0  0  0  0
  150.1722  138.0668  179.4729 F   0  0  0  0  0  0  0  0  0  0  0  0
  150.9213  140.1257  178.8532 F   0  0  0  0  0  0  0  0  0  0  0  0
  149.2627  139.9078  180.3962 F   0  0  0  0  0  0  0  0  0  0  0  0
 17 18  1  0  0  0
 18  1  1  0  0  0
  1  2  1  0  0  0
  2  3  2  0  0  0
  2  4  1  0  0  0
  4  7  1  0  0  0
  7  8  2  0  0  0
  8  9  1  0  0  0
  9 10  2  0  0  0
 10 11  1  0  0  0
 11 12  2  0  0  0
 12 13  1  0  0  0
 13 14  2  0  0  0
 14 15  1  0  0  0
 15 16  2  0  0  0
 18 19  1  0  0  0
 19 20  2  0  0  0
 20 21  1  0  0  0
 21 22  2  0  0  0
 22 23  1  0  0  0
 23 24  2  0  0  0
 22 25  1  0  0  0
 25 26  1  0  0  0
 25 27  1  0  0  0
 25 28  1  0  0  0
 16  7  1  0  0  0
 24 19  1  0  0  0
 16 11  1  0  0  0
  1  5  1  0  0  0
  4  6  1  0  0  0
M  END
> <minimizedAffinity>
-9.27624

> <CNNscore>
0.4520258307

> <CNNaffinity>
6.1240320206

> <CNN_VS>
2.7682206631

> <CNNaffinity_variance>
0.0562685058

$$$$
[H]c1nc([H])c2c([H])c([H])c([H])c(N([H])C(=O)N([H])[C@@]([H])(c3c([H])c([H])c(C(F)(F)F)c([H])c3[H])C([H])([H])[H])c2c1[H]


 28 30  0  0  0  0  0  0  0  0999 V2000
  155.0135  139.3914  184.8483 N   0  0  0  0  0  0  0  0  0  0  0  0
  156.2332  139.9280  184.4228 C   0  0  0  0  0  0  0  0  0  0  0  0
  157.2318  139.1719  184.4984 O   0  0  0  0  0  0  0  0  0  0  0  0
  156.3234  141.2305  183.9346 N   0  0  0  0  0  0  0  0  0  0  0  0
  154.1582  140.0483  184.7575 H   0  0  0  0  0  0  0  0  0  0  0  0
  155.3894  141.7750  184.0071 H   0  0  0  0  0  0  0  0  0  0  0  0
  157.3766  141.9485  183.3742 C   0  0  0  0  0  0  0  0  0  0  0  0
  157.2930  142.4346  182.0764 C   0  0  0  0  0  0  0  0  0  0  0  0
  158.2737  143.2460  181.5293 C   0  0  0  0  0  0  0  0  0  0  0  0
  159.3642  143.5821  182.2898 C   0  0  0  0  0  0  0  0  0  0  0  0
  159.4719  143.1103  183.5789 C   0  0  0  0  0  0  0  0  0  0  0  0
  160.6030  143.4646  184.2921 C   0  0  0  0  0  0  0  0  0  0  0  0
  160.7448  143.0110  185.5318 N   0  0  0  0  0  0  0  0  0  0  0  0
  159.8237  142.2254  186.0972 C   0  0  0  0  0  0  0  0  0  0  0  0
  158.6899  141.8693  185.3846 C   0  0  0  0  0  0  0  0  0  0  0  0
  158.5005  142.3109  184.1126 C   0  0  0  0  0  0  0  0  0  0  0  0
  153.2333  137.6886  185.0577 C   0  0  0  0  0  0  0  0  0  0  0  0
  154.6847  138.1157  185.3862 C   0  0  0  0  0  0  0  0  0  0  0  0
  154.8396  138.0959  186.8501 C   0  0  0  0  0  0  0  0  0  0  0  0
  153.7580  138.4841  187.6516 C   0  0  0  0  0  0  0  0  0  0  0  0
  153.8836  138.5391  189.0160 C   0  0  0  0  0  0  0  0  0  0  0  0
  155.0504  138.2266  189.6389 C   0  0  0  0  0  0  0  0  0  0  0  0
  156.1375  137.8398  188.8763 C   0  0  0  0  0  0  0  0  0  0  0  0
  156.0137  137.7809  187.5019 C   0  0  0  0  0  0  0  0  0  0  0  0
  155.1371  138.2966  191.1257 C   0  0  0  0  0  0  0  0  0  0  0  0
  154.1953  137.5186  191.7288 F   0  0  0  0  0  0  0  0  0  0  0  0
  154.9813  139.6414  191.4839 F   0  0  0  0  0  0  0  0  0  0  0  0
  156.4102  137.8708  191.5316 F   0  0  0  0  0  0  0  0  0  0  0  0
 17 18  1  0  0  0
 18  1  1  0  0  0
  1  2  1  0  0  0
  2  3  2  0  0  0
  2  4  1  0  0  0
  4  7  1  0  0  0
  7  8  2  0  0  0
  8  9  1  0  0  0
  9 10  2  0  0  0
 10 11  1  0  0  0
 11 12  2  0  0  0
 12 13  1  0  0  0
 13 14  2  0  0  0
 14 15  1  0  0  0
 15 16  2  0  0  0
 18 19  1  0  0  0
 19 20  2  0  0  0
 20 21  1  0  0  0
 21 22  2  0  0  0
 22 23  1  0  0  0
 23 24  2  0  0  0
 22 25  1  0  0  0
 25 26  1  0  0  0
 25 27  1  0  0  0
 25 28  1  0  0  0
 16  7  1  0  0  0
 24 19  1  0  0  0
 16 11  1  0  0  0
  1  5  1  0  0  0
  4  6  1  0  0  0
M  END
> <minimizedAffinity>
-9.23149

> <CNNscore>
0.4295904040

> <CNNaffinity>
5.8990917206

> <CNN_VS>
2.5341932774

> <CNNaffinity_variance>
0.0772532374

$$$$
[H]c1nc([H])c2c([H])c([H])c([H])c(N([H])C(=O)N([H])[C@@]([H])(c3c([H])c([H])c(C(F)(F)F)c([H])c3[H])C([H])([H])[H])c2c1[H]


 28 30  0  0  0  0  0  0  0  0999 V2000
  153.8973  140.1622  182.0233 N   0  0  0  0  0  0  0  0  0  0  0  0
  154.8398  141.0669  182.5231 C   0  0  0  0  0  0  0  0  0  0  0  0
  154.6815  141.4374  183.7115 O   0  0  0  0  0  0  0  0  0  0  0  0
  155.8993  141.5201  181.7389 N   0  0  0  0  0  0  0  0  0  0  0  0
  154.0590  139.8360  181.0041 H   0  0  0  0  0  0  0  0  0  0  0  0
  155.8495  141.1670  180.7157 H   0  0  0  0  0  0  0  0  0  0  0  0
  156.9969  142.3275  182.0259 C   0  0  0  0  0  0  0  0  0  0  0  0
  156.9817  143.6813  181.7186 C   0  0  0  0  0  0  0  0  0  0  0  0
  158.0093  144.5326  182.0912 C   0  0  0  0  0  0  0  0  0  0  0  0
  159.0781  144.0266  182.7855 C   0  0  0  0  0  0  0  0  0  0  0  0
  159.1181  142.6865  183.0999 C   0  0  0  0  0  0  0  0  0  0  0  0
  160.2299  142.2278  183.7831 C   0  0  0  0  0  0  0  0  0  0  0  0
  160.3067  140.9372  184.0854 N   0  0  0  0  0  0  0  0  0  0  0  0
  159.3386  140.0817  183.7441 C   0  0  0  0  0  0  0  0  0  0  0  0
  158.2240  140.5391  183.0597 C   0  0  0  0  0  0  0  0  0  0  0  0
  158.1007  141.8525  182.7299 C   0  0  0  0  0  0  0  0  0  0  0  0
  153.0542  138.2325  183.3186 C   0  0  0  0  0  0  0  0  0  0  0  0
  152.7448  139.5795  182.6211 C   0  0  0  0  0  0  0  0  0  0  0  0
  151.6886  139.3385  181.6243 C   0  0  0  0  0  0  0  0  0  0  0  0
  150.6648  138.4313  181.9273 C   0  0  0  0  0  0  0  0  0  0  0  0
  149.6986  138.1332  181.0010 C   0  0  0  0  0  0  0  0  0  0  0  0
  149.6972  138.6962  179.7640 C   0  0  0  0  0  0  0  0  0  0  0  0
  150.6943  139.5958  179.4332 C   0  0  0  0  0  0  0  0  0  0  0  0
  151.6676  139.9003  180.3647 C   0  0  0  0  0  0  0  0  0  0  0  0
  148.6224  138.3445  178.7923 C   0  0  0  0  0  0  0  0  0  0  0  0
  148.9075  138.7844  177.5349 F   0  0  0  0  0  0  0  0  0  0  0  0
  147.4356  138.9166  179.2670 F   0  0  0  0  0  0  0  0  0  0  0  0
  148.4667  136.9510  178.7650 F   0  0  0  0  0  0  0  0  0  0  0  0
 17 18  1  0  0  0
 18  1  1  0  0  0
  1  2  1  0  0  0
  2  3  2  0  0  0
  2  4  1  0  0  0
  4  7  1  0  0  0
  7  8  2  0  0  0
  8  9  1  0  0  0
  9 10  2  0  0  0
 10 11  1  0  0  0
 11 12  2  0  0  0
 12 13  1  0  0  0
 13 14  2  0  0  0
 14 15  1  0  0  0
 15 16  2  0  0  0
 18 19  1  0  0  0
 19 20  2  0  0  0
 20 21  1  0  0  0
 21 22  2  0  0  0
 22 23  1  0  0  0
 23 24  2  0  0  0
 22 25  1  0  0  0
 25 26  1  0  0  0
 25 27  1  0  0  0
 25 28  1  0  0  0
 16  7  1  0  0  0
 24 19  1  0  0  0
 16 11  1  0  0  0
  1  5  1  0  0  0
  4  6  1  0  0  0
M  END
> <minimizedAffinity>
-9.32214

> <CNNscore>
0.4269872904

> <CNNaffinity>
5.6045289040

> <CNN_VS>
2.3930625916

> <CNNaffinity_variance>
0.0971164256

$$$$
[H]c1nc([H])c2c([H])c([H])c([H])c(N([H])C(=O)N([H])[C@@]([H])(c3c([H])c([H])c(C(F)(F)F)c([H])c3[H])C([H])([H])[H])c2c1[H]


 28 30  0  0  0  0  0  0  0  0999 V2000
  154.2804  138.0589  184.5895 N   0  0  0  0  0  0  0  0  0  0  0  0
  155.4512  138.8239  184.5611 C   0  0  0  0  0  0  0  0  0  0  0  0
  156.2254  138.6949  185.5401 O   0  0  0  0  0  0  0  0  0  0  0  0
  155.7380  139.6742  183.4946 N   0  0  0  0  0  0  0  0  0  0  0  0
  153.6330  138.1652  183.7288 H   0  0  0  0  0  0  0  0  0  0  0  0
  154.9344  139.7296  182.7698 H   0  0  0  0  0  0  0  0  0  0  0  0
  156.8534  140.4506  183.1912 C   0  0  0  0  0  0  0  0  0  0  0  0
  158.1204  139.8850  183.1447 C   0  0  0  0  0  0  0  0  0  0  0  0
  159.2331  140.6032  182.7375 C   0  0  0  0  0  0  0  0  0  0  0  0
  159.0833  141.9153  182.3681 C   0  0  0  0  0  0  0  0  0  0  0  0
  157.8373  142.5002  182.4082 C   0  0  0  0  0  0  0  0  0  0  0  0
  157.7493  143.8318  182.0443 C   0  0  0  0  0  0  0  0  0  0  0  0
  156.5646  144.4296  182.0895 N   0  0  0  0  0  0  0  0  0  0  0  0
  155.4666  143.7742  182.4771 C   0  0  0  0  0  0  0  0  0  0  0  0
  155.5525  142.4403  182.8420 C   0  0  0  0  0  0  0  0  0  0  0  0
  156.7440  141.7858  182.8102 C   0  0  0  0  0  0  0  0  0  0  0  0
  152.2315  137.0503  185.5368 C   0  0  0  0  0  0  0  0  0  0  0  0
  153.7764  137.1479  185.5596 C   0  0  0  0  0  0  0  0  0  0  0  0
  154.1832  137.5355  186.9203 C   0  0  0  0  0  0  0  0  0  0  0  0
  155.2115  136.8217  187.5497 C   0  0  0  0  0  0  0  0  0  0  0  0
  155.5756  137.1119  188.8395 C   0  0  0  0  0  0  0  0  0  0  0  0
  154.9581  138.0901  189.5530 C   0  0  0  0  0  0  0  0  0  0  0  0
  153.9388  138.8134  188.9607 C   0  0  0  0  0  0  0  0  0  0  0  0
  153.5712  138.5253  187.6608 C   0  0  0  0  0  0  0  0  0  0  0  0
  155.3926  138.3725  190.9510 C   0  0  0  0  0  0  0  0  0  0  0  0
  154.9613  139.5904  191.3831 F   0  0  0  0  0  0  0  0  0  0  0  0
  156.7910  138.2999  190.9696 F   0  0  0  0  0  0  0  0  0  0  0  0
  154.8824  137.3793  191.7995 F   0  0  0  0  0  0  0  0  0  0  0  0
 17 18  1  0  0  0
 18  1  1  0  0  0
  1  2  1  0  0  0
  2  3  2  0  0  0
  2  4  1  0  0  0
  4  7  1  0  0  0
  7  8  2  0  0  0
  8  9  1  0  0  0
  9 10  2  0  0  0
 10 11  1  0  0  0
 11 12  2  0  0  0
 12 13  1  0  0  0
 13 14  2  0  0  0
 14 15  1  0  0  0
 15 16  2  0  0  0
 18 19  1  0  0  0
 19 20  2  0  0  0
 20 21  1  0  0  0
 21 22  2  0  0  0
 22 23  1  0  0  0
 23 24  2  0  0  0
 22 25  1  0  0  0
 25 26  1  0  0  0
 25 27  1  0  0  0
 25 28  1  0  0  0
 16  7  1  0  0  0
 24 19  1  0  0  0
 16 11  1  0  0  0
  1  5  1  0  0  0
  4  6  1  0  0  0
M  END
> <minimizedAffinity>
-8.41280

> <CNNscore>
0.4260340631

> <CNNaffinity>
5.7351856232

> <CNN_VS>
2.4433844090

> <CNNaffinity_variance>
0.0697270185

$$$$
[H]c1nc([H])c2c([H])c([H])c([H])c(N([H])C(=O)N([H])[C@@]([H])(c3c([H])c([H])c(C(F)(F)F)c([H])c3[H])C([H])([H])[H])c2c1[H]


 28 30  0  0  0  0  0  0  0  0999 V2000
  154.2996  136.8335  185.2663 N   0  0  0  0  0  0  0  0  0  0  0  0
  154.2661  136.7819  186.6638 C   0  0  0  0  0  0  0  0  0  0  0  0
  153.4019  136.0283  187.1735 O   0  0  0  0  0  0  0  0  0  0  0  0
  155.1544  137.5245  187.4399 N   0  0  0  0  0  0  0  0  0  0  0  0
  155.0636  137.4715  184.8415 H   0  0  0  0  0  0  0  0  0  0  0  0
  155.7836  138.1814  186.8510 H   0  0  0  0  0  0  0  0  0  0  0  0
  155.3822  137.5728  188.8128 C   0  0  0  0  0  0  0  0  0  0  0  0
  154.8611  138.6039  189.5828 C   0  0  0  0  0  0  0  0  0  0  0  0
  154.9742  138.6216  190.9635 C   0  0  0  0  0  0  0  0  0  0  0  0
  155.6211  137.5901  191.5945 C   0  0  0  0  0  0  0  0  0  0  0  0
  156.1493  136.5571  190.8528 C   0  0  0  0  0  0  0  0  0  0  0  0
  156.8088  135.5545  191.5407 C   0  0  0  0  0  0  0  0  0  0  0  0
  157.3446  134.5533  190.8525 N   0  0  0  0  0  0  0  0  0  0  0  0
  157.2595  134.4980  189.5202 C   0  0  0  0  0  0  0  0  0  0  0  0
  156.5993  135.5013  188.8293 C   0  0  0  0  0  0  0  0  0  0  0  0
  156.0335  136.5456  189.4912 C   0  0  0  0  0  0  0  0  0  0  0  0
  154.2818  135.1046  183.4990 C   0  0  0  0  0  0  0  0  0  0  0  0
  153.4999  136.1870  184.2827 C   0  0  0  0  0  0  0  0  0  0  0  0
  152.9665  137.1522  183.3074 C   0  0  0  0  0  0  0  0  0  0  0  0
  152.1574  136.6844  182.2636 C   0  0  0  0  0  0  0  0  0  0  0  0
  151.6937  137.5431  181.3003 C   0  0  0  0  0  0  0  0  0  0  0  0
  152.0000  138.8672  181.3165 C   0  0  0  0  0  0  0  0  0  0  0  0
  152.7969  139.3609  182.3334 C   0  0  0  0  0  0  0  0  0  0  0  0
  153.2636  138.4991  183.3068 C   0  0  0  0  0  0  0  0  0  0  0  0
  151.4679  139.7627  180.2498 C   0  0  0  0  0  0  0  0  0  0  0  0
  151.2331  141.0227  180.7115 F   0  0  0  0  0  0  0  0  0  0  0  0
  150.2900  139.1764  179.7704 F   0  0  0  0  0  0  0  0  0  0  0  0
  152.3949  139.8260  179.1993 F   0  0  0  0  0  0  0  0  0  0  0  0
 17 18  1  0  0  0
 18  1  1  0  0  0
  1  2  1  0  0  0
  2  3  2  0  0  0
  2  4  1  0  0  0
  4  7  1  0  0  0
  7  8  2  0  0  0
  8  9  1  0  0  0
  9 10  2  0  0  0
 10 11  1  0  0  0
 11 12  2  0  0  0
 12 13  1  0  0  0
 13 14  2  0  0  0
 14 15  1  0  0  0
 15 16  2  0  0  0
 18 19  1  0  0  0
 19 20  2  0  0  0
 20 21  1  0  0  0
 21 22  2  0  0  0
 22 23  1  0  0  0
 23 24  2  0  0  0
 22 25  1  0  0  0
 25 26  1  0  0  0
 25 27  1  0  0  0
 25 28  1  0  0  0
 16  7  1  0  0  0
 24 19  1  0  0  0
 16 11  1  0  0  0
  1  5  1  0  0  0
  4  6  1  0  0  0
M  END
> <minimizedAffinity>
-6.84117

> <CNNscore>
0.4013607502

> <CNNaffinity>
5.0041298866

> <CNN_VS>
2.0084612370

> <CNNaffinity_variance>
0.1405207813

$$$$
[H]c1nc([H])c2c([H])c([H])c([H])c(N([H])C(=O)N([H])[C@@]([H])(c3c([H])c([H])c(C(F)(F)F)c([H])c3[H])C([H])([H])[H])c2c1[H]


 28 30  0  0  0  0  0  0  0  0999 V2000
  155.1130  139.2180  184.8132 N   0  0  0  0  0  0  0  0  0  0  0  0
  156.3748  139.7820  184.5982 C   0  0  0  0  0  0  0  0  0  0  0  0
  157.3616  139.0922  184.9517 O   0  0  0  0  0  0  0  0  0  0  0  0
  156.5189  141.0394  184.0141 N   0  0  0  0  0  0  0  0  0  0  0  0
  154.2729  139.8157  184.4843 H   0  0  0  0  0  0  0  0  0  0  0  0
  155.5716  141.5354  183.8388 H   0  0  0  0  0  0  0  0  0  0  0  0
  157.6400  141.7627  183.6156 C   0  0  0  0  0  0  0  0  0  0  0  0
  158.5543  142.2275  184.5513 C   0  0  0  0  0  0  0  0  0  0  0  0
  159.7345  142.8515  184.1809 C   0  0  0  0  0  0  0  0  0  0  0  0
  160.0130  143.0182  182.8486 C   0  0  0  0  0  0  0  0  0  0  0  0
  159.1208  142.5685  181.9010 C   0  0  0  0  0  0  0  0  0  0  0  0
  159.4441  142.7820  180.5731 C   0  0  0  0  0  0  0  0  0  0  0  0
  158.5959  142.3759  179.6357 N   0  0  0  0  0  0  0  0  0  0  0  0
  157.4465  141.7710  179.9492 C   0  0  0  0  0  0  0  0  0  0  0  0
  157.1208  141.5561  181.2788 C   0  0  0  0  0  0  0  0  0  0  0  0
  157.9588  141.9532  182.2733 C   0  0  0  0  0  0  0  0  0  0  0  0
  153.2630  137.5957  185.0549 C   0  0  0  0  0  0  0  0  0  0  0  0
  154.7244  137.9783  185.3939 C   0  0  0  0  0  0  0  0  0  0  0  0
  154.8531  138.0102  186.8601 C   0  0  0  0  0  0  0  0  0  0  0  0
  153.7857  138.5004  187.6239 C   0  0  0  0  0  0  0  0  0  0  0  0
  153.8918  138.6046  188.9870 C   0  0  0  0  0  0  0  0  0  0  0  0
  155.0252  138.2442  189.6448 C   0  0  0  0  0  0  0  0  0  0  0  0
  156.0974  137.7566  188.9200 C   0  0  0  0  0  0  0  0  0  0  0  0
  155.9931  137.6480  187.5470 C   0  0  0  0  0  0  0  0  0  0  0  0
  155.0912  138.3709  191.1289 C   0  0  0  0  0  0  0  0  0  0  0  0
  156.2586  137.8803  191.6313 F   0  0  0  0  0  0  0  0  0  0  0  0
  153.9907  137.6793  191.6501 F   0  0  0  0  0  0  0  0  0  0  0  0
  154.9753  139.7239  191.4795 F   0  0  0  0  0  0  0  0  0  0  0  0
 17 18  1  0  0  0
 18  1  1  0  0  0
  1  2  1  0  0  0
  2  3  2  0  0  0
  2  4  1  0  0  0
  4  7  1  0  0  0
  7  8  2  0  0  0
  8  9  1  0  0  0
  9 10  2  0  0  0
 10 11  1  0  0  0
 11 12  2  0  0  0
 12 13  1  0  0  0
 13 14  2  0  0  0
 14 15  1  0  0  0
 15 16  2  0  0  0
 18 19  1  0  0  0
 19 20  2  0  0  0
 20 21  1  0  0  0
 21 22  2  0  0  0
 22 23  1  0  0  0
 23 24  2  0  0  0
 22 25  1  0  0  0
 25 26  1  0  0  0
 25 27  1  0  0  0
 25 28  1  0  0  0
 16  7  1  0  0  0
 24 19  1  0  0  0
 16 11  1  0  0  0
  1  5  1  0  0  0
  4  6  1  0  0  0
M  END
> <minimizedAffinity>
-8.41468

> <CNNscore>
0.3982379138

> <CNNaffinity>
5.7879638672

> <CNN_VS>
2.3049867153

> <CNNaffinity_variance>
0.0743507072

$$$$
[H]c1nc(N2C([H])([H])C([H])([H])c3nc(N4C([H])([H])C([H])([H])OC([H])([H])C4([H])[H])nc(N([H])c4c([H])c([H])c(C(F)(F)F)c(Cl)c4[H])c3C([H])([H])C2([H])[H])c(C(F)(F)F)c([H])c1[H]


 40 44  0  0  0  0  0  0  0  0999 V2000
  154.3734  138.7020  184.3726 C   0  0  0  0  0  0  0  0  0  0  0  0
  155.4275  139.5230  184.3870 N   0  0  0  0  0  0  0  0  0  0  0  0
  155.7318  140.4673  183.4991 C   0  0  0  0  0  0  0  0  0  0  0  0
  154.8709  140.6021  182.4735 N   0  0  0  0  0  0  0  0  0  0  0  0
  153.7835  139.8213  182.3745 C   0  0  0  0  0  0  0  0  0  0  0  0
  152.9497  140.1939  181.1770 C   0  0  0  0  0  0  0  0  0  0  0  0
  151.5214  140.3624  181.7003 C   0  0  0  0  0  0  0  0  0  0  0  0
  150.9410  139.0611  181.8682 N   0  0  0  0  0  0  0  0  0  0  0  0
  151.6502  137.8283  182.0293 C   0  0  0  0  0  0  0  0  0  0  0  0
  152.3751  137.8527  183.3595 C   0  0  0  0  0  0  0  0  0  0  0  0
  153.4886  138.8557  183.2932 C   0  0  0  0  0  0  0  0  0  0  0  0
  149.5274  138.9398  181.8715 C   0  0  0  0  0  0  0  0  0  0  0  0
  148.8490  138.9588  183.0580 N   0  0  0  0  0  0  0  0  0  0  0  0
  147.5367  138.8813  183.1507 C   0  0  0  0  0  0  0  0  0  0  0  0
  146.8118  138.7758  181.9919 C   0  0  0  0  0  0  0  0  0  0  0  0
  147.4496  138.7526  180.7816 C   0  0  0  0  0  0  0  0  0  0  0  0
  148.8406  138.8342  180.6853 C   0  0  0  0  0  0  0  0  0  0  0  0
  149.4561  138.7696  179.3456 C   0  0  0  0  0  0  0  0  0  0  0  0
  148.4075  138.6791  178.4106 F   0  0  0  0  0  0  0  0  0  0  0  0
  150.1921  137.6182  179.1327 F   0  0  0  0  0  0  0  0  0  0  0  0
  150.1419  139.8990  178.9679 F   0  0  0  0  0  0  0  0  0  0  0  0
  156.8984  141.2827  183.6297 N   0  0  0  0  0  0  0  0  0  0  0  0
  157.7816  141.0557  184.7352 C   0  0  0  0  0  0  0  0  0  0  0  0
  159.1842  141.4358  184.2976 C   0  0  0  0  0  0  0  0  0  0  0  0
  159.1449  142.7358  183.8408 O   0  0  0  0  0  0  0  0  0  0  0  0
  158.5475  142.7658  182.5779 C   0  0  0  0  0  0  0  0  0  0  0  0
  157.1117  142.2985  182.6205 C   0  0  0  0  0  0  0  0  0  0  0  0
  154.0941  137.7556  185.3636 N   0  0  0  0  0  0  0  0  0  0  0  0
  153.6133  136.8625  185.0675 H   0  0  0  0  0  0  0  0  0  0  0  0
  155.0799  137.9952  189.4650 C   0  0  0  0  0  0  0  0  0  0  0  0
  154.0257  138.7367  188.9924 C   0  0  0  0  0  0  0  0  0  0  0  0
  153.6836  138.6591  187.6334 C   0  0  0  0  0  0  0  0  0  0  0  0
  154.3554  137.8738  186.7458 C   0  0  0  0  0  0  0  0  0  0  0  0
  155.4288  137.1330  187.2825 C   0  0  0  0  0  0  0  0  0  0  0  0
  155.7855  137.1833  188.5851 C   0  0  0  0  0  0  0  0  0  0  0  0
  157.1182  136.2678  189.2674 Cl  0  0  0  0  0  0  0  0  0  0  0  0
  155.0388  136.9392  191.5352 F   0  0  0  0  0  0  0  0  0  0  0  0
  155.4478  138.0694  190.8912 C   0  0  0  0  0  0  0  0  0  0  0  0
  154.8064  139.1458  191.5173 F   0  0  0  0  0  0  0  0  0  0  0  0
  156.8282  138.2354  191.0553 F   0  0  0  0  0  0  0  0  0  0  0  0
 37 38  1  0  0  0
 38 39  1  0  0  0
 38 40  1  0  0  0
 38 30  1  0  0  0
 30 31  2  0  0  0
 31 32  1  0  0  0
 32 33  2  0  0  0
 33 28  1  0  0  0
 28  1  1  0  0  0
  1  2  2  0  0  0
  2  3  1  0  0  0
  3  4  2  0  0  0
  4  5  1  0  0  0
  5  6  1  0  0  0
  6  7  1  0  0  0
  7  8  1  0  0  0
  8  9  1  0  0  0
  9 10  1  0  0  0
 10 11  1  0  0  0
  8 12  1  0  0  0
 12 13  2  0  0  0
 13 14  1  0  0  0
 14 15  2  0  0  0
 15 16  1  0  0  0
 16 17  2  0  0  0
 17 18  1  0  0  0
 18 19  1  0  0  0
 18 20  1  0  0  0
 18 21  1  0  0  0
  3 22  1  0  0  0
 22 23  1  0  0  0
 23 24  1  0  0  0
 24 25  1  0  0  0
 25 26  1  0  0  0
 26 27  1  0  0  0
 33 34  1  0  0  0
 34 35  2  0  0  0
 35 36  1  0  0  0
 35 30  1  0  0  0
 11  1  1  0  0  0
 17 12  1  0  0  0
 27 22  1  0  0  0
 11  5  2  0  0  0
 28 29  1  0  0  0
M  END
> <minimizedAffinity>
-9.73980

> <CNNscore>
0.4168921709

> <CNNaffinity>
7.0179796219

> <CNN_VS>
2.9257407188

> <CNNaffinity_variance>
0.0226146709

$$$$
[H]c1nc(N2C([H])([H])C([H])([H])c3nc(N4C([H])([H])C([H])([H])OC([H])([H])C4([H])[H])nc(N([H])c4c([H])c([H])c(C(F)(F)F)c(Cl)c4[H])c3C([H])([H])C2([H])[H])c(C(F)(F)F)c([H])c1[H]


 40 44  0  0  0  0  0  0  0  0999 V2000
  154.6601  138.5674  184.5054 C   0  0  0  0  0  0  0  0  0  0  0  0
  153.8376  138.9076  183.5088 N   0  0  0  0  0  0  0  0  0  0  0  0
  152.6325  138.4064  183.2452 C   0  0  0  0  0  0  0  0  0  0  0  0
  152.2033  137.4478  184.0867 N   0  0  0  0  0  0  0  0  0  0  0  0
  152.9610  137.0401  185.1170 C   0  0  0  0  0  0  0  0  0  0  0  0
  152.2486  136.0016  185.9428 C   0  0  0  0  0  0  0  0  0  0  0  0
  152.3453  136.4840  187.3920 C   0  0  0  0  0  0  0  0  0  0  0  0
  153.6552  136.1748  187.8889 N   0  0  0  0  0  0  0  0  0  0  0  0
  154.8293  135.9424  187.1037 C   0  0  0  0  0  0  0  0  0  0  0  0
  155.2201  137.2349  186.4163 C   0  0  0  0  0  0  0  0  0  0  0  0
  154.1961  137.5634  185.3705 C   0  0  0  0  0  0  0  0  0  0  0  0
  153.8463  136.0710  189.2909 C   0  0  0  0  0  0  0  0  0  0  0  0
  153.5587  134.8965  189.9283 N   0  0  0  0  0  0  0  0  0  0  0  0
  153.7337  134.7045  191.2203 C   0  0  0  0  0  0  0  0  0  0  0  0
  154.2322  135.7410  191.9663 C   0  0  0  0  0  0  0  0  0  0  0  0
  154.5336  136.9348  191.3697 C   0  0  0  0  0  0  0  0  0  0  0  0
  154.3468  137.1368  190.0004 C   0  0  0  0  0  0  0  0  0  0  0  0
  154.6647  138.4632  189.4371 C   0  0  0  0  0  0  0  0  0  0  0  0
  154.7353  139.3662  190.5148 F   0  0  0  0  0  0  0  0  0  0  0  0
  153.6601  138.9771  188.6376 F   0  0  0  0  0  0  0  0  0  0  0  0
  155.8996  138.5591  188.8416 F   0  0  0  0  0  0  0  0  0  0  0  0
  151.8488  138.8592  182.1391 N   0  0  0  0  0  0  0  0  0  0  0  0
  152.3836  139.8751  181.2813 C   0  0  0  0  0  0  0  0  0  0  0  0
  151.8109  139.6619  179.8921 C   0  0  0  0  0  0  0  0  0  0  0  0
  150.4366  139.6547  180.0000 O   0  0  0  0  0  0  0  0  0  0  0  0
  150.0211  138.4412  180.5547 C   0  0  0  0  0  0  0  0  0  0  0  0
  150.5475  138.2514  181.9578 C   0  0  0  0  0  0  0  0  0  0  0  0
  155.9008  139.1659  184.7464 N   0  0  0  0  0  0  0  0  0  0  0  0
  156.4180  138.8864  185.6245 H   0  0  0  0  0  0  0  0  0  0  0  0
  158.0154  142.0015  182.4359 C   0  0  0  0  0  0  0  0  0  0  0  0
  156.6561  141.8965  182.2748 C   0  0  0  0  0  0  0  0  0  0  0  0
  155.9417  140.9637  183.0427 C   0  0  0  0  0  0  0  0  0  0  0  0
  156.5380  140.1444  183.9532 C   0  0  0  0  0  0  0  0  0  0  0  0
  157.9347  140.2929  184.0797 C   0  0  0  0  0  0  0  0  0  0  0  0
  158.6539  141.1801  183.3573 C   0  0  0  0  0  0  0  0  0  0  0  0
  160.3917  141.3764  183.5036 Cl  0  0  0  0  0  0  0  0  0  0  0  0
  159.4059  143.8638  182.4572 F   0  0  0  0  0  0  0  0  0  0  0  0
  158.7756  142.9782  181.6341 C   0  0  0  0  0  0  0  0  0  0  0  0
  157.9201  143.7261  180.8151 F   0  0  0  0  0  0  0  0  0  0  0  0
  159.7147  142.3443  180.8116 F   0  0  0  0  0  0  0  0  0  0  0  0
 37 38  1  0  0  0
 38 39  1  0  0  0
 38 40  1  0  0  0
 38 30  1  0  0  0
 30 31  2  0  0  0
 31 32  1  0  0  0
 32 33  2  0  0  0
 33 28  1  0  0  0
 28  1  1  0  0  0
  1  2  2  0  0  0
  2  3  1  0  0  0
  3  4  2  0  0  0
  4  5  1  0  0  0
  5  6  1  0  0  0
  6  7  1  0  0  0
  7  8  1  0  0  0
  8  9  1  0  0  0
  9 10  1  0  0  0
 10 11  1  0  0  0
  8 12  1  0  0  0
 12 13  2  0  0  0
 13 14  1  0  0  0
 14 15  2  0  0  0
 15 16  1  0  0  0
 16 17  2  0  0  0
 17 18  1  0  0  0
 18 19  1  0  0  0
 18 20  1  0  0  0
 18 21  1  0  0  0
  3 22  1  0  0  0
 22 23  1  0  0  0
 23 24  1  0  0  0
 24 25  1  0  0  0
 25 26  1  0  0  0
 26 27  1  0  0  0
 33 34  1  0  0  0
 34 35  2  0  0  0
 35 36  1  0  0  0
 35 30  1  0  0  0
 11  1  1  0  0  0
 17 12  1  0  0  0
 27 22  1  0  0  0
 11  5  2  0  0  0
 28 29  1  0  0  0
M  END
> <minimizedAffinity>
-9.60454

> <CNNscore>
0.4166674912

> <CNNaffinity>
7.0679564476

> <CNN_VS>
2.9449877739

> <CNNaffinity_variance>
0.0688164160

$$$$
[H]c1nc(N2C([H])([H])C([H])([H])c3nc(N4C([H])([H])C([H])([H])OC([H])([H])C4([H])[H])nc(N([H])c4c([H])c([H])c(C(F)(F)F)c(Cl)c4[H])c3C([H])([H])C2([H])[H])c(C(F)(F)F)c([H])c1[H]


 40 44  0  0  0  0  0  0  0  0999 V2000
  154.7260  138.7113  184.4695 C   0  0  0  0  0  0  0  0  0  0  0  0
  153.8841  139.0513  183.4892 N   0  0  0  0  0  0  0  0  0  0  0  0
  152.6958  138.5149  183.2187 C   0  0  0  0  0  0  0  0  0  0  0  0
  152.3079  137.5166  184.0336 N   0  0  0  0  0  0  0  0  0  0  0  0
  153.0878  137.1058  185.0459 C   0  0  0  0  0  0  0  0  0  0  0  0
  152.4197  136.0179  185.8446 C   0  0  0  0  0  0  0  0  0  0  0  0
  152.5102  136.4596  187.3071 C   0  0  0  0  0  0  0  0  0  0  0  0
  153.8343  136.1832  187.7856 N   0  0  0  0  0  0  0  0  0  0  0  0
  155.0098  136.0173  186.9859 C   0  0  0  0  0  0  0  0  0  0  0  0
  155.3484  137.3431  186.3354 C   0  0  0  0  0  0  0  0  0  0  0  0
  154.3052  137.6657  185.3069 C   0  0  0  0  0  0  0  0  0  0  0  0
  154.0398  136.0443  189.1825 C   0  0  0  0  0  0  0  0  0  0  0  0
  153.8192  134.8362  189.7825 N   0  0  0  0  0  0  0  0  0  0  0  0
  154.0127  134.6119  191.0667 C   0  0  0  0  0  0  0  0  0  0  0  0
  154.4604  135.6487  191.8438 C   0  0  0  0  0  0  0  0  0  0  0  0
  154.6940  136.8757  191.2851 C   0  0  0  0  0  0  0  0  0  0  0  0
  154.4878  137.1118  189.9240 C   0  0  0  0  0  0  0  0  0  0  0  0
  154.7310  138.4708  189.4030 C   0  0  0  0  0  0  0  0  0  0  0  0
  154.7785  139.3382  190.5108 F   0  0  0  0  0  0  0  0  0  0  0  0
  153.6881  138.9627  188.6396 F   0  0  0  0  0  0  0  0  0  0  0  0
  155.9484  138.6471  188.7903 F   0  0  0  0  0  0  0  0  0  0  0  0
  151.8877  138.9721  182.1320 N   0  0  0  0  0  0  0  0  0  0  0  0
  152.4281  139.9444  181.2285 C   0  0  0  0  0  0  0  0  0  0  0  0
  151.7932  139.7209  179.8682 C   0  0  0  0  0  0  0  0  0  0  0  0
  150.4251  139.7720  180.0288 O   0  0  0  0  0  0  0  0  0  0  0  0
  149.9841  138.5901  180.6301 C   0  0  0  0  0  0  0  0  0  0  0  0
  150.5573  138.4132  182.0164 C   0  0  0  0  0  0  0  0  0  0  0  0
  155.9462  139.3469  184.7204 N   0  0  0  0  0  0  0  0  0  0  0  0
  156.3664  139.2393  185.6839 H   0  0  0  0  0  0  0  0  0  0  0  0
  158.0087  141.9618  182.1205 C   0  0  0  0  0  0  0  0  0  0  0  0
  158.4995  140.6941  182.3117 C   0  0  0  0  0  0  0  0  0  0  0  0
  157.8184  139.8137  183.1668 C   0  0  0  0  0  0  0  0  0  0  0  0
  156.6780  140.1589  183.8272 C   0  0  0  0  0  0  0  0  0  0  0  0
  156.2166  141.4713  183.5957 C   0  0  0  0  0  0  0  0  0  0  0  0
  156.8465  142.3449  182.7794 C   0  0  0  0  0  0  0  0  0  0  0  0
  156.2849  143.9806  182.4816 Cl  0  0  0  0  0  0  0  0  0  0  0  0
  157.8773  143.3142  180.2348 F   0  0  0  0  0  0  0  0  0  0  0  0
  158.7164  142.8948  181.2243 C   0  0  0  0  0  0  0  0  0  0  0  0
  159.7969  142.2619  180.5965 F   0  0  0  0  0  0  0  0  0  0  0  0
  159.2126  144.0003  181.9255 F   0  0  0  0  0  0  0  0  0  0  0  0
 37 38  1  0  0  0
 38 39  1  0  0  0
 38 40  1  0  0  0
 38 30  1  0  0  0
 30 31  2  0  0  0
 31 32  1  0  0  0
 32 33  2  0  0  0
 33 28  1  0  0  0
 28  1  1  0  0  0
  1  2  2  0  0  0
  2  3  1  0  0  0
  3  4  2  0  0  0
  4  5  1  0  0  0
  5  6  1  0  0  0
  6  7  1  0  0  0
  7  8  1  0  0  0
  8  9  1  0  0  0
  9 10  1  0  0  0
 10 11  1  0  0  0
  8 12  1  0  0  0
 12 13  2  0  0  0
 13 14  1  0  0  0
 14 15  2  0  0  0
 15 16  1  0  0  0
 16 17  2  0  0  0
 17 18  1  0  0  0
 18 19  1  0  0  0
 18 20  1  0  0  0
 18 21  1  0  0  0
  3 22  1  0  0  0
 22 23  1  0  0  0
 23 24  1  0  0  0
 24 25  1  0  0  0
 25 26  1  0  0  0
 26 27  1  0  0  0
 33 34  1  0  0  0
 34 35  2  0  0  0
 35 36  1  0  0  0
 35 30  1  0  0  0
 11  1  1  0  0  0
 17 12  1  0  0  0
 27 22  1  0  0  0
 11  5  2  0  0  0
 28 29  1  0  0  0
M  END
> <minimizedAffinity>
-9.65150

> <CNNscore>
0.3944210410

> <CNNaffinity>
7.0021119118

> <CNN_VS>
2.7617802620

> <CNNaffinity_variance>
0.1215893850

$$$$
[H]c1nc(N2C([H])([H])C([H])([H])c3nc(N4C([H])([H])C([H])([H])OC([H])([H])C4([H])[H])nc(N([H])c4c([H])c([H])c(C(F)(F)F)c(Cl)c4[H])c3C([H])([H])C2([H])[H])c(C(F)(F)F)c([H])c1[H]


 40 44  0  0  0  0  0  0  0  0999 V2000
  153.5506  138.0421  183.9676 C   0  0  0  0  0  0  0  0  0  0  0  0
  152.4648  137.7456  183.2474 N   0  0  0  0  0  0  0  0  0  0  0  0
  151.9055  138.4767  182.2854 C   0  0  0  0  0  0  0  0  0  0  0  0
  152.5128  139.6469  182.0150 N   0  0  0  0  0  0  0  0  0  0  0  0
  153.6097  140.0299  182.6874 C   0  0  0  0  0  0  0  0  0  0  0  0
  154.1355  141.3441  182.1734 C   0  0  0  0  0  0  0  0  0  0  0  0
  155.6258  141.1206  181.9065 C   0  0  0  0  0  0  0  0  0  0  0  0
  156.3261  141.1762  183.1575 N   0  0  0  0  0  0  0  0  0  0  0  0
  155.7643  140.9629  184.4565 C   0  0  0  0  0  0  0  0  0  0  0  0
  155.3428  139.5123  184.5736 C   0  0  0  0  0  0  0  0  0  0  0  0
  154.1680  139.2684  183.6733 C   0  0  0  0  0  0  0  0  0  0  0  0
  157.7123  141.4783  183.1505 C   0  0  0  0  0  0  0  0  0  0  0  0
  158.6141  140.5296  183.5444 N   0  0  0  0  0  0  0  0  0  0  0  0
  159.9188  140.7156  183.5412 C   0  0  0  0  0  0  0  0  0  0  0  0
  160.3979  141.9286  183.1190 C   0  0  0  0  0  0  0  0  0  0  0  0
  159.5312  142.9077  182.7161 C   0  0  0  0  0  0  0  0  0  0  0  0
  158.1487  142.7092  182.7208 C   0  0  0  0  0  0  0  0  0  0  0  0
  157.2782  143.8251  182.3028 C   0  0  0  0  0  0  0  0  0  0  0  0
  158.0164  145.0123  182.4682 F   0  0  0  0  0  0  0  0  0  0  0  0
  156.1774  144.0010  183.1212 F   0  0  0  0  0  0  0  0  0  0  0  0
  156.9384  143.8275  180.9713 F   0  0  0  0  0  0  0  0  0  0  0  0
  150.7358  138.0437  181.5875 N   0  0  0  0  0  0  0  0  0  0  0  0
  150.0689  138.9651  180.7156 C   0  0  0  0  0  0  0  0  0  0  0  0
  149.4124  138.1652  179.6055 C   0  0  0  0  0  0  0  0  0  0  0  0
  148.5951  137.2229  180.1922 O   0  0  0  0  0  0  0  0  0  0  0  0
  149.3787  136.1923  180.7182 C   0  0  0  0  0  0  0  0  0  0  0  0
  150.2972  136.6826  181.8126 C   0  0  0  0  0  0  0  0  0  0  0  0
  154.1078  137.2055  184.9398 N   0  0  0  0  0  0  0  0  0  0  0  0
  154.3970  136.2333  184.6432 H   0  0  0  0  0  0  0  0  0  0  0  0
  154.8947  137.9934  189.0155 C   0  0  0  0  0  0  0  0  0  0  0  0
  153.8347  138.6228  188.4114 C   0  0  0  0  0  0  0  0  0  0  0  0
  153.5585  138.3628  187.0601 C   0  0  0  0  0  0  0  0  0  0  0  0
  154.3008  137.5049  186.3058 C   0  0  0  0  0  0  0  0  0  0  0  0
  155.3768  136.8850  186.9741 C   0  0  0  0  0  0  0  0  0  0  0  0
  155.6713  137.1116  188.2734 C   0  0  0  0  0  0  0  0  0  0  0  0
  157.0065  136.3481  189.1185 Cl  0  0  0  0  0  0  0  0  0  0  0  0
  154.5816  139.4121  190.8297 F   0  0  0  0  0  0  0  0  0  0  0  0
  155.1937  138.2595  190.4348 C   0  0  0  0  0  0  0  0  0  0  0  0
  156.5684  138.4447  190.6296 F   0  0  0  0  0  0  0  0  0  0  0  0
  154.7814  137.1998  191.2516 F   0  0  0  0  0  0  0  0  0  0  0  0
 37 38  1  0  0  0
 38 39  1  0  0  0
 38 40  1  0  0  0
 38 30  1  0  0  0
 30 31  2  0  0  0
 31 32  1  0  0  0
 32 33  2  0  0  0
 33 28  1  0  0  0
 28  1  1  0  0  0
  1  2  2  0  0  0
  2  3  1  0  0  0
  3  4  2  0  0  0
  4  5  1  0  0  0
  5  6  1  0  0  0
  6  7  1  0  0  0
  7  8  1  0  0  0
  8  9  1  0  0  0
  9 10  1  0  0  0
 10 11  1  0  0  0
  8 12  1  0  0  0
 12 13  2  0  0  0
 13 14  1  0  0  0
 14 15  2  0  0  0
 15 16  1  0  0  0
 16 17  2  0  0  0
 17 18  1  0  0  0
 18 19  1  0  0  0
 18 20  1  0  0  0
 18 21  1  0  0  0
  3 22  1  0  0  0
 22 23  1  0  0  0
 23 24  1  0  0  0
 24 25  1  0  0  0
 25 26  1  0  0  0
 26 27  1  0  0  0
 33 34  1  0  0  0
 34 35  2  0  0  0
 35 36  1  0  0  0
 35 30  1  0  0  0
 11  1  1  0  0  0
 17 12  1  0  0  0
 27 22  1  0  0  0
 11  5  2  0  0  0
 28 29  1  0  0  0
M  END
> <minimizedAffinity>
-9.72079

> <CNNscore>
0.3701308966

> <CNNaffinity>
7.2967743874

> <CNN_VS>
2.7007615566

> <CNNaffinity_variance>
0.1122706309

$$$$
[H]c1nc(N2C([H])([H])C([H])([H])c3nc(N4C([H])([H])C([H])([H])OC([H])([H])C4([H])[H])nc(N([H])c4c([H])c([H])c(C(F)(F)F)c(Cl)c4[H])c3C([H])([H])C2([H])[H])c(C(F)(F)F)c([H])c1[H]


 40 44  0  0  0  0  0  0  0  0999 V2000
  154.1666  139.9614  183.7352 C   0  0  0  0  0  0  0  0  0  0  0  0
  153.2331  139.7476  182.8033 N   0  0  0  0  0  0  0  0  0  0  0  0
  152.5313  138.6347  182.5992 C   0  0  0  0  0  0  0  0  0  0  0  0
  152.8010  137.6142  183.4341 N   0  0  0  0  0  0  0  0  0  0  0  0
  153.7238  137.7357  184.4014 C   0  0  0  0  0  0  0  0  0  0  0  0
  153.8098  136.4850  185.2357 C   0  0  0  0  0  0  0  0  0  0  0  0
  153.7077  136.9474  186.6910 C   0  0  0  0  0  0  0  0  0  0  0  0
  154.9830  137.4659  187.0950 N   0  0  0  0  0  0  0  0  0  0  0  0
  156.0143  137.9548  186.2312 C   0  0  0  0  0  0  0  0  0  0  0  0
  155.5295  139.2254  185.5631 C   0  0  0  0  0  0  0  0  0  0  0  0
  154.4362  138.8840  184.5944 C   0  0  0  0  0  0  0  0  0  0  0  0
  155.2956  137.5071  188.4783 C   0  0  0  0  0  0  0  0  0  0  0  0
  154.8310  138.5374  189.2471 N   0  0  0  0  0  0  0  0  0  0  0  0
  155.0491  138.6384  190.5428 C   0  0  0  0  0  0  0  0  0  0  0  0
  155.7832  137.6546  191.1534 C   0  0  0  0  0  0  0  0  0  0  0  0
  156.2685  136.6048  190.4223 C   0  0  0  0  0  0  0  0  0  0  0  0
  156.0369  136.4998  189.0490 C   0  0  0  0  0  0  0  0  0  0  0  0
  156.6215  135.3548  188.3245 C   0  0  0  0  0  0  0  0  0  0  0  0
  157.1556  134.4809  189.2903 F   0  0  0  0  0  0  0  0  0  0  0  0
  157.7116  135.6952  187.5445 F   0  0  0  0  0  0  0  0  0  0  0  0
  155.7169  134.5799  187.6390 F   0  0  0  0  0  0  0  0  0  0  0  0
  151.5559  138.5338  181.5593 N   0  0  0  0  0  0  0  0  0  0  0  0
  150.3079  137.8881  181.8409 C   0  0  0  0  0  0  0  0  0  0  0  0
  149.2464  138.5192  180.9587 C   0  0  0  0  0  0  0  0  0  0  0  0
  149.6719  138.4196  179.6514 O   0  0  0  0  0  0  0  0  0  0  0  0
  150.6810  139.3581  179.4191 C   0  0  0  0  0  0  0  0  0  0  0  0
  151.9005  139.0996  180.2722 C   0  0  0  0  0  0  0  0  0  0  0  0
  154.8389  141.1740  183.9179 N   0  0  0  0  0  0  0  0  0  0  0  0
  154.5846  141.7533  184.7643 H   0  0  0  0  0  0  0  0  0  0  0  0
  157.8069  142.6483  181.2972 C   0  0  0  0  0  0  0  0  0  0  0  0
  156.9375  143.5363  181.8805 C   0  0  0  0  0  0  0  0  0  0  0  0
  155.9524  143.0592  182.7592 C   0  0  0  0  0  0  0  0  0  0  0  0
  155.8129  141.7394  183.0668 C   0  0  0  0  0  0  0  0  0  0  0  0
  156.7308  140.8704  182.4414 C   0  0  0  0  0  0  0  0  0  0  0  0
  157.6914  141.2949  181.5909 C   0  0  0  0  0  0  0  0  0  0  0  0
  158.8404  140.2260  180.8053 Cl  0  0  0  0  0  0  0  0  0  0  0  0
  160.0482  142.5779  180.6857 F   0  0  0  0  0  0  0  0  0  0  0  0
  158.8456  143.1389  180.3725 C   0  0  0  0  0  0  0  0  0  0  0  0
  159.0041  144.5258  180.4895 F   0  0  0  0  0  0  0  0  0  0  0  0
  158.5213  142.8529  179.0409 F   0  0  0  0  0  0  0  0  0  0  0  0
 37 38  1  0  0  0
 38 39  1  0  0  0
 38 40  1  0  0  0
 38 30  1  0  0  0
 30 31  2  0  0  0
 31 32  1  0  0  0
 32 33  2  0  0  0
 33 28  1  0  0  0
 28  1  1  0  0  0
  1  2  2  0  0  0
  2  3  1  0  0  0
  3  4  2  0  0  0
  4  5  1  0  0  0
  5  6  1  0  0  0
  6  7  1  0  0  0
  7  8  1  0  0  0
  8  9  1  0  0  0
  9 10  1  0  0  0
 10 11  1  0  0  0
  8 12  1  0  0  0
 12 13  2  0  0  0
 13 14  1  0  0  0
 14 15  2  0  0  0
 15 16  1  0  0  0
 16 17  2  0  0  0
 17 18  1  0  0  0
 18 19  1  0  0  0
 18 20  1  0  0  0
 18 21  1  0  0  0
  3 22  1  0  0  0
 22 23  1  0  0  0
 23 24  1  0  0  0
 24 25  1  0  0  0
 25 26  1  0  0  0
 26 27  1  0  0  0
 33 34  1  0  0  0
 34 35  2  0  0  0
 35 36  1  0  0  0
 35 30  1  0  0  0
 11  1  1  0  0  0
 17 12  1  0  0  0
 27 22  1  0  0  0
 11  5  2  0  0  0
 28 29  1  0  0  0
M  END
> <minimizedAffinity>
-9.48334

> <CNNscore>
0.3658165336

> <CNNaffinity>
7.1923766136

> <CNN_VS>
2.6310901642

> <CNNaffinity_variance>
0.0744837895

$$$$
[H]c1nc(N2C([H])([H])C([H])([H])c3nc(N4C([H])([H])C([H])([H])OC([H])([H])C4([H])[H])nc(N([H])c4c([H])c([H])c(C(F)(F)F)c(Cl)c4[H])c3C([H])([H])C2([H])[H])c(C(F)(F)F)c([H])c1[H]


 40 44  0  0  0  0  0  0  0  0999 V2000
  154.4813  138.6626  183.9227 C   0  0  0  0  0  0  0  0  0  0  0  0
  153.6266  138.8487  182.9126 N   0  0  0  0  0  0  0  0  0  0  0  0
  152.3585  138.4493  182.8395 C   0  0  0  0  0  0  0  0  0  0  0  0
  151.8946  137.7831  183.9129 N   0  0  0  0  0  0  0  0  0  0  0  0
  152.6804  137.5480  184.9754 C   0  0  0  0  0  0  0  0  0  0  0  0
  151.9260  136.8356  186.0669 C   0  0  0  0  0  0  0  0  0  0  0  0
  152.1830  137.6394  187.3437 C   0  0  0  0  0  0  0  0  0  0  0  0
  153.4864  137.3025  187.8397 N   0  0  0  0  0  0  0  0  0  0  0  0
  154.5662  136.7454  187.0830 C   0  0  0  0  0  0  0  0  0  0  0  0
  155.0392  137.7750  186.0772 C   0  0  0  0  0  0  0  0  0  0  0  0
  153.9798  137.9626  185.0319 C   0  0  0  0  0  0  0  0  0  0  0  0
  153.7709  137.5192  189.2127 C   0  0  0  0  0  0  0  0  0  0  0  0
  154.6287  138.5192  189.5767 N   0  0  0  0  0  0  0  0  0  0  0  0
  154.9257  138.8078  190.8279 C   0  0  0  0  0  0  0  0  0  0  0  0
  154.3412  138.0630  191.8194 C   0  0  0  0  0  0  0  0  0  0  0  0
  153.4765  137.0517  191.5006 C   0  0  0  0  0  0  0  0  0  0  0  0
  153.1634  136.7468  190.1741 C   0  0  0  0  0  0  0  0  0  0  0  0
  152.2475  135.6202  189.9105 C   0  0  0  0  0  0  0  0  0  0  0  0
  152.1275  134.8929  191.1099 F   0  0  0  0  0  0  0  0  0  0  0  0
  152.7525  134.6986  189.0115 F   0  0  0  0  0  0  0  0  0  0  0  0
  150.9560  135.9815  189.6102 F   0  0  0  0  0  0  0  0  0  0  0  0
  151.5459  138.7126  181.6935 N   0  0  0  0  0  0  0  0  0  0  0  0
  150.1538  138.3751  181.7396 C   0  0  0  0  0  0  0  0  0  0  0  0
  149.4083  139.3465  180.8429 C   0  0  0  0  0  0  0  0  0  0  0  0
  149.9810  139.2874  179.5904 O   0  0  0  0  0  0  0  0  0  0  0  0
  151.2052  139.9611  179.6078 C   0  0  0  0  0  0  0  0  0  0  0  0
  152.1946  139.3114  180.5463 C   0  0  0  0  0  0  0  0  0  0  0  0
  155.7934  139.1458  183.9481 N   0  0  0  0  0  0  0  0  0  0  0  0
  156.5440  138.5073  184.3294 H   0  0  0  0  0  0  0  0  0  0  0  0
  157.2845  142.8719  182.6278 C   0  0  0  0  0  0  0  0  0  0  0  0
  156.0468  142.8256  183.2199 C   0  0  0  0  0  0  0  0  0  0  0  0
  155.5443  141.5947  183.6699 C   0  0  0  0  0  0  0  0  0  0  0  0
  156.2328  140.4257  183.5464 C   0  0  0  0  0  0  0  0  0  0  0  0
  157.4980  140.5288  182.9319 C   0  0  0  0  0  0  0  0  0  0  0  0
  158.0127  141.6966  182.4873 C   0  0  0  0  0  0  0  0  0  0  0  0
  159.5849  141.8408  181.7209 Cl  0  0  0  0  0  0  0  0  0  0  0  0
  156.8849  145.1387  182.3046 F   0  0  0  0  0  0  0  0  0  0  0  0
  157.8218  144.1600  182.1514 C   0  0  0  0  0  0  0  0  0  0  0  0
  158.1243  144.1005  180.7850 F   0  0  0  0  0  0  0  0  0  0  0  0
  158.9909  144.5113  182.8369 F   0  0  0  0  0  0  0  0  0  0  0  0
 37 38  1  0  0  0
 38 39  1  0  0  0
 38 40  1  0  0  0
 38 30  1  0  0  0
 30 31  2  0  0  0
 31 32  1  0  0  0
 32 33  2  0  0  0
 33 28  1  0  0  0
 28  1  1  0  0  0
  1  2  2  0  0  0
  2  3  1  0  0  0
  3  4  2  0  0  0
  4  5  1  0  0  0
  5  6  1  0  0  0
  6  7  1  0  0  0
  7  8  1  0  0  0
  8  9  1  0  0  0
  9 10  1  0  0  0
 10 11  1  0  0  0
  8 12  1  0  0  0
 12 13  2  0  0  0
 13 14  1  0  0  0
 14 15  2  0  0  0
 15 16  1  0  0  0
 16 17  2  0  0  0
 17 18  1  0  0  0
 18 19  1  0  0  0
 18 20  1  0  0  0
 18 21  1  0  0  0
  3 22  1  0  0  0
 22 23  1  0  0  0
 23 24  1  0  0  0
 24 25  1  0  0  0
 25 26  1  0  0  0
 26 27  1  0  0  0
 33 34  1  0  0  0
 34 35  2  0  0  0
 35 36  1  0  0  0
 35 30  1  0  0  0
 11  1  1  0  0  0
 17 12  1  0  0  0
 27 22  1  0  0  0
 11  5  2  0  0  0
 28 29  1  0  0  0
M  END
> <minimizedAffinity>
-8.84798

> <CNNscore>
0.3206911087

> <CNNaffinity>
6.9821462631

> <CNN_VS>
2.2391121387

> <CNNaffinity_variance>
0.0822113007

$$$$
[H]c1nc(N2C([H])([H])C([H])([H])c3nc(N4C([H])([H])C([H])([H])OC([H])([H])C4([H])[H])nc(N([H])c4c([H])c([H])c(C(F)(F)F)c(Cl)c4[H])c3C([H])([H])C2([H])[H])c(C(F)(F)F)c([H])c1[H]


 40 44  0  0  0  0  0  0  0  0999 V2000
  153.8026  139.3065  183.8474 C   0  0  0  0  0  0  0  0  0  0  0  0
  152.8794  138.8925  182.9745 N   0  0  0  0  0  0  0  0  0  0  0  0
  152.3431  137.6778  182.8768 C   0  0  0  0  0  0  0  0  0  0  0  0
  152.7891  136.7706  183.7653 N   0  0  0  0  0  0  0  0  0  0  0  0
  153.7164  137.0946  184.6801 C   0  0  0  0  0  0  0  0  0  0  0  0
  154.0148  135.9336  185.5916 C   0  0  0  0  0  0  0  0  0  0  0  0
  153.8955  136.4810  187.0159 C   0  0  0  0  0  0  0  0  0  0  0  0
  155.0934  137.2068  187.3269 N   0  0  0  0  0  0  0  0  0  0  0  0
  156.0109  137.7758  186.3871 C   0  0  0  0  0  0  0  0  0  0  0  0
  155.3212  138.9107  185.6579 C   0  0  0  0  0  0  0  0  0  0  0  0
  154.2577  138.3450  184.7639 C   0  0  0  0  0  0  0  0  0  0  0  0
  155.4438  137.3934  188.6890 C   0  0  0  0  0  0  0  0  0  0  0  0
  154.9041  138.4351  189.3904 N   0  0  0  0  0  0  0  0  0  0  0  0
  155.1519  138.6646  190.6643 C   0  0  0  0  0  0  0  0  0  0  0  0
  155.9984  137.8103  191.3224 C   0  0  0  0  0  0  0  0  0  0  0  0
  156.5618  136.7544  190.6592 C   0  0  0  0  0  0  0  0  0  0  0  0
  156.2986  136.5131  189.3090 C   0  0  0  0  0  0  0  0  0  0  0  0
  156.9703  135.3728  188.6561 C   0  0  0  0  0  0  0  0  0  0  0  0
  155.9625  134.4982  188.2076 F   0  0  0  0  0  0  0  0  0  0  0  0
  157.7170  134.6011  189.5276 F   0  0  0  0  0  0  0  0  0  0  0  0
  157.6692  135.6877  187.5155 F   0  0  0  0  0  0  0  0  0  0  0  0
  151.3582  137.3613  181.8906 N   0  0  0  0  0  0  0  0  0  0  0  0
  151.0672  135.9844  181.6197 C   0  0  0  0  0  0  0  0  0  0  0  0
  149.6168  135.8913  181.1826 C   0  0  0  0  0  0  0  0  0  0  0  0
  149.4436  136.7445  180.1139 O   0  0  0  0  0  0  0  0  0  0  0  0
  149.4091  138.0636  180.5742 C   0  0  0  0  0  0  0  0  0  0  0  0
  150.7116  138.4705  181.2219 C   0  0  0  0  0  0  0  0  0  0  0  0
  154.2943  140.6138  183.9183 N   0  0  0  0  0  0  0  0  0  0  0  0
  153.7263  141.3230  184.4577 H   0  0  0  0  0  0  0  0  0  0  0  0
  157.9207  142.0632  182.3062 C   0  0  0  0  0  0  0  0  0  0  0  0
  156.8648  141.8320  181.4599 C   0  0  0  0  0  0  0  0  0  0  0  0
  155.6525  141.3582  181.9850 C   0  0  0  0  0  0  0  0  0  0  0  0
  155.4678  141.1117  183.3120 C   0  0  0  0  0  0  0  0  0  0  0  0
  156.5829  141.3658  184.1371 C   0  0  0  0  0  0  0  0  0  0  0  0
  157.7645  141.8222  183.6660 C   0  0  0  0  0  0  0  0  0  0  0  0
  159.1606  142.1430  184.6798 Cl  0  0  0  0  0  0  0  0  0  0  0  0
  159.1502  142.5793  180.4024 F   0  0  0  0  0  0  0  0  0  0  0  0
  159.1990  142.5610  181.7650 C   0  0  0  0  0  0  0  0  0  0  0  0
  160.2559  141.7132  182.1200 F   0  0  0  0  0  0  0  0  0  0  0  0
  159.4937  143.8423  182.2462 F   0  0  0  0  0  0  0  0  0  0  0  0
 37 38  1  0  0  0
 38 39  1  0  0  0
 38 40  1  0  0  0
 38 30  1  0  0  0
 30 31  2  0  0  0
 31 32  1  0  0  0
 32 33  2  0  0  0
 33 28  1  0  0  0
 28  1  1  0  0  0
  1  2  2  0  0  0
  2  3  1  0  0  0
  3  4  2  0  0  0
  4  5  1  0  0  0
  5  6  1  0  0  0
  6  7  1  0  0  0
  7  8  1  0  0  0
  8  9  1  0  0  0
  9 10  1  0  0  0
 10 11  1  0  0  0
  8 12  1  0  0  0
 12 13  2  0  0  0
 13 14  1  0  0  0
 14 15  2  0  0  0
 15 16  1  0  0  0
 16 17  2  0  0  0
 17 18  1  0  0  0
 18 19  1  0  0  0
 18 20  1  0  0  0
 18 21  1  0  0  0
  3 22  1  0  0  0
 22 23  1  0  0  0
 23 24  1  0  0  0
 24 25  1  0  0  0
 25 26  1  0  0  0
 26 27  1  0  0  0
 33 34  1  0  0  0
 34 35  2  0  0  0
 35 36  1  0  0  0
 35 30  1  0  0  0
 11  1  1  0  0  0
 17 12  1  0  0  0
 27 22  1  0  0  0
 11  5  2  0  0  0
 28 29  1  0  0  0
M  END
> <minimizedAffinity>
-8.52882

> <CNNscore>
0.2895713151

> <CNNaffinity>
7.0043959618

> <CNN_VS>
2.0282721519

> <CNNaffinity_variance>
0.0567161664

$$$$
[H]c1nc(N2C([H])([H])C([H])([H])c3nc(N4C([H])([H])C([H])([H])OC([H])([H])C4([H])[H])nc(N([H])c4c([H])c([H])c(C(F)(F)F)c(Cl)c4[H])c3C([H])([H])C2([H])[H])c(C(F)(F)F)c([H])c1[H]


 40 44  0  0  0  0  0  0  0  0999 V2000
  158.2182  139.8611  185.0488 C   0  0  0  0  0  0  0  0  0  0  0  0
  159.2144  140.5736  185.5831 N   0  0  0  0  0  0  0  0  0  0  0  0
  159.6810  141.7506  185.1711 C   0  0  0  0  0  0  0  0  0  0  0  0
  159.0707  142.2739  184.0918 N   0  0  0  0  0  0  0  0  0  0  0  0
  158.0601  141.6300  183.4870 C   0  0  0  0  0  0  0  0  0  0  0  0
  157.5074  142.4343  182.3400 C   0  0  0  0  0  0  0  0  0  0  0  0
  155.9930  142.4813  182.5560 C   0  0  0  0  0  0  0  0  0  0  0  0
  155.4324  141.2325  182.1264 N   0  0  0  0  0  0  0  0  0  0  0  0
  156.1264  139.9868  182.0027 C   0  0  0  0  0  0  0  0  0  0  0  0
  156.5301  139.5139  183.3844 C   0  0  0  0  0  0  0  0  0  0  0  0
  157.5964  140.4219  183.9217 C   0  0  0  0  0  0  0  0  0  0  0  0
  154.0595  141.1871  181.7713 C   0  0  0  0  0  0  0  0  0  0  0  0
  153.5556  140.0751  181.1565 N   0  0  0  0  0  0  0  0  0  0  0  0
  152.2890  139.9374  180.8192 C   0  0  0  0  0  0  0  0  0  0  0  0
  151.4293  140.9674  181.1010 C   0  0  0  0  0  0  0  0  0  0  0  0
  151.8906  142.0996  181.7151 C   0  0  0  0  0  0  0  0  0  0  0  0
  153.2334  142.2442  182.0714 C   0  0  0  0  0  0  0  0  0  0  0  0
  153.6599  143.5088  182.7011 C   0  0  0  0  0  0  0  0  0  0  0  0
  152.5549  144.3806  182.6725 F   0  0  0  0  0  0  0  0  0  0  0  0
  154.6326  144.1806  181.9833 F   0  0  0  0  0  0  0  0  0  0  0  0
  153.9746  143.4143  184.0355 F   0  0  0  0  0  0  0  0  0  0  0  0
  160.7605  142.4121  185.8344 N   0  0  0  0  0  0  0  0  0  0  0  0
  160.4983  143.1068  187.0602 C   0  0  0  0  0  0  0  0  0  0  0  0
  161.7599  143.0592  187.9025 C   0  0  0  0  0  0  0  0  0  0  0  0
  162.7899  143.5782  187.1476 O   0  0  0  0  0  0  0  0  0  0  0  0
  163.1789  142.6409  186.1868 C   0  0  0  0  0  0  0  0  0  0  0  0
  162.0656  142.3344  185.2130 C   0  0  0  0  0  0  0  0  0  0  0  0
  157.7527  138.6452  185.5596 N   0  0  0  0  0  0  0  0  0  0  0  0
  158.3700  137.7956  185.4428 H   0  0  0  0  0  0  0  0  0  0  0  0
  153.9592  137.8781  187.2539 C   0  0  0  0  0  0  0  0  0  0  0  0
  155.0232  138.1114  188.0894 C   0  0  0  0  0  0  0  0  0  0  0  0
  156.2867  138.3755  187.5380 C   0  0  0  0  0  0  0  0  0  0  0  0
  156.5142  138.4119  186.1954 C   0  0  0  0  0  0  0  0  0  0  0  0
  155.3884  138.1659  185.3824 C   0  0  0  0  0  0  0  0  0  0  0  0
  154.1581  137.9087  185.8788 C   0  0  0  0  0  0  0  0  0  0  0  0
  152.7481  137.6007  184.8803 Cl  0  0  0  0  0  0  0  0  0  0  0  0
  152.6755  137.6901  189.1824 F   0  0  0  0  0  0  0  0  0  0  0  0
  152.6274  137.5996  187.8227 C   0  0  0  0  0  0  0  0  0  0  0  0
  152.2171  136.2952  187.5189 F   0  0  0  0  0  0  0  0  0  0  0  0
  151.6628  138.4825  187.3225 F   0  0  0  0  0  0  0  0  0  0  0  0
 37 38  1  0  0  0
 38 39  1  0  0  0
 38 40  1  0  0  0
 38 30  1  0  0  0
 30 31  2  0  0  0
 31 32  1  0  0  0
 32 33  2  0  0  0
 33 28  1  0  0  0
 28  1  1  0  0  0
  1  2  2  0  0  0
  2  3  1  0  0  0
  3  4  2  0  0  0
  4  5  1  0  0  0
  5  6  1  0  0  0
  6  7  1  0  0  0
  7  8  1  0  0  0
  8  9  1  0  0  0
  9 10  1  0  0  0
 10 11  1  0  0  0
  8 12  1  0  0  0
 12 13  2  0  0  0
 13 14  1  0  0  0
 14 15  2  0  0  0
 15 16  1  0  0  0
 16 17  2  0  0  0
 17 18  1  0  0  0
 18 19  1  0  0  0
 18 20  1  0  0  0
 18 21  1  0  0  0
  3 22  1  0  0  0
 22 23  1  0  0  0
 23 24  1  0  0  0
 24 25  1  0  0  0
 25 26  1  0  0  0
 26 27  1  0  0  0
 33 34  1  0  0  0
 34 35  2  0  0  0
 35 36  1  0  0  0
 35 30  1  0  0  0
 11  1  1  0  0  0
 17 12  1  0  0  0
 27 22  1  0  0  0
 11  5  2  0  0  0
 28 29  1  0  0  0
M  END
> <minimizedAffinity>
-2.20279

> <CNNscore>
0.2737469077

> <CNNaffinity>
7.0777902603

> <CNN_VS>
1.9375232458

> <CNNaffinity_variance>
0.2808424830

$$$$
[H]c1nc(N2C([H])([H])C([H])([H])c3nc(N4C([H])([H])C([H])([H])OC([H])([H])C4([H])[H])nc(N([H])c4c([H])c([H])c(C(F)(F)F)c(Cl)c4[H])c3C([H])([H])C2([H])[H])c(C(F)(F)F)c([H])c1[H]


 40 44  0  0  0  0  0  0  0  0999 V2000
  154.2193  138.4459  184.3410 C   0  0  0  0  0  0  0  0  0  0  0  0
  153.2556  137.6890  183.8081 N   0  0  0  0  0  0  0  0  0  0  0  0
  152.4139  138.0178  182.8303 C   0  0  0  0  0  0  0  0  0  0  0  0
  152.5604  139.2577  182.3277 N   0  0  0  0  0  0  0  0  0  0  0  0
  153.5013  140.0902  182.8002 C   0  0  0  0  0  0  0  0  0  0  0  0
  153.5051  141.3949  182.0481 C   0  0  0  0  0  0  0  0  0  0  0  0
  154.9590  141.6323  181.6334 C   0  0  0  0  0  0  0  0  0  0  0  0
  155.6814  142.1299  182.7687 N   0  0  0  0  0  0  0  0  0  0  0  0
  155.3181  141.9707  184.1440 C   0  0  0  0  0  0  0  0  0  0  0  0
  155.4318  140.5053  184.5120 C   0  0  0  0  0  0  0  0  0  0  0  0
  154.3543  139.7370  183.8058 C   0  0  0  0  0  0  0  0  0  0  0  0
  156.8745  142.8657  182.5493 C   0  0  0  0  0  0  0  0  0  0  0  0
  156.8100  144.2166  182.3505 N   0  0  0  0  0  0  0  0  0  0  0  0
  157.8689  144.9797  182.1686 C   0  0  0  0  0  0  0  0  0  0  0  0
  159.1040  144.3850  182.1795 C   0  0  0  0  0  0  0  0  0  0  0  0
  159.2156  143.0353  182.3746 C   0  0  0  0  0  0  0  0  0  0  0  0
  158.0922  142.2279  182.5666 C   0  0  0  0  0  0  0  0  0  0  0  0
  158.2927  140.7760  182.7378 C   0  0  0  0  0  0  0  0  0  0  0  0
  159.6142  140.4899  182.3455 F   0  0  0  0  0  0  0  0  0  0  0  0
  157.5193  140.0090  181.8857 F   0  0  0  0  0  0  0  0  0  0  0  0
  158.2277  140.3312  184.0365 F   0  0  0  0  0  0  0  0  0  0  0  0
  151.4202  137.1105  182.3486 N   0  0  0  0  0  0  0  0  0  0  0  0
  150.1761  137.6365  181.8699 C   0  0  0  0  0  0  0  0  0  0  0  0
  149.6525  136.6960  180.8000 C   0  0  0  0  0  0  0  0  0  0  0  0
  149.5786  135.4336  181.3489 O   0  0  0  0  0  0  0  0  0  0  0  0
  150.8643  134.8953  181.4490 C   0  0  0  0  0  0  0  0  0  0  0  0
  151.7431  135.6996  182.3777 C   0  0  0  0  0  0  0  0  0  0  0  0
  155.0962  138.0201  185.3438 N   0  0  0  0  0  0  0  0  0  0  0  0
  156.0446  137.6614  185.0463 H   0  0  0  0  0  0  0  0  0  0  0  0
  154.5629  137.9576  189.5345 C   0  0  0  0  0  0  0  0  0  0  0  0
  153.4542  137.9458  188.7251 C   0  0  0  0  0  0  0  0  0  0  0  0
  153.6189  137.9582  187.3313 C   0  0  0  0  0  0  0  0  0  0  0  0
  154.8420  137.9822  186.7318 C   0  0  0  0  0  0  0  0  0  0  0  0
  155.9469  137.9931  187.6080 C   0  0  0  0  0  0  0  0  0  0  0  0
  155.8253  137.9815  188.9539 C   0  0  0  0  0  0  0  0  0  0  0  0
  157.1903  137.9948  190.0568 Cl  0  0  0  0  0  0  0  0  0  0  0  0
  155.2262  137.0088  191.5500 F   0  0  0  0  0  0  0  0  0  0  0  0
  154.4011  137.9448  191.0002 C   0  0  0  0  0  0  0  0  0  0  0  0
  153.0936  137.5895  191.3555 F   0  0  0  0  0  0  0  0  0  0  0  0
  154.6725  139.2010  191.5557 F   0  0  0  0  0  0  0  0  0  0  0  0
 37 38  1  0  0  0
 38 39  1  0  0  0
 38 40  1  0  0  0
 38 30  1  0  0  0
 30 31  2  0  0  0
 31 32  1  0  0  0
 32 33  2  0  0  0
 33 28  1  0  0  0
 28  1  1  0  0  0
  1  2  2  0  0  0
  2  3  1  0  0  0
  3  4  2  0  0  0
  4  5  1  0  0  0
  5  6  1  0  0  0
  6  7  1  0  0  0
  7  8  1  0  0  0
  8  9  1  0  0  0
  9 10  1  0  0  0
 10 11  1  0  0  0
  8 12  1  0  0  0
 12 13  2  0  0  0
 13 14  1  0  0  0
 14 15  2  0  0  0
 15 16  1  0  0  0
 16 17  2  0  0  0
 17 18  1  0  0  0
 18 19  1  0  0  0
 18 20  1  0  0  0
 18 21  1  0  0  0
  3 22  1  0  0  0
 22 23  1  0  0  0
 23 24  1  0  0  0
 24 25  1  0  0  0
 25 26  1  0  0  0
 26 27  1  0  0  0
 33 34  1  0  0  0
 34 35  2  0  0  0
 35 36  1  0  0  0
 35 30  1  0  0  0
 11  1  1  0  0  0
 17 12  1  0  0  0
 27 22  1  0  0  0
 11  5  2  0  0  0
 28 29  1  0  0  0
M  END
> <minimizedAffinity>
-9.42286

> <CNNscore>
0.2601138651

> <CNNaffinity>
7.0734772682

> <CNN_VS>
1.8399095535

> <CNNaffinity_variance>
0.2314296663

$$$$
[H]c1nc(N2C([H])([H])C([H])([H])N(C(=O)N([H])c3c([H])c([H])c(C(C([H])([H])[H])(C([H])([H])[H])C([H])([H])[H])c([H])c3[H])C([H])([H])C2([H])[H])c(Cl)c([H])c1[H]


 27 29  0  0  0  0  0  0  0  0999 V2000
  152.0340  137.3368  186.0293 N   0  0  0  0  0  0  0  0  0  0  0  0
  152.5007  137.0316  184.7370 C   0  0  0  0  0  0  0  0  0  0  0  0
  153.7045  136.7542  184.4660 O   0  0  0  0  0  0  0  0  0  0  0  0
  151.5528  137.0314  183.6400 N   0  0  0  0  0  0  0  0  0  0  0  0
  152.0259  136.7146  182.3510 C   0  0  0  0  0  0  0  0  0  0  0  0
  150.9835  136.1974  181.3895 C   0  0  0  0  0  0  0  0  0  0  0  0
  149.7418  136.9247  181.5367 N   0  0  0  0  0  0  0  0  0  0  0  0
  149.2780  137.4457  182.7809 C   0  0  0  0  0  0  0  0  0  0  0  0
  150.1971  137.3563  183.9340 C   0  0  0  0  0  0  0  0  0  0  0  0
  150.9770  137.5489  186.1121 H   0  0  0  0  0  0  0  0  0  0  0  0
  148.9608  137.1352  180.3705 C   0  0  0  0  0  0  0  0  0  0  0  0
  147.9283  136.2728  180.1274 N   0  0  0  0  0  0  0  0  0  0  0  0
  147.1513  136.4143  179.0526 C   0  0  0  0  0  0  0  0  0  0  0  0
  147.3440  137.4291  178.1356 C   0  0  0  0  0  0  0  0  0  0  0  0
  148.3806  138.2931  178.3818 C   0  0  0  0  0  0  0  0  0  0  0  0
  149.1772  138.1582  179.4715 C   0  0  0  0  0  0  0  0  0  0  0  0
  150.5168  139.2534  179.8056 Cl  0  0  0  0  0  0  0  0  0  0  0  0
  154.2382  137.6102  189.6252 C   0  0  0  0  0  0  0  0  0  0  0  0
  154.3179  138.5694  188.6437 C   0  0  0  0  0  0  0  0  0  0  0  0
  153.6020  138.4914  187.4672 C   0  0  0  0  0  0  0  0  0  0  0  0
  152.7479  137.4027  187.2291 C   0  0  0  0  0  0  0  0  0  0  0  0
  152.6732  136.4546  188.2066 C   0  0  0  0  0  0  0  0  0  0  0  0
  153.4120  136.5474  189.4061 C   0  0  0  0  0  0  0  0  0  0  0  0
  154.7866  139.1527  191.4251 C   0  0  0  0  0  0  0  0  0  0  0  0
  155.0444  137.7811  190.8534 C   0  0  0  0  0  0  0  0  0  0  0  0
  156.5052  137.6829  190.5214 C   0  0  0  0  0  0  0  0  0  0  0  0
  154.6920  136.7476  191.9010 C   0  0  0  0  0  0  0  0  0  0  0  0
 24 25  1  0  0  0
 25 26  1  0  0  0
 25 27  1  0  0  0
 25 18  1  0  0  0
 18 19  2  0  0  0
 19 20  1  0  0  0
 20 21  2  0  0  0
 21  1  1  0  0  0
  1  2  1  0  0  0
  2  3  2  0  0  0
  2  4  1  0  0  0
  4  5  1  0  0  0
  5  6  1  0  0  0
  6  7  1  0  0  0
  7  8  1  0  0  0
  8  9  1  0  0  0
  7 11  1  0  0  0
 11 12  2  0  0  0
 12 13  1  0  0  0
 13 14  2  0  0  0
 14 15  1  0  0  0
 15 16  2  0  0  0
 16 17  1  0  0  0
 21 22  1  0  0  0
 22 23  2  0  0  0
 23 18  1  0  0  0
  9  4  1  0  0  0
 16 11  1  0  0  0
  1 10  1  0  0  0
M  END
> <minimizedAffinity>
-6.67398

> <CNNscore>
0.4411189854

> <CNNaffinity>
5.2332210541

> <CNN_VS>
2.3084731102

> <CNNaffinity_variance>
0.0202216525

$$$$
[H]c1nc(N2C([H])([H])C([H])([H])N(C(=O)N([H])c3c([H])c([H])c(C(C([H])([H])[H])(C([H])([H])[H])C([H])([H])[H])c([H])c3[H])C([H])([H])C2([H])[H])c(Cl)c([H])c1[H]


 27 29  0  0  0  0  0  0  0  0999 V2000
  153.6673  139.9689  182.0682 N   0  0  0  0  0  0  0  0  0  0  0  0
  154.3061  139.4346  183.2029 C   0  0  0  0  0  0  0  0  0  0  0  0
  153.8521  138.4695  183.8825 O   0  0  0  0  0  0  0  0  0  0  0  0
  155.5632  140.0178  183.6293 N   0  0  0  0  0  0  0  0  0  0  0  0
  156.2016  139.4705  184.7600 C   0  0  0  0  0  0  0  0  0  0  0  0
  157.6904  139.7072  184.8387 C   0  0  0  0  0  0  0  0  0  0  0  0
  158.0216  141.0483  184.4096 N   0  0  0  0  0  0  0  0  0  0  0  0
  157.3039  141.7498  183.3960 C   0  0  0  0  0  0  0  0  0  0  0  0
  156.0750  141.1145  182.8776 C   0  0  0  0  0  0  0  0  0  0  0  0
  154.1752  140.7911  181.5832 H   0  0  0  0  0  0  0  0  0  0  0  0
  159.1122  141.6929  185.0494 C   0  0  0  0  0  0  0  0  0  0  0  0
  158.9538  142.0773  186.3518 N   0  0  0  0  0  0  0  0  0  0  0  0
  159.9388  142.6842  187.0154 C   0  0  0  0  0  0  0  0  0  0  0  0
  161.1606  142.9546  186.4305 C   0  0  0  0  0  0  0  0  0  0  0  0
  161.3170  142.5679  185.1237 C   0  0  0  0  0  0  0  0  0  0  0  0
  160.3217  141.9504  184.4393 C   0  0  0  0  0  0  0  0  0  0  0  0
  160.4987  141.4487  182.7593 Cl  0  0  0  0  0  0  0  0  0  0  0  0
  150.0044  138.7506  180.3469 C   0  0  0  0  0  0  0  0  0  0  0  0
  150.3449  138.4359  181.6410 C   0  0  0  0  0  0  0  0  0  0  0  0
  151.5365  138.8296  182.2136 C   0  0  0  0  0  0  0  0  0  0  0  0
  152.4623  139.5829  181.4743 C   0  0  0  0  0  0  0  0  0  0  0  0
  152.1187  139.8918  180.1912 C   0  0  0  0  0  0  0  0  0  0  0  0
  150.8953  139.4820  179.6180 C   0  0  0  0  0  0  0  0  0  0  0  0
  148.5649  136.8060  180.0891 C   0  0  0  0  0  0  0  0  0  0  0  0
  148.7034  138.2837  179.8205 C   0  0  0  0  0  0  0  0  0  0  0  0
  148.6503  138.4931  178.3349 C   0  0  0  0  0  0  0  0  0  0  0  0
  147.5450  139.0038  180.4758 C   0  0  0  0  0  0  0  0  0  0  0  0
 24 25  1  0  0  0
 25 26  1  0  0  0
 25 27  1  0  0  0
 25 18  1  0  0  0
 18 19  2  0  0  0
 19 20  1  0  0  0
 20 21  2  0  0  0
 21  1  1  0  0  0
  1  2  1  0  0  0
  2  3  2  0  0  0
  2  4  1  0  0  0
  4  5  1  0  0  0
  5  6  1  0  0  0
  6  7  1  0  0  0
  7  8  1  0  0  0
  8  9  1  0  0  0
  7 11  1  0  0  0
 11 12  2  0  0  0
 12 13  1  0  0  0
 13 14  2  0  0  0
 14 15  1  0  0  0
 15 16  2  0  0  0
 16 17  1  0  0  0
 21 22  1  0  0  0
 22 23  2  0  0  0
 23 18  1  0  0  0
  9  4  1  0  0  0
 16 11  1  0  0  0
  1 10  1  0  0  0
M  END
> <minimizedAffinity>
-9.49239

> <CNNscore>
0.3729882240

> <CNNaffinity>
5.9348592758

> <CNN_VS>
2.2136325836

> <CNNaffinity_variance>
0.0455912724

$$$$
[H]c1nc(N2C([H])([H])C([H])([H])N(C(=O)N([H])c3c([H])c([H])c(C(C([H])([H])[H])(C([H])([H])[H])C([H])([H])[H])c([H])c3[H])C([H])([H])C2([H])[H])c(Cl)c([H])c1[H]


 27 29  0  0  0  0  0  0  0  0999 V2000
  156.5347  139.2661  185.2236 N   0  0  0  0  0  0  0  0  0  0  0  0
  155.2345  138.7856  185.4676 C   0  0  0  0  0  0  0  0  0  0  0  0
  154.2506  138.9829  184.6979 O   0  0  0  0  0  0  0  0  0  0  0  0
  154.9952  138.0149  186.6721 N   0  0  0  0  0  0  0  0  0  0  0  0
  153.6932  137.5285  186.9039 C   0  0  0  0  0  0  0  0  0  0  0  0
  153.6049  136.3276  187.8142 C   0  0  0  0  0  0  0  0  0  0  0  0
  154.5295  136.4509  188.9197 N   0  0  0  0  0  0  0  0  0  0  0  0
  155.7965  137.0981  188.8173 C   0  0  0  0  0  0  0  0  0  0  0  0
  156.0950  137.7995  187.5518 C   0  0  0  0  0  0  0  0  0  0  0  0
  157.2785  139.0153  185.9673 H   0  0  0  0  0  0  0  0  0  0  0  0
  154.1360  135.9065  190.1700 C   0  0  0  0  0  0  0  0  0  0  0  0
  153.7819  134.5866  190.2103 N   0  0  0  0  0  0  0  0  0  0  0  0
  153.4059  134.0090  191.3522 C   0  0  0  0  0  0  0  0  0  0  0  0
  153.3541  134.7043  192.5445 C   0  0  0  0  0  0  0  0  0  0  0  0
  153.7098  136.0285  192.5014 C   0  0  0  0  0  0  0  0  0  0  0  0
  154.0935  136.6260  191.3456 C   0  0  0  0  0  0  0  0  0  0  0  0
  154.5505  138.3261  191.2657 Cl  0  0  0  0  0  0  0  0  0  0  0  0
  157.8960  141.6282  181.9939 C   0  0  0  0  0  0  0  0  0  0  0  0
  157.0258  142.1149  182.9403 C   0  0  0  0  0  0  0  0  0  0  0  0
  156.5764  141.3538  183.9993 C   0  0  0  0  0  0  0  0  0  0  0  0
  157.0042  140.0248  184.1477 C   0  0  0  0  0  0  0  0  0  0  0  0
  157.8673  139.5479  183.2057 C   0  0  0  0  0  0  0  0  0  0  0  0
  158.3190  140.3385  182.1267 C   0  0  0  0  0  0  0  0  0  0  0  0
  157.9364  141.8969  179.5760 C   0  0  0  0  0  0  0  0  0  0  0  0
  158.3220  142.5207  180.8940 C   0  0  0  0  0  0  0  0  0  0  0  0
  159.8148  142.6778  180.9149 C   0  0  0  0  0  0  0  0  0  0  0  0
  157.6675  143.8814  180.9937 C   0  0  0  0  0  0  0  0  0  0  0  0
 24 25  1  0  0  0
 25 26  1  0  0  0
 25 27  1  0  0  0
 25 18  1  0  0  0
 18 19  2  0  0  0
 19 20  1  0  0  0
 20 21  2  0  0  0
 21  1  1  0  0  0
  1  2  1  0  0  0
  2  3  2  0  0  0
  2  4  1  0  0  0
  4  5  1  0  0  0
  5  6  1  0  0  0
  6  7  1  0  0  0
  7  8  1  0  0  0
  8  9  1  0  0  0
  7 11  1  0  0  0
 11 12  2  0  0  0
 12 13  1  0  0  0
 13 14  2  0  0  0
 14 15  1  0  0  0
 15 16  2  0  0  0
 16 17  1  0  0  0
 21 22  1  0  0  0
 22 23  2  0  0  0
 23 18  1  0  0  0
  9  4  1  0  0  0
 16 11  1  0  0  0
  1 10  1  0  0  0
M  END
> <minimizedAffinity>
-6.99580

> <CNNscore>
0.3614186645

> <CNNaffinity>
5.6646142006

> <CNN_VS>
2.0472972393

> <CNNaffinity_variance>
0.0440173522

$$$$
[H]c1nc(N2C([H])([H])C([H])([H])N(C(=O)N([H])c3c([H])c([H])c(C(C([H])([H])[H])(C([H])([H])[H])C([H])([H])[H])c([H])c3[H])C([H])([H])C2([H])[H])c(Cl)c([H])c1[H]


 27 29  0  0  0  0  0  0  0  0999 V2000
  155.0273  140.4117  183.1679 N   0  0  0  0  0  0  0  0  0  0  0  0
  156.0972  141.0784  182.5419 C   0  0  0  0  0  0  0  0  0  0  0  0
  156.1236  141.3776  181.3135 O   0  0  0  0  0  0  0  0  0  0  0  0
  157.2460  141.4508  183.3442 N   0  0  0  0  0  0  0  0  0  0  0  0
  158.3085  142.1272  182.7123 C   0  0  0  0  0  0  0  0  0  0  0  0
  159.1815  142.9540  183.6250 C   0  0  0  0  0  0  0  0  0  0  0  0
  159.4150  142.2660  184.8758 N   0  0  0  0  0  0  0  0  0  0  0  0
  158.4566  141.4086  185.4929 C   0  0  0  0  0  0  0  0  0  0  0  0
  157.2307  141.1053  184.7263 C   0  0  0  0  0  0  0  0  0  0  0  0
  155.1409  140.2262  184.2271 H   0  0  0  0  0  0  0  0  0  0  0  0
  160.6741  142.4525  185.5038 C   0  0  0  0  0  0  0  0  0  0  0  0
  160.6923  143.0351  186.7405 N   0  0  0  0  0  0  0  0  0  0  0  0
  161.8397  143.2368  187.3899 C   0  0  0  0  0  0  0  0  0  0  0  0
  163.0600  142.8721  186.8553 C   0  0  0  0  0  0  0  0  0  0  0  0
  163.0390  142.2879  185.6143 C   0  0  0  0  0  0  0  0  0  0  0  0
  161.8778  142.0782  184.9449 C   0  0  0  0  0  0  0  0  0  0  0  0
  161.8272  141.3336  183.3486 Cl  0  0  0  0  0  0  0  0  0  0  0  0
  151.3994  139.1078  181.4353 C   0  0  0  0  0  0  0  0  0  0  0  0
  152.0273  140.2634  181.0352 C   0  0  0  0  0  0  0  0  0  0  0  0
  153.2122  140.6976  181.5922 C   0  0  0  0  0  0  0  0  0  0  0  0
  153.8297  139.9544  182.6108 C   0  0  0  0  0  0  0  0  0  0  0  0
  153.2020  138.8091  183.0033 C   0  0  0  0  0  0  0  0  0  0  0  0
  151.9891  138.3768  182.4242 C   0  0  0  0  0  0  0  0  0  0  0  0
  150.1214  139.2660  179.3709 C   0  0  0  0  0  0  0  0  0  0  0  0
  150.1311  138.7237  180.7782 C   0  0  0  0  0  0  0  0  0  0  0  0
  148.9718  139.3270  181.5169 C   0  0  0  0  0  0  0  0  0  0  0  0
  149.9667  137.2206  180.7173 C   0  0  0  0  0  0  0  0  0  0  0  0
 24 25  1  0  0  0
 25 26  1  0  0  0
 25 27  1  0  0  0
 25 18  1  0  0  0
 18 19  2  0  0  0
 19 20  1  0  0  0
 20 21  2  0  0  0
 21  1  1  0  0  0
  1  2  1  0  0  0
  2  3  2  0  0  0
  2  4  1  0  0  0
  4  5  1  0  0  0
  5  6  1  0  0  0
  6  7  1  0  0  0
  7  8  1  0  0  0
  8  9  1  0  0  0
  7 11  1  0  0  0
 11 12  2  0  0  0
 12 13  1  0  0  0
 13 14  2  0  0  0
 14 15  1  0  0  0
 15 16  2  0  0  0
 16 17  1  0  0  0
 21 22  1  0  0  0
 22 23  2  0  0  0
 23 18  1  0  0  0
  9  4  1  0  0  0
 16 11  1  0  0  0
  1 10  1  0  0  0
M  END
> <minimizedAffinity>
-9.33982

> <CNNscore>
0.3266066909

> <CNNaffinity>
6.2417731285

> <CNN_VS>
2.0386049747

> <CNNaffinity_variance>
0.0623208359

$$$$
[H]c1nc(N2C([H])([H])C([H])([H])N(C(=O)N([H])c3c([H])c([H])c(C(C([H])([H])[H])(C([H])([H])[H])C([H])([H])[H])c([H])c3[H])C([H])([H])C2([H])[H])c(Cl)c([H])c1[H]


 27 29  0  0  0  0  0  0  0  0999 V2000
  152.4062  136.3817  186.0340 N   0  0  0  0  0  0  0  0  0  0  0  0
  152.8104  136.2426  184.6930 C   0  0  0  0  0  0  0  0  0  0  0  0
  153.9819  136.4774  184.2785 O   0  0  0  0  0  0  0  0  0  0  0  0
  151.8328  135.8033  183.7166 N   0  0  0  0  0  0  0  0  0  0  0  0
  152.2480  135.6565  182.3781 C   0  0  0  0  0  0  0  0  0  0  0  0
  151.4154  134.7137  181.5434 C   0  0  0  0  0  0  0  0  0  0  0  0
  150.0086  134.8670  181.8430 N   0  0  0  0  0  0  0  0  0  0  0  0
  149.5118  135.2015  183.1376 C   0  0  0  0  0  0  0  0  0  0  0  0
  150.5070  135.5498  184.1725 C   0  0  0  0  0  0  0  0  0  0  0  0
  151.3733  136.1404  186.2437 H   0  0  0  0  0  0  0  0  0  0  0  0
  149.0862  134.6855  180.7797 C   0  0  0  0  0  0  0  0  0  0  0  0
  148.5656  133.4356  180.5905 N   0  0  0  0  0  0  0  0  0  0  0  0
  147.6905  133.1947  179.6131 C   0  0  0  0  0  0  0  0  0  0  0  0
  147.2659  134.1838  178.7476 C   0  0  0  0  0  0  0  0  0  0  0  0
  147.7897  135.4370  178.9395 C   0  0  0  0  0  0  0  0  0  0  0  0
  148.6805  135.6929  179.9301 C   0  0  0  0  0  0  0  0  0  0  0  0
  149.3696  137.2935  180.1926 Cl  0  0  0  0  0  0  0  0  0  0  0  0
  154.6935  137.5225  189.4002 C   0  0  0  0  0  0  0  0  0  0  0  0
  154.6277  136.2191  188.9682 C   0  0  0  0  0  0  0  0  0  0  0  0
  153.8861  135.8357  187.8701 C   0  0  0  0  0  0  0  0  0  0  0  0
  153.1567  136.7883  187.1409 C   0  0  0  0  0  0  0  0  0  0  0  0
  153.2260  138.0795  187.5745 C   0  0  0  0  0  0  0  0  0  0  0  0
  153.9893  138.4576  188.7004 C   0  0  0  0  0  0  0  0  0  0  0  0
  156.9370  138.0906  190.1511 C   0  0  0  0  0  0  0  0  0  0  0  0
  155.5161  137.8369  190.5886 C   0  0  0  0  0  0  0  0  0  0  0  0
  155.5210  136.6664  191.5287 C   0  0  0  0  0  0  0  0  0  0  0  0
  155.0070  139.0653  191.3110 C   0  0  0  0  0  0  0  0  0  0  0  0
 24 25  1  0  0  0
 25 26  1  0  0  0
 25 27  1  0  0  0
 25 18  1  0  0  0
 18 19  2  0  0  0
 19 20  1  0  0  0
 20 21  2  0  0  0
 21  1  1  0  0  0
  1  2  1  0  0  0
  2  3  2  0  0  0
  2  4  1  0  0  0
  4  5  1  0  0  0
  5  6  1  0  0  0
  6  7  1  0  0  0
  7  8  1  0  0  0
  8  9  1  0  0  0
  7 11  1  0  0  0
 11 12  2  0  0  0
 12 13  1  0  0  0
 13 14  2  0  0  0
 14 15  1  0  0  0
 15 16  2  0  0  0
 16 17  1  0  0  0
 21 22  1  0  0  0
 22 23  2  0  0  0
 23 18  1  0  0  0
  9  4  1  0  0  0
 16 11  1  0  0  0
  1 10  1  0  0  0
M  END
> <minimizedAffinity>
-5.18842

> <CNNscore>
0.3244306147

> <CNNaffinity>
5.0418372154

> <CNN_VS>
1.6357263327

> <CNNaffinity_variance>
0.2090917528

$$$$
[H]c1nc(N2C([H])([H])C([H])([H])N(C(=O)N([H])c3c([H])c([H])c(C(C([H])([H])[H])(C([H])([H])[H])C([H])([H])[H])c([H])c3[H])C([H])([H])C2([H])[H])c(Cl)c([H])c1[H]


 27 29  0  0  0  0  0  0  0  0999 V2000
  151.3504  136.0267  187.9633 N   0  0  0  0  0  0  0  0  0  0  0  0
  152.3941  136.3028  187.0602 C   0  0  0  0  0  0  0  0  0  0  0  0
  153.6218  136.1804  187.3379 O   0  0  0  0  0  0  0  0  0  0  0  0
  152.0539  136.7560  185.7257 N   0  0  0  0  0  0  0  0  0  0  0  0
  153.1041  137.0203  184.8242 C   0  0  0  0  0  0  0  0  0  0  0  0
  152.7345  136.9466  183.3625 C   0  0  0  0  0  0  0  0  0  0  0  0
  151.4305  137.5285  183.1316 N   0  0  0  0  0  0  0  0  0  0  0  0
  150.3636  137.4683  184.0765 C   0  0  0  0  0  0  0  0  0  0  0  0
  150.6734  136.9098  185.4086 C   0  0  0  0  0  0  0  0  0  0  0  0
  150.3477  136.1714  187.5853 H   0  0  0  0  0  0  0  0  0  0  0  0
  151.2203  138.2038  181.9011 C   0  0  0  0  0  0  0  0  0  0  0  0
  150.2808  137.6984  181.0461 N   0  0  0  0  0  0  0  0  0  0  0  0
  150.0289  138.2850  179.8750 C   0  0  0  0  0  0  0  0  0  0  0  0
  150.6955  139.4233  179.4655 C   0  0  0  0  0  0  0  0  0  0  0  0
  151.6377  139.9283  180.3251 C   0  0  0  0  0  0  0  0  0  0  0  0
  151.9020  139.3397  181.5184 C   0  0  0  0  0  0  0  0  0  0  0  0
  153.1105  139.9683  182.6364 Cl  0  0  0  0  0  0  0  0  0  0  0  0
  151.6244  134.7759  191.9913 C   0  0  0  0  0  0  0  0  0  0  0  0
  151.9743  136.0445  191.5939 C   0  0  0  0  0  0  0  0  0  0  0  0
  151.8874  136.4641  190.2827 C   0  0  0  0  0  0  0  0  0  0  0  0
  151.4272  135.5868  189.2878 C   0  0  0  0  0  0  0  0  0  0  0  0
  151.0816  134.3298  189.6884 C   0  0  0  0  0  0  0  0  0  0  0  0
  151.1758  133.9140  191.0343 C   0  0  0  0  0  0  0  0  0  0  0  0
  150.4740  134.7805  194.1352 C   0  0  0  0  0  0  0  0  0  0  0  0
  151.7519  134.4182  193.4208 C   0  0  0  0  0  0  0  0  0  0  0  0
  152.8709  135.2014  194.0439 C   0  0  0  0  0  0  0  0  0  0  0  0
  152.0050  132.9377  193.6055 C   0  0  0  0  0  0  0  0  0  0  0  0
 24 25  1  0  0  0
 25 26  1  0  0  0
 25 27  1  0  0  0
 25 18  1  0  0  0
 18 19  2  0  0  0
 19 20  1  0  0  0
 20 21  2  0  0  0
 21  1  1  0  0  0
  1  2  1  0  0  0
  2  3  2  0  0  0
  2  4  1  0  0  0
  4  5  1  0  0  0
  5  6  1  0  0  0
  6  7  1  0  0  0
  7  8  1  0  0  0
  8  9  1  0  0  0
  7 11  1  0  0  0
 11 12  2  0  0  0
 12 13  1  0  0  0
 13 14  2  0  0  0
 14 15  1  0  0  0
 15 16  2  0  0  0
 16 17  1  0  0  0
 21 22  1  0  0  0
 22 23  2  0  0  0
 23 18  1  0  0  0
  9  4  1  0  0  0
 16 11  1  0  0  0
  1 10  1  0  0  0
M  END
> <minimizedAffinity>
-5.23493

> <CNNscore>
0.3119345009

> <CNNaffinity>
5.0345878601

> <CNN_VS>
1.5704616308

> <CNNaffinity_variance>
0.1054658294

$$$$
[H]c1nc(N2C([H])([H])C([H])([H])N(C(=O)N([H])c3c([H])c([H])c(C(C([H])([H])[H])(C([H])([H])[H])C([H])([H])[H])c([H])c3[H])C([H])([H])C2([H])[H])c(Cl)c([H])c1[H]


 27 29  0  0  0  0  0  0  0  0999 V2000
  153.3072  137.0184  184.5429 N   0  0  0  0  0  0  0  0  0  0  0  0
  154.1847  137.6258  185.4605 C   0  0  0  0  0  0  0  0  0  0  0  0
  154.4109  138.8692  185.5073 O   0  0  0  0  0  0  0  0  0  0  0  0
  154.8781  136.7851  186.4168 N   0  0  0  0  0  0  0  0  0  0  0  0
  155.7469  137.4021  187.3389 C   0  0  0  0  0  0  0  0  0  0  0  0
  156.0007  136.6239  188.6073 C   0  0  0  0  0  0  0  0  0  0  0  0
  156.1426  135.2123  188.3252 N   0  0  0  0  0  0  0  0  0  0  0  0
  155.4364  134.5436  187.2818 C   0  0  0  0  0  0  0  0  0  0  0  0
  154.6397  135.3816  186.3622 C   0  0  0  0  0  0  0  0  0  0  0  0
  153.2084  135.9446  184.6233 H   0  0  0  0  0  0  0  0  0  0  0  0
  157.0462  134.4689  189.1284 C   0  0  0  0  0  0  0  0  0  0  0  0
  156.5602  133.8836  190.2643 N   0  0  0  0  0  0  0  0  0  0  0  0
  157.3524  133.1672  191.0631 C   0  0  0  0  0  0  0  0  0  0  0  0
  158.6932  132.9784  190.7900 C   0  0  0  0  0  0  0  0  0  0  0  0
  159.1785  133.5667  189.6498 C   0  0  0  0  0  0  0  0  0  0  0  0
  158.3817  134.2976  188.8306 C   0  0  0  0  0  0  0  0  0  0  0  0
  158.9840  135.0657  187.3633 Cl  0  0  0  0  0  0  0  0  0  0  0  0
  150.9154  138.7498  181.5187 C   0  0  0  0  0  0  0  0  0  0  0  0
  150.4354  137.7781  182.3643 C   0  0  0  0  0  0  0  0  0  0  0  0
  151.2062  137.2073  183.3557 C   0  0  0  0  0  0  0  0  0  0  0  0
  152.5387  137.6109  183.5369 C   0  0  0  0  0  0  0  0  0  0  0  0
  153.0090  138.5752  182.6950 C   0  0  0  0  0  0  0  0  0  0  0  0
  152.2085  139.1506  181.6843 C   0  0  0  0  0  0  0  0  0  0  0  0
  149.5679  138.1874  179.5725 C   0  0  0  0  0  0  0  0  0  0  0  0
  150.0127  139.3024  180.4855 C   0  0  0  0  0  0  0  0  0  0  0  0
  150.7471  140.3165  179.6572 C   0  0  0  0  0  0  0  0  0  0  0  0
  148.7862  139.9416  181.0996 C   0  0  0  0  0  0  0  0  0  0  0  0
 24 25  1  0  0  0
 25 26  1  0  0  0
 25 27  1  0  0  0
 25 18  1  0  0  0
 18 19  2  0  0  0
 19 20  1  0  0  0
 20 21  2  0  0  0
 21  1  1  0  0  0
  1  2  1  0  0  0
  2  3  2  0  0  0
  2  4  1  0  0  0
  4  5  1  0  0  0
  5  6  1  0  0  0
  6  7  1  0  0  0
  7  8  1  0  0  0
  8  9  1  0  0  0
  7 11  1  0  0  0
 11 12  2  0  0  0
 12 13  1  0  0  0
 13 14  2  0  0  0
 14 15  1  0  0  0
 15 16  2  0  0  0
 16 17  1  0  0  0
 21 22  1  0  0  0
 22 23  2  0  0  0
 23 18  1  0  0  0
  9  4  1  0  0  0
 16 11  1  0  0  0
  1 10  1  0  0  0
M  END
> <minimizedAffinity>
-6.20385

> <CNNscore>
0.3106402159

> <CNNaffinity>
4.9908123016

> <CNN_VS>
1.5503469706

> <CNNaffinity_variance>
0.0433663912

$$$$
[H]c1nc(N2C([H])([H])C([H])([H])N(C(=O)N([H])c3c([H])c([H])c(C(C([H])([H])[H])(C([H])([H])[H])C([H])([H])[H])c([H])c3[H])C([H])([H])C2([H])[H])c(Cl)c([H])c1[H]


 27 29  0  0  0  0  0  0  0  0999 V2000
  155.1575  139.2047  185.3542 N   0  0  0  0  0  0  0  0  0  0  0  0
  154.4615  137.9868  185.2378 C   0  0  0  0  0  0  0  0  0  0  0  0
  154.3537  137.3329  184.1608 O   0  0  0  0  0  0  0  0  0  0  0  0
  153.8247  137.4371  186.4187 N   0  0  0  0  0  0  0  0  0  0  0  0
  153.1388  136.2123  186.2963 C   0  0  0  0  0  0  0  0  0  0  0  0
  152.9818  135.4293  187.5773 C   0  0  0  0  0  0  0  0  0  0  0  0
  152.6810  136.3097  188.6849 N   0  0  0  0  0  0  0  0  0  0  0  0
  153.1863  137.6393  188.7927 C   0  0  0  0  0  0  0  0  0  0  0  0
  153.9295  138.1742  187.6334 C   0  0  0  0  0  0  0  0  0  0  0  0
  155.1707  139.6491  186.3398 H   0  0  0  0  0  0  0  0  0  0  0  0
  151.8256  135.8158  189.7040 C   0  0  0  0  0  0  0  0  0  0  0  0
  150.4793  135.8179  189.4662 N   0  0  0  0  0  0  0  0  0  0  0  0
  149.6182  135.3643  190.3782 C   0  0  0  0  0  0  0  0  0  0  0  0
  150.0340  134.8721  191.6000 C   0  0  0  0  0  0  0  0  0  0  0  0
  151.3853  134.8711  191.8361 C   0  0  0  0  0  0  0  0  0  0  0  0
  152.2698  135.3303  190.9158 C   0  0  0  0  0  0  0  0  0  0  0  0
  154.0091  135.3425  191.1990 Cl  0  0  0  0  0  0  0  0  0  0  0  0
  157.3021  141.3607  182.4189 C   0  0  0  0  0  0  0  0  0  0  0  0
  157.9333  140.6037  183.3772 C   0  0  0  0  0  0  0  0  0  0  0  0
  157.2436  139.8947  184.3387 C   0  0  0  0  0  0  0  0  0  0  0  0
  155.8403  139.9246  184.3697 C   0  0  0  0  0  0  0  0  0  0  0  0
  155.2201  140.6774  183.4165 C   0  0  0  0  0  0  0  0  0  0  0  0
  155.9390  141.3982  182.4383 C   0  0  0  0  0  0  0  0  0  0  0  0
  159.5644  142.0810  181.8866 C   0  0  0  0  0  0  0  0  0  0  0  0
  158.1273  142.0862  181.4288 C   0  0  0  0  0  0  0  0  0  0  0  0
  157.6740  143.5145  181.3367 C   0  0  0  0  0  0  0  0  0  0  0  0
  158.0542  141.4419  180.0615 C   0  0  0  0  0  0  0  0  0  0  0  0
 24 25  1  0  0  0
 25 26  1  0  0  0
 25 27  1  0  0  0
 25 18  1  0  0  0
 18 19  2  0  0  0
 19 20  1  0  0  0
 20 21  2  0  0  0
 21  1  1  0  0  0
  1  2  1  0  0  0
  2  3  2  0  0  0
  2  4  1  0  0  0
  4  5  1  0  0  0
  5  6  1  0  0  0
  6  7  1  0  0  0
  7  8  1  0  0  0
  8  9  1  0  0  0
  7 11  1  0  0  0
 11 12  2  0  0  0
 12 13  1  0  0  0
 13 14  2  0  0  0
 14 15  1  0  0  0
 15 16  2  0  0  0
 16 17  1  0  0  0
 21 22  1  0  0  0
 22 23  2  0  0  0
 23 18  1  0  0  0
  9  4  1  0  0  0
 16 11  1  0  0  0
  1 10  1  0  0  0
M  END
> <minimizedAffinity>
-6.46703

> <CNNscore>
0.2871687412

> <CNNaffinity>
5.4561772346

> <CNN_VS>
1.5668435097

> <CNNaffinity_variance>
0.1454895288

$$$$
[H]c1nc(N2C([H])([H])C([H])([H])N(C(=O)N([H])c3c([H])c([H])c(C(C([H])([H])[H])(C([H])([H])[H])C([H])([H])[H])c([H])c3[H])C([H])([H])C2([H])[H])c(Cl)c([H])c1[H]


 27 29  0  0  0  0  0  0  0  0999 V2000
  155.9586  140.8811  183.2308 N   0  0  0  0  0  0  0  0  0  0  0  0
  155.2157  139.7476  183.6105 C   0  0  0  0  0  0  0  0  0  0  0  0
  155.5534  138.9578  184.5387 O   0  0  0  0  0  0  0  0  0  0  0  0
  153.9849  139.4565  182.9016 N   0  0  0  0  0  0  0  0  0  0  0  0
  153.2415  138.3257  183.2946 C   0  0  0  0  0  0  0  0  0  0  0  0
  151.7735  138.3647  182.9454 C   0  0  0  0  0  0  0  0  0  0  0  0
  151.5725  138.9306  181.6294 N   0  0  0  0  0  0  0  0  0  0  0  0
  152.3999  139.9534  181.0781 C   0  0  0  0  0  0  0  0  0  0  0  0
  153.6039  140.3333  181.8453 C   0  0  0  0  0  0  0  0  0  0  0  0
  155.5449  141.4684  182.4227 H   0  0  0  0  0  0  0  0  0  0  0  0
  150.4998  138.4220  180.8517 C   0  0  0  0  0  0  0  0  0  0  0  0
  149.8303  137.3272  181.3233 N   0  0  0  0  0  0  0  0  0  0  0  0
  148.8096  136.7996  180.6459 C   0  0  0  0  0  0  0  0  0  0  0  0
  148.3767  137.3242  179.4438 C   0  0  0  0  0  0  0  0  0  0  0  0
  149.0501  138.4224  178.9727 C   0  0  0  0  0  0  0  0  0  0  0  0
  150.0896  138.9670  179.6533 C   0  0  0  0  0  0  0  0  0  0  0  0
  150.9718  140.3747  179.0655 Cl  0  0  0  0  0  0  0  0  0  0  0  0
  159.6147  142.3727  184.7383 C   0  0  0  0  0  0  0  0  0  0  0  0
  159.0995  142.7825  183.5315 C   0  0  0  0  0  0  0  0  0  0  0  0
  157.9067  142.3039  183.0306 C   0  0  0  0  0  0  0  0  0  0  0  0
  157.1626  141.3596  183.7556 C   0  0  0  0  0  0  0  0  0  0  0  0
  157.6789  140.9570  184.9519 C   0  0  0  0  0  0  0  0  0  0  0  0
  158.9014  141.4554  185.4524 C   0  0  0  0  0  0  0  0  0  0  0  0
  162.0312  142.1036  184.6500 C   0  0  0  0  0  0  0  0  0  0  0  0
  160.9017  142.9429  185.1925 C   0  0  0  0  0  0  0  0  0  0  0  0
  160.9740  142.9067  186.6915 C   0  0  0  0  0  0  0  0  0  0  0  0
  161.0831  144.3658  184.7103 C   0  0  0  0  0  0  0  0  0  0  0  0
 24 25  1  0  0  0
 25 26  1  0  0  0
 25 27  1  0  0  0
 25 18  1  0  0  0
 18 19  2  0  0  0
 19 20  1  0  0  0
 20 21  2  0  0  0
 21  1  1  0  0  0
  1  2  1  0  0  0
  2  3  2  0  0  0
  2  4  1  0  0  0
  4  5  1  0  0  0
  5  6  1  0  0  0
  6  7  1  0  0  0
  7  8  1  0  0  0
  8  9  1  0  0  0
  7 11  1  0  0  0
 11 12  2  0  0  0
 12 13  1  0  0  0
 13 14  2  0  0  0
 14 15  1  0  0  0
 15 16  2  0  0  0
 16 17  1  0  0  0
 21 22  1  0  0  0
 22 23  2  0  0  0
 23 18  1  0  0  0
  9  4  1  0  0  0
 16 11  1  0  0  0
  1 10  1  0  0  0
M  END
> <minimizedAffinity>
-9.07484

> <CNNscore>
0.2797006071

> <CNNaffinity>
5.8960485458

> <CNN_VS>
1.6491283178

> <CNNaffinity_variance>
0.0865708292

$$$$
[H]c1nc(N2C([H])([H])C([H])([H])c3nc(N4C([H])([H])C([H])([H])C([H])([H])C([H])([H])C4([H])[H])nc(N([H])c4c([H])c([H])c(C(F)(F)F)c(Cl)c4[H])c3C([H])([H])C2([H])[H])c(C(F)(F)F)c([H])c1[H]


 40 44  0  0  0  0  0  0  0  0999 V2000
  154.5232  138.4788  184.4511 C   0  0  0  0  0  0  0  0  0  0  0  0
  155.6344  139.2475  184.4841 N   0  0  0  0  0  0  0  0  0  0  0  0
  155.9260  140.2222  183.6120 C   0  0  0  0  0  0  0  0  0  0  0  0
  155.0120  140.4325  182.6252 N   0  0  0  0  0  0  0  0  0  0  0  0
  153.9009  139.7377  182.5078 C   0  0  0  0  0  0  0  0  0  0  0  0
  153.0151  140.1455  181.3575 C   0  0  0  0  0  0  0  0  0  0  0  0
  151.5924  140.2898  181.8669 C   0  0  0  0  0  0  0  0  0  0  0  0
  150.9792  138.9994  181.9387 N   0  0  0  0  0  0  0  0  0  0  0  0
  151.5949  137.7755  182.3048 C   0  0  0  0  0  0  0  0  0  0  0  0
  152.4922  137.8085  183.5118 C   0  0  0  0  0  0  0  0  0  0  0  0
  153.6199  138.7222  183.4328 C   0  0  0  0  0  0  0  0  0  0  0  0
  149.6006  138.9344  181.6245 C   0  0  0  0  0  0  0  0  0  0  0  0
  148.7841  138.8434  182.7271 N   0  0  0  0  0  0  0  0  0  0  0  0
  147.4599  138.7884  182.6725 C   0  0  0  0  0  0  0  0  0  0  0  0
  146.8756  138.8257  181.4290 C   0  0  0  0  0  0  0  0  0  0  0  0
  147.6498  138.9158  180.3029 C   0  0  0  0  0  0  0  0  0  0  0  0
  149.0502  138.9726  180.3773 C   0  0  0  0  0  0  0  0  0  0  0  0
  149.8796  139.0531  179.1793 C   0  0  0  0  0  0  0  0  0  0  0  0
  149.2008  138.9454  177.9832 F   0  0  0  0  0  0  0  0  0  0  0  0
  150.3262  140.4128  179.1413 F   0  0  0  0  0  0  0  0  0  0  0  0
  151.0370  138.3499  179.2547 F   0  0  0  0  0  0  0  0  0  0  0  0
  157.0947  141.0162  183.6667 N   0  0  0  0  0  0  0  0  0  0  0  0
  157.4209  141.8306  182.5486 C   0  0  0  0  0  0  0  0  0  0  0  0
  158.5061  142.8331  182.7847 C   0  0  0  0  0  0  0  0  0  0  0  0
  159.5548  142.4158  183.7490 C   0  0  0  0  0  0  0  0  0  0  0  0
  159.3714  141.0540  184.3411 C   0  0  0  0  0  0  0  0  0  0  0  0
  157.9238  140.9858  184.8449 C   0  0  0  0  0  0  0  0  0  0  0  0
  154.3031  137.5072  185.4646 N   0  0  0  0  0  0  0  0  0  0  0  0
  153.7972  136.6177  185.1423 H   0  0  0  0  0  0  0  0  0  0  0  0
  155.1068  137.8807  189.5831 C   0  0  0  0  0  0  0  0  0  0  0  0
  154.1663  138.6487  188.9455 C   0  0  0  0  0  0  0  0  0  0  0  0
  153.9536  138.4871  187.6063 C   0  0  0  0  0  0  0  0  0  0  0  0
  154.6527  137.5604  186.8107 C   0  0  0  0  0  0  0  0  0  0  0  0
  155.5871  136.8020  187.4647 C   0  0  0  0  0  0  0  0  0  0  0  0
  155.8002  136.9695  188.8250 C   0  0  0  0  0  0  0  0  0  0  0  0
  157.0049  135.9806  189.6250 Cl  0  0  0  0  0  0  0  0  0  0  0  0
  154.7074  137.0310  191.7205 F   0  0  0  0  0  0  0  0  0  0  0  0
  155.3521  138.0457  191.0456 C   0  0  0  0  0  0  0  0  0  0  0  0
  154.7576  139.2347  191.4774 F   0  0  0  0  0  0  0  0  0  0  0  0
  156.6766  138.1105  191.3459 F   0  0  0  0  0  0  0  0  0  0  0  0
 37 38  1  0  0  0
 38 39  1  0  0  0
 38 40  1  0  0  0
 38 30  1  0  0  0
 30 31  2  0  0  0
 31 32  1  0  0  0
 32 33  2  0  0  0
 33 28  1  0  0  0
 28  1  1  0  0  0
  1  2  2  0  0  0
  2  3  1  0  0  0
  3  4  2  0  0  0
  4  5  1  0  0  0
  5  6  1  0  0  0
  6  7  1  0  0  0
  7  8  1  0  0  0
  8  9  1  0  0  0
  9 10  1  0  0  0
 10 11  1  0  0  0
  8 12  1  0  0  0
 12 13  2  0  0  0
 13 14  1  0  0  0
 14 15  2  0  0  0
 15 16  1  0  0  0
 16 17  2  0  0  0
 17 18  1  0  0  0
 18 19  1  0  0  0
 18 20  1  0  0  0
 18 21  1  0  0  0
  3 22  1  0  0  0
 22 23  1  0  0  0
 23 24  1  0  0  0
 24 25  1  0  0  0
 25 26  1  0  0  0
 26 27  1  0  0  0
 33 34  1  0  0  0
 34 35  2  0  0  0
 35 36  1  0  0  0
 35 30  1  0  0  0
 11  1  1  0  0  0
 17 12  1  0  0  0
 27 22  1  0  0  0
 11  5  2  0  0  0
 28 29  1  0  0  0
M  END
> <minimizedAffinity>
-10.12410

> <CNNscore>
0.5550740957

> <CNNaffinity>
7.2860183716

> <CNN_VS>
4.0442800522

> <CNNaffinity_variance>
0.0323688276

$$$$
[H]c1nc(N2C([H])([H])C([H])([H])c3nc(N4C([H])([H])C([H])([H])C([H])([H])C([H])([H])C4([H])[H])nc(N([H])c4c([H])c([H])c(C(F)(F)F)c(Cl)c4[H])c3C([H])([H])C2([H])[H])c(C(F)(F)F)c([H])c1[H]


 40 44  0  0  0  0  0  0  0  0999 V2000
  153.7628  138.7297  184.1562 C   0  0  0  0  0  0  0  0  0  0  0  0
  154.8576  139.5216  184.1883 N   0  0  0  0  0  0  0  0  0  0  0  0
  155.2462  140.3434  183.2037 C   0  0  0  0  0  0  0  0  0  0  0  0
  154.4560  140.3613  182.0952 N   0  0  0  0  0  0  0  0  0  0  0  0
  153.3709  139.6281  181.9680 C   0  0  0  0  0  0  0  0  0  0  0  0
  152.6272  139.8139  180.6694 C   0  0  0  0  0  0  0  0  0  0  0  0
  151.1529  140.0048  180.9765 C   0  0  0  0  0  0  0  0  0  0  0  0
  150.5429  138.7292  181.1939 N   0  0  0  0  0  0  0  0  0  0  0  0
  151.1171  137.6005  181.8320 C   0  0  0  0  0  0  0  0  0  0  0  0
  151.8630  137.8589  183.1126 C   0  0  0  0  0  0  0  0  0  0  0  0
  152.9868  138.7753  183.0125 C   0  0  0  0  0  0  0  0  0  0  0  0
  149.2123  138.5768  180.7359 C   0  0  0  0  0  0  0  0  0  0  0  0
  149.1176  138.2685  179.3992 N   0  0  0  0  0  0  0  0  0  0  0  0
  147.9735  138.0634  178.7600 C   0  0  0  0  0  0  0  0  0  0  0  0
  146.8134  138.1679  179.4894 C   0  0  0  0  0  0  0  0  0  0  0  0
  146.8598  138.4734  180.8237 C   0  0  0  0  0  0  0  0  0  0  0  0
  148.0786  138.6881  181.4857 C   0  0  0  0  0  0  0  0  0  0  0  0
  148.1318  139.0289  182.9036 C   0  0  0  0  0  0  0  0  0  0  0  0
  148.2673  140.3730  183.1830 F   0  0  0  0  0  0  0  0  0  0  0  0
  146.8116  138.7607  183.3882 F   0  0  0  0  0  0  0  0  0  0  0  0
  148.9076  138.2010  183.6470 F   0  0  0  0  0  0  0  0  0  0  0  0
  156.3953  141.1653  183.2595 N   0  0  0  0  0  0  0  0  0  0  0  0
  157.2042  141.1313  184.4276 C   0  0  0  0  0  0  0  0  0  0  0  0
  158.5308  141.8121  184.3048 C   0  0  0  0  0  0  0  0  0  0  0  0
  158.5576  142.9882  183.3994 C   0  0  0  0  0  0  0  0  0  0  0  0
  157.2536  143.3190  182.7446 C   0  0  0  0  0  0  0  0  0  0  0  0
  156.7220  142.0126  182.1405 C   0  0  0  0  0  0  0  0  0  0  0  0
  153.4282  137.9366  185.2869 N   0  0  0  0  0  0  0  0  0  0  0  0
  152.5817  137.2905  185.1571 H   0  0  0  0  0  0  0  0  0  0  0  0
  155.0554  137.9878  189.1725 C   0  0  0  0  0  0  0  0  0  0  0  0
  153.9592  138.7352  188.8252 C   0  0  0  0  0  0  0  0  0  0  0  0
  153.4799  138.6826  187.5475 C   0  0  0  0  0  0  0  0  0  0  0  0
  154.0488  137.8918  186.5319 C   0  0  0  0  0  0  0  0  0  0  0  0
  155.1420  137.1518  186.8975 C   0  0  0  0  0  0  0  0  0  0  0  0
  155.6257  137.2084  188.1961 C   0  0  0  0  0  0  0  0  0  0  0  0
  157.0266  136.2474  188.6243 Cl  0  0  0  0  0  0  0  0  0  0  0  0
  154.9522  139.0434  191.2522 F   0  0  0  0  0  0  0  0  0  0  0  0
  155.5922  138.0348  190.5639 C   0  0  0  0  0  0  0  0  0  0  0  0
  156.9424  138.3937  190.5208 F   0  0  0  0  0  0  0  0  0  0  0  0
  155.5013  136.8347  191.1964 F   0  0  0  0  0  0  0  0  0  0  0  0
 37 38  1  0  0  0
 38 39  1  0  0  0
 38 40  1  0  0  0
 38 30  1  0  0  0
 30 31  2  0  0  0
 31 32  1  0  0  0
 32 33  2  0  0  0
 33 28  1  0  0  0
 28  1  1  0  0  0
  1  2  2  0  0  0
  2  3  1  0  0  0
  3  4  2  0  0  0
  4  5  1  0  0  0
  5  6  1  0  0  0
  6  7  1  0  0  0
  7  8  1  0  0  0
  8  9  1  0  0  0
  9 10  1  0  0  0
 10 11  1  0  0  0
  8 12  1  0  0  0
 12 13  2  0  0  0
 13 14  1  0  0  0
 14 15  2  0  0  0
 15 16  1  0  0  0
 16 17  2  0  0  0
 17 18  1  0  0  0
 18 19  1  0  0  0
 18 20  1  0  0  0
 18 21  1  0  0  0
  3 22  1  0  0  0
 22 23  1  0  0  0
 23 24  1  0  0  0
 24 25  1  0  0  0
 25 26  1  0  0  0
 26 27  1  0  0  0
 33 34  1  0  0  0
 34 35  2  0  0  0
 35 36  1  0  0  0
 35 30  1  0  0  0
 11  1  1  0  0  0
 17 12  1  0  0  0
 27 22  1  0  0  0
 11  5  2  0  0  0
 28 29  1  0  0  0
M  END
> <minimizedAffinity>
-9.70664

> <CNNscore>
0.5398986936

> <CNNaffinity>
7.2611494064

> <CNN_VS>
3.9202849865

> <CNNaffinity_variance>
0.0289380215

$$$$
[H]c1nc(N2C([H])([H])C([H])([H])c3nc(N4C([H])([H])C([H])([H])C([H])([H])C([H])([H])C4([H])[H])nc(N([H])c4c([H])c([H])c(C(F)(F)F)c(Cl)c4[H])c3C([H])([H])C2([H])[H])c(C(F)(F)F)c([H])c1[H]


 40 44  0  0  0  0  0  0  0  0999 V2000
  153.0553  138.2192  183.7738 C   0  0  0  0  0  0  0  0  0  0  0  0
  151.9263  138.0900  183.0421 N   0  0  0  0  0  0  0  0  0  0  0  0
  151.5240  138.9381  182.0856 C   0  0  0  0  0  0  0  0  0  0  0  0
  152.3371  140.0053  181.8544 N   0  0  0  0  0  0  0  0  0  0  0  0
  153.4559  140.2189  182.5131 C   0  0  0  0  0  0  0  0  0  0  0  0
  154.2195  141.4475  182.0870 C   0  0  0  0  0  0  0  0  0  0  0  0
  155.6767  141.0705  181.8909 C   0  0  0  0  0  0  0  0  0  0  0  0
  156.3372  141.0467  183.1596 N   0  0  0  0  0  0  0  0  0  0  0  0
  155.7990  140.6184  184.3997 C   0  0  0  0  0  0  0  0  0  0  0  0
  155.0142  139.3351  184.3852 C   0  0  0  0  0  0  0  0  0  0  0  0
  153.8538  139.3169  183.5101 C   0  0  0  0  0  0  0  0  0  0  0  0
  157.6830  141.4845  183.1818 C   0  0  0  0  0  0  0  0  0  0  0  0
  158.5677  140.5354  183.6371 N   0  0  0  0  0  0  0  0  0  0  0  0
  159.8784  140.7189  183.7265 C   0  0  0  0  0  0  0  0  0  0  0  0
  160.3746  141.9398  183.3364 C   0  0  0  0  0  0  0  0  0  0  0  0
  159.5303  142.9152  182.8765 C   0  0  0  0  0  0  0  0  0  0  0  0
  158.1454  142.7057  182.7883 C   0  0  0  0  0  0  0  0  0  0  0  0
  157.2405  143.7475  182.3135 C   0  0  0  0  0  0  0  0  0  0  0  0
  156.1331  143.9731  183.1045 F   0  0  0  0  0  0  0  0  0  0  0  0
  157.9739  144.9655  182.4819 F   0  0  0  0  0  0  0  0  0  0  0  0
  157.0023  143.7127  180.9786 F   0  0  0  0  0  0  0  0  0  0  0  0
  150.3389  138.7824  181.3303 N   0  0  0  0  0  0  0  0  0  0  0  0
  150.4196  138.8381  179.9125 C   0  0  0  0  0  0  0  0  0  0  0  0
  149.1877  138.3989  179.1858 C   0  0  0  0  0  0  0  0  0  0  0  0
  147.9074  138.6795  179.8829 C   0  0  0  0  0  0  0  0  0  0  0  0
  148.0389  139.3609  181.2085 C   0  0  0  0  0  0  0  0  0  0  0  0
  149.0841  138.5705  182.0065 C   0  0  0  0  0  0  0  0  0  0  0  0
  153.3992  137.2238  184.7281 N   0  0  0  0  0  0  0  0  0  0  0  0
  153.2265  136.2123  184.4153 H   0  0  0  0  0  0  0  0  0  0  0  0
  154.7225  137.9180  188.6671 C   0  0  0  0  0  0  0  0  0  0  0  0
  153.6373  138.5638  188.1320 C   0  0  0  0  0  0  0  0  0  0  0  0
  153.2587  138.3023  186.8462 C   0  0  0  0  0  0  0  0  0  0  0  0
  153.9237  137.3894  186.0067 C   0  0  0  0  0  0  0  0  0  0  0  0
  155.0042  136.7536  186.5583 C   0  0  0  0  0  0  0  0  0  0  0  0
  155.3856  137.0224  187.8644 C   0  0  0  0  0  0  0  0  0  0  0  0
  156.7737  136.1890  188.5335 Cl  0  0  0  0  0  0  0  0  0  0  0  0
  154.5252  139.3421  190.5063 F   0  0  0  0  0  0  0  0  0  0  0  0
  155.1498  138.1932  190.0699 C   0  0  0  0  0  0  0  0  0  0  0  0
  156.5198  138.4699  190.0841 F   0  0  0  0  0  0  0  0  0  0  0  0
  154.9308  137.1361  190.8963 F   0  0  0  0  0  0  0  0  0  0  0  0
 37 38  1  0  0  0
 38 39  1  0  0  0
 38 40  1  0  0  0
 38 30  1  0  0  0
 30 31  2  0  0  0
 31 32  1  0  0  0
 32 33  2  0  0  0
 33 28  1  0  0  0
 28  1  1  0  0  0
  1  2  2  0  0  0
  2  3  1  0  0  0
  3  4  2  0  0  0
  4  5  1  0  0  0
  5  6  1  0  0  0
  6  7  1  0  0  0
  7  8  1  0  0  0
  8  9  1  0  0  0
  9 10  1  0  0  0
 10 11  1  0  0  0
  8 12  1  0  0  0
 12 13  2  0  0  0
 13 14  1  0  0  0
 14 15  2  0  0  0
 15 16  1  0  0  0
 16 17  2  0  0  0
 17 18  1  0  0  0
 18 19  1  0  0  0
 18 20  1  0  0  0
 18 21  1  0  0  0
  3 22  1  0  0  0
 22 23  1  0  0  0
 23 24  1  0  0  0
 24 25  1  0  0  0
 25 26  1  0  0  0
 26 27  1  0  0  0
 33 34  1  0  0  0
 34 35  2  0  0  0
 35 36  1  0  0  0
 35 30  1  0  0  0
 11  1  1  0  0  0
 17 12  1  0  0  0
 27 22  1  0  0  0
 11  5  2  0  0  0
 28 29  1  0  0  0
M  END
> <minimizedAffinity>
-10.48956

> <CNNscore>
0.4983780980

> <CNNaffinity>
7.5157637596

> <CNN_VS>
3.7456920147

> <CNNaffinity_variance>
0.1083384007

$$$$
[H]c1nc(N2C([H])([H])C([H])([H])c3nc(N4C([H])([H])C([H])([H])C([H])([H])C([H])([H])C4([H])[H])nc(N([H])c4c([H])c([H])c(C(F)(F)F)c(Cl)c4[H])c3C([H])([H])C2([H])[H])c(C(F)(F)F)c([H])c1[H]


 40 44  0  0  0  0  0  0  0  0999 V2000
  154.8655  138.9728  184.3821 C   0  0  0  0  0  0  0  0  0  0  0  0
  154.0634  139.2032  183.3189 N   0  0  0  0  0  0  0  0  0  0  0  0
  152.8808  138.6119  183.1005 C   0  0  0  0  0  0  0  0  0  0  0  0
  152.4811  137.7124  184.0410 N   0  0  0  0  0  0  0  0  0  0  0  0
  153.1902  137.4196  185.1099 C   0  0  0  0  0  0  0  0  0  0  0  0
  152.5563  136.4131  186.0368 C   0  0  0  0  0  0  0  0  0  0  0  0
  152.6369  136.9421  187.4574 C   0  0  0  0  0  0  0  0  0  0  0  0
  153.9380  136.6786  187.9903 N   0  0  0  0  0  0  0  0  0  0  0  0
  155.1740  136.7170  187.2962 C   0  0  0  0  0  0  0  0  0  0  0  0
  155.3968  137.8919  186.3835 C   0  0  0  0  0  0  0  0  0  0  0  0
  154.4250  138.0515  185.3145 C   0  0  0  0  0  0  0  0  0  0  0  0
  154.0058  136.3580  189.3673 C   0  0  0  0  0  0  0  0  0  0  0  0
  153.5399  135.0996  189.6675 N   0  0  0  0  0  0  0  0  0  0  0  0
  153.5244  134.5813  190.8884 C   0  0  0  0  0  0  0  0  0  0  0  0
  154.0075  135.3598  191.9128 C   0  0  0  0  0  0  0  0  0  0  0  0
  154.4814  136.6197  191.6603 C   0  0  0  0  0  0  0  0  0  0  0  0
  154.4907  137.1543  190.3626 C   0  0  0  0  0  0  0  0  0  0  0  0
  154.9805  138.5020  190.0915 C   0  0  0  0  0  0  0  0  0  0  0  0
  154.1330  139.3002  189.3515 F   0  0  0  0  0  0  0  0  0  0  0  0
  154.9604  139.1554  191.3652 F   0  0  0  0  0  0  0  0  0  0  0  0
  156.2882  138.5585  189.7361 F   0  0  0  0  0  0  0  0  0  0  0  0
  152.0563  138.8698  181.9812 N   0  0  0  0  0  0  0  0  0  0  0  0
  151.0709  137.9106  181.6224 C   0  0  0  0  0  0  0  0  0  0  0  0
  150.0711  138.3716  180.6093 C   0  0  0  0  0  0  0  0  0  0  0  0
  150.5843  139.3405  179.6085 C   0  0  0  0  0  0  0  0  0  0  0  0
  152.0258  139.7114  179.7607 C   0  0  0  0  0  0  0  0  0  0  0  0
  152.2284  140.0898  181.2337 C   0  0  0  0  0  0  0  0  0  0  0  0
  156.0769  139.7015  184.5271 N   0  0  0  0  0  0  0  0  0  0  0  0
  156.6223  139.5055  185.4299 H   0  0  0  0  0  0  0  0  0  0  0  0
  157.9972  142.2754  181.8003 C   0  0  0  0  0  0  0  0  0  0  0  0
  158.4556  141.0099  182.0637 C   0  0  0  0  0  0  0  0  0  0  0  0
  157.7946  140.2228  182.9628 C   0  0  0  0  0  0  0  0  0  0  0  0
  156.6417  140.6312  183.6588 C   0  0  0  0  0  0  0  0  0  0  0  0
  156.1983  141.8973  183.3824 C   0  0  0  0  0  0  0  0  0  0  0  0
  156.8728  142.6935  182.4688 C   0  0  0  0  0  0  0  0  0  0  0  0
  156.2746  144.3076  182.1429 Cl  0  0  0  0  0  0  0  0  0  0  0  0
  157.8934  143.3432  179.7269 F   0  0  0  0  0  0  0  0  0  0  0  0
  158.7086  143.1484  180.8215 C   0  0  0  0  0  0  0  0  0  0  0  0
  159.8382  142.4762  180.3464 F   0  0  0  0  0  0  0  0  0  0  0  0
  159.1239  144.3185  181.3755 F   0  0  0  0  0  0  0  0  0  0  0  0
 37 38  1  0  0  0
 38 39  1  0  0  0
 38 40  1  0  0  0
 38 30  1  0  0  0
 30 31  2  0  0  0
 31 32  1  0  0  0
 32 33  2  0  0  0
 33 28  1  0  0  0
 28  1  1  0  0  0
  1  2  2  0  0  0
  2  3  1  0  0  0
  3  4  2  0  0  0
  4  5  1  0  0  0
  5  6  1  0  0  0
  6  7  1  0  0  0
  7  8  1  0  0  0
  8  9  1  0  0  0
  9 10  1  0  0  0
 10 11  1  0  0  0
  8 12  1  0  0  0
 12 13  2  0  0  0
 13 14  1  0  0  0
 14 15  2  0  0  0
 15 16  1  0  0  0
 16 17  2  0  0  0
 17 18  1  0  0  0
 18 19  1  0  0  0
 18 20  1  0  0  0
 18 21  1  0  0  0
  3 22  1  0  0  0
 22 23  1  0  0  0
 23 24  1  0  0  0
 24 25  1  0  0  0
 25 26  1  0  0  0
 26 27  1  0  0  0
 33 34  1  0  0  0
 34 35  2  0  0  0
 35 36  1  0  0  0
 35 30  1  0  0  0
 11  1  1  0  0  0
 17 12  1  0  0  0
 27 22  1  0  0  0
 11  5  2  0  0  0
 28 29  1  0  0  0
M  END
> <minimizedAffinity>
-10.72434

> <CNNscore>
0.4721192420

> <CNNaffinity>
7.2645926476

> <CNN_VS>
3.4297540188

> <CNNaffinity_variance>
0.1089504138

$$$$
[H]c1nc(N2C([H])([H])C([H])([H])c3nc(N4C([H])([H])C([H])([H])C([H])([H])C([H])([H])C4([H])[H])nc(N([H])c4c([H])c([H])c(C(F)(F)F)c(Cl)c4[H])c3C([H])([H])C2([H])[H])c(C(F)(F)F)c([H])c1[H]


 40 44  0  0  0  0  0  0  0  0999 V2000
  154.8030  138.7390  184.4974 C   0  0  0  0  0  0  0  0  0  0  0  0
  154.0427  138.9928  183.4092 N   0  0  0  0  0  0  0  0  0  0  0  0
  152.8139  138.5034  183.1938 C   0  0  0  0  0  0  0  0  0  0  0  0
  152.3176  137.6891  184.1653 N   0  0  0  0  0  0  0  0  0  0  0  0
  152.9794  137.3820  185.2602 C   0  0  0  0  0  0  0  0  0  0  0  0
  152.2400  136.4822  186.2182 C   0  0  0  0  0  0  0  0  0  0  0  0
  152.3470  137.0668  187.6151 C   0  0  0  0  0  0  0  0  0  0  0  0
  153.6094  136.7095  188.1852 N   0  0  0  0  0  0  0  0  0  0  0  0
  154.8545  136.6017  187.5150 C   0  0  0  0  0  0  0  0  0  0  0  0
  155.1999  137.7076  186.5554 C   0  0  0  0  0  0  0  0  0  0  0  0
  154.2641  137.9063  185.4610 C   0  0  0  0  0  0  0  0  0  0  0  0
  153.6254  136.4482  189.5762 C   0  0  0  0  0  0  0  0  0  0  0  0
  153.0016  135.2741  189.9273 N   0  0  0  0  0  0  0  0  0  0  0  0
  152.9111  134.8199  191.1703 C   0  0  0  0  0  0  0  0  0  0  0  0
  153.4808  135.5788  192.1645 C   0  0  0  0  0  0  0  0  0  0  0  0
  154.1123  136.7556  191.8612 C   0  0  0  0  0  0  0  0  0  0  0  0
  154.1993  137.2231  190.5407 C   0  0  0  0  0  0  0  0  0  0  0  0
  154.8577  138.4839  190.2149 C   0  0  0  0  0  0  0  0  0  0  0  0
  154.1427  139.3275  189.3902 F   0  0  0  0  0  0  0  0  0  0  0  0
  154.8652  139.2148  191.4460 F   0  0  0  0  0  0  0  0  0  0  0  0
  156.1761  138.3639  189.9192 F   0  0  0  0  0  0  0  0  0  0  0  0
  152.0348  138.7840  182.0477 N   0  0  0  0  0  0  0  0  0  0  0  0
  151.0421  137.8480  181.6499 C   0  0  0  0  0  0  0  0  0  0  0  0
  150.0884  138.3350  180.6051 C   0  0  0  0  0  0  0  0  0  0  0  0
  150.6570  139.2969  179.6277 C   0  0  0  0  0  0  0  0  0  0  0  0
  152.1000  139.6358  179.8318 C   0  0  0  0  0  0  0  0  0  0  0  0
  152.2592  140.0032  181.3130 C   0  0  0  0  0  0  0  0  0  0  0  0
  156.0745  139.3589  184.6341 N   0  0  0  0  0  0  0  0  0  0  0  0
  156.7205  138.9187  185.3688 H   0  0  0  0  0  0  0  0  0  0  0  0
  157.3654  142.8576  182.6744 C   0  0  0  0  0  0  0  0  0  0  0  0
  156.1718  142.7898  183.3463 C   0  0  0  0  0  0  0  0  0  0  0  0
  155.8031  141.6257  183.9578 C   0  0  0  0  0  0  0  0  0  0  0  0
  156.5854  140.4559  183.9464 C   0  0  0  0  0  0  0  0  0  0  0  0
  157.7740  140.5427  183.2714 C   0  0  0  0  0  0  0  0  0  0  0  0
  158.1445  141.7269  182.6515 C   0  0  0  0  0  0  0  0  0  0  0  0
  159.6725  141.7977  181.7974 Cl  0  0  0  0  0  0  0  0  0  0  0  0
  158.9158  144.6022  182.6206 F   0  0  0  0  0  0  0  0  0  0  0  0
  157.7824  144.1216  182.0000 C   0  0  0  0  0  0  0  0  0  0  0  0
  156.7949  145.0912  182.1960 F   0  0  0  0  0  0  0  0  0  0  0  0
  157.9501  143.9644  180.6600 F   0  0  0  0  0  0  0  0  0  0  0  0
 37 38  1  0  0  0
 38 39  1  0  0  0
 38 40  1  0  0  0
 38 30  1  0  0  0
 30 31  2  0  0  0
 31 32  1  0  0  0
 32 33  2  0  0  0
 33 28  1  0  0  0
 28  1  1  0  0  0
  1  2  2  0  0  0
  2  3  1  0  0  0
  3  4  2  0  0  0
  4  5  1  0  0  0
  5  6  1  0  0  0
  6  7  1  0  0  0
  7  8  1  0  0  0
  8  9  1  0  0  0
  9 10  1  0  0  0
 10 11  1  0  0  0
  8 12  1  0  0  0
 12 13  2  0  0  0
 13 14  1  0  0  0
 14 15  2  0  0  0
 15 16  1  0  0  0
 16 17  2  0  0  0
 17 18  1  0  0  0
 18 19  1  0  0  0
 18 20  1  0  0  0
 18 21  1  0  0  0
  3 22  1  0  0  0
 22 23  1  0  0  0
 23 24  1  0  0  0
 24 25  1  0  0  0
 25 26  1  0  0  0
 26 27  1  0  0  0
 33 34  1  0  0  0
 34 35  2  0  0  0
 35 36  1  0  0  0
 35 30  1  0  0  0
 11  1  1  0  0  0
 17 12  1  0  0  0
 27 22  1  0  0  0
 11  5  2  0  0  0
 28 29  1  0  0  0
M  END
> <minimizedAffinity>
-10.29250

> <CNNscore>
0.4355858862

> <CNNaffinity>
7.2458753586

> <CNN_VS>
3.1562011242

> <CNNaffinity_variance>
0.1808496416

$$$$
[H]c1nc(N2C([H])([H])C([H])([H])c3nc(N4C([H])([H])C([H])([H])C([H])([H])C([H])([H])C4([H])[H])nc(N([H])c4c([H])c([H])c(C(F)(F)F)c(Cl)c4[H])c3C([H])([H])C2([H])[H])c(C(F)(F)F)c([H])c1[H]


 40 44  0  0  0  0  0  0  0  0999 V2000
  153.5543  138.0869  183.8504 C   0  0  0  0  0  0  0  0  0  0  0  0
  152.4049  138.0621  183.1398 N   0  0  0  0  0  0  0  0  0  0  0  0
  151.9722  139.0427  182.3355 C   0  0  0  0  0  0  0  0  0  0  0  0
  152.7748  140.1388  182.2466 N   0  0  0  0  0  0  0  0  0  0  0  0
  153.9117  140.2581  182.8981 C   0  0  0  0  0  0  0  0  0  0  0  0
  154.6586  141.5429  182.6425 C   0  0  0  0  0  0  0  0  0  0  0  0
  156.1107  141.2112  182.3501 C   0  0  0  0  0  0  0  0  0  0  0  0
  156.8080  140.9996  183.5811 N   0  0  0  0  0  0  0  0  0  0  0  0
  156.3076  140.3836  184.7563 C   0  0  0  0  0  0  0  0  0  0  0  0
  155.5268  139.1115  184.5687 C   0  0  0  0  0  0  0  0  0  0  0  0
  154.3414  139.2180  183.7343 C   0  0  0  0  0  0  0  0  0  0  0  0
  158.1526  141.4391  183.6315 C   0  0  0  0  0  0  0  0  0  0  0  0
  158.6428  141.5795  184.9084 N   0  0  0  0  0  0  0  0  0  0  0  0
  159.8804  141.9618  185.1948 C   0  0  0  0  0  0  0  0  0  0  0  0
  160.7191  142.2325  184.1403 C   0  0  0  0  0  0  0  0  0  0  0  0
  160.2736  142.1064  182.8514 C   0  0  0  0  0  0  0  0  0  0  0  0
  158.9608  141.7012  182.5647 C   0  0  0  0  0  0  0  0  0  0  0  0
  158.4774  141.5805  181.1931 C   0  0  0  0  0  0  0  0  0  0  0  0
  157.4693  142.4549  180.8434 F   0  0  0  0  0  0  0  0  0  0  0  0
  159.5636  142.0479  180.3860 F   0  0  0  0  0  0  0  0  0  0  0  0
  158.3081  140.3021  180.7726 F   0  0  0  0  0  0  0  0  0  0  0  0
  150.7661  138.9948  181.5992 N   0  0  0  0  0  0  0  0  0  0  0  0
  149.6655  138.2735  182.1361 C   0  0  0  0  0  0  0  0  0  0  0  0
  148.3589  138.4929  181.4410 C   0  0  0  0  0  0  0  0  0  0  0  0
  148.4536  138.7548  179.9829 C   0  0  0  0  0  0  0  0  0  0  0  0
  149.8416  138.7594  179.4244 C   0  0  0  0  0  0  0  0  0  0  0  0
  150.6764  139.6733  180.3311 C   0  0  0  0  0  0  0  0  0  0  0  0
  153.9290  136.9606  184.6318 N   0  0  0  0  0  0  0  0  0  0  0  0
  153.8509  136.0133  184.1344 H   0  0  0  0  0  0  0  0  0  0  0  0
  155.4869  136.6046  188.5298 C   0  0  0  0  0  0  0  0  0  0  0  0
  155.7874  135.7107  187.5341 C   0  0  0  0  0  0  0  0  0  0  0  0
  155.2471  135.8740  186.2905 C   0  0  0  0  0  0  0  0  0  0  0  0
  154.3776  136.9265  185.9489 C   0  0  0  0  0  0  0  0  0  0  0  0
  154.0896  137.8095  186.9557 C   0  0  0  0  0  0  0  0  0  0  0  0
  154.6403  137.6398  188.2173 C   0  0  0  0  0  0  0  0  0  0  0  0
  154.2470  138.7903  189.4785 Cl  0  0  0  0  0  0  0  0  0  0  0  0
  156.8321  135.2924  189.9149 F   0  0  0  0  0  0  0  0  0  0  0  0
  156.0680  136.4397  189.8942 C   0  0  0  0  0  0  0  0  0  0  0  0
  155.0327  136.2302  190.8095 F   0  0  0  0  0  0  0  0  0  0  0  0
  156.7641  137.5356  190.2980 F   0  0  0  0  0  0  0  0  0  0  0  0
 37 38  1  0  0  0
 38 39  1  0  0  0
 38 40  1  0  0  0
 38 30  1  0  0  0
 30 31  2  0  0  0
 31 32  1  0  0  0
 32 33  2  0  0  0
 33 28  1  0  0  0
 28  1  1  0  0  0
  1  2  2  0  0  0
  2  3  1  0  0  0
  3  4  2  0  0  0
  4  5  1  0  0  0
  5  6  1  0  0  0
  6  7  1  0  0  0
  7  8  1  0  0  0
  8  9  1  0  0  0
  9 10  1  0  0  0
 10 11  1  0  0  0
  8 12  1  0  0  0
 12 13  2  0  0  0
 13 14  1  0  0  0
 14 15  2  0  0  0
 15 16  1  0  0  0
 16 17  2  0  0  0
 17 18  1  0  0  0
 18 19  1  0  0  0
 18 20  1  0  0  0
 18 21  1  0  0  0
  3 22  1  0  0  0
 22 23  1  0  0  0
 23 24  1  0  0  0
 24 25  1  0  0  0
 25 26  1  0  0  0
 26 27  1  0  0  0
 33 34  1  0  0  0
 34 35  2  0  0  0
 35 36  1  0  0  0
 35 30  1  0  0  0
 11  1  1  0  0  0
 17 12  1  0  0  0
 27 22  1  0  0  0
 11  5  2  0  0  0
 28 29  1  0  0  0
M  END
> <minimizedAffinity>
-9.59366

> <CNNscore>
0.3939233124

> <CNNaffinity>
7.3755822182

> <CNN_VS>
2.9054138660

> <CNNaffinity_variance>
0.1038824916

$$$$
[H]c1nc(N2C([H])([H])C([H])([H])c3nc(N4C([H])([H])C([H])([H])C([H])([H])C([H])([H])C4([H])[H])nc(N([H])c4c([H])c([H])c(C(F)(F)F)c(Cl)c4[H])c3C([H])([H])C2([H])[H])c(C(F)(F)F)c([H])c1[H]


 40 44  0  0  0  0  0  0  0  0999 V2000
  154.0021  138.3239  184.0312 C   0  0  0  0  0  0  0  0  0  0  0  0
  152.9076  137.7837  183.4506 N   0  0  0  0  0  0  0  0  0  0  0  0
  152.1540  138.3804  182.5169 C   0  0  0  0  0  0  0  0  0  0  0  0
  152.5461  139.6293  182.1428 N   0  0  0  0  0  0  0  0  0  0  0  0
  153.5959  140.2402  182.6486 C   0  0  0  0  0  0  0  0  0  0  0  0
  153.8686  141.6103  182.0806 C   0  0  0  0  0  0  0  0  0  0  0  0
  155.3406  141.7036  181.7217 C   0  0  0  0  0  0  0  0  0  0  0  0
  156.1003  141.9925  182.8989 N   0  0  0  0  0  0  0  0  0  0  0  0
  155.8626  141.5148  184.2127 C   0  0  0  0  0  0  0  0  0  0  0  0
  155.5422  140.0513  184.3487 C   0  0  0  0  0  0  0  0  0  0  0  0
  154.3671  139.5945  183.6253 C   0  0  0  0  0  0  0  0  0  0  0  0
  157.2244  142.8371  182.7363 C   0  0  0  0  0  0  0  0  0  0  0  0
  156.9007  144.1442  182.4584 N   0  0  0  0  0  0  0  0  0  0  0  0
  157.7905  145.1126  182.2848 C   0  0  0  0  0  0  0  0  0  0  0  0
  159.1191  144.7780  182.3917 C   0  0  0  0  0  0  0  0  0  0  0  0
  159.4881  143.4881  182.6670 C   0  0  0  0  0  0  0  0  0  0  0  0
  158.5344  142.4743  182.8476 C   0  0  0  0  0  0  0  0  0  0  0  0
  158.9235  141.0957  183.1258 C   0  0  0  0  0  0  0  0  0  0  0  0
  158.3677  140.1461  182.2937 F   0  0  0  0  0  0  0  0  0  0  0  0
  160.3065  141.0313  182.7612 F   0  0  0  0  0  0  0  0  0  0  0  0
  158.9365  140.7755  184.4438 F   0  0  0  0  0  0  0  0  0  0  0  0
  151.0131  137.7953  181.9210 N   0  0  0  0  0  0  0  0  0  0  0  0
  150.9555  136.3806  181.7982 C   0  0  0  0  0  0  0  0  0  0  0  0
  149.6198  135.8276  181.4128 C   0  0  0  0  0  0  0  0  0  0  0  0
  148.8054  136.6982  180.5281 C   0  0  0  0  0  0  0  0  0  0  0  0
  149.4417  137.9991  180.1521 C   0  0  0  0  0  0  0  0  0  0  0  0
  149.9399  138.6369  181.4556 C   0  0  0  0  0  0  0  0  0  0  0  0
  154.7486  137.5693  184.9761 N   0  0  0  0  0  0  0  0  0  0  0  0
  155.4047  136.8320  184.5557 H   0  0  0  0  0  0  0  0  0  0  0  0
  154.3857  137.7781  189.1682 C   0  0  0  0  0  0  0  0  0  0  0  0
  153.2982  137.6521  188.3419 C   0  0  0  0  0  0  0  0  0  0  0  0
  153.4774  137.5956  186.9893 C   0  0  0  0  0  0  0  0  0  0  0  0
  154.7371  137.6596  186.3650 C   0  0  0  0  0  0  0  0  0  0  0  0
  155.8110  137.7846  187.2059 C   0  0  0  0  0  0  0  0  0  0  0  0
  155.6246  137.8418  188.5791 C   0  0  0  0  0  0  0  0  0  0  0  0
  157.0237  138.0025  189.6212 Cl  0  0  0  0  0  0  0  0  0  0  0  0
  154.6036  139.0869  191.0890 F   0  0  0  0  0  0  0  0  0  0  0  0
  154.2070  137.8423  190.6481 C   0  0  0  0  0  0  0  0  0  0  0  0
  155.0713  136.9254  191.2528 F   0  0  0  0  0  0  0  0  0  0  0  0
  152.9396  137.5342  191.0320 F   0  0  0  0  0  0  0  0  0  0  0  0
 37 38  1  0  0  0
 38 39  1  0  0  0
 38 40  1  0  0  0
 38 30  1  0  0  0
 30 31  2  0  0  0
 31 32  1  0  0  0
 32 33  2  0  0  0
 33 28  1  0  0  0
 28  1  1  0  0  0
  1  2  2  0  0  0
  2  3  1  0  0  0
  3  4  2  0  0  0
  4  5  1  0  0  0
  5  6  1  0  0  0
  6  7  1  0  0  0
  7  8  1  0  0  0
  8  9  1  0  0  0
  9 10  1  0  0  0
 10 11  1  0  0  0
  8 12  1  0  0  0
 12 13  2  0  0  0
 13 14  1  0  0  0
 14 15  2  0  0  0
 15 16  1  0  0  0
 16 17  2  0  0  0
 17 18  1  0  0  0
 18 19  1  0  0  0
 18 20  1  0  0  0
 18 21  1  0  0  0
  3 22  1  0  0  0
 22 23  1  0  0  0
 23 24  1  0  0  0
 24 25  1  0  0  0
 25 26  1  0  0  0
 26 27  1  0  0  0
 33 34  1  0  0  0
 34 35  2  0  0  0
 35 36  1  0  0  0
 35 30  1  0  0  0
 11  1  1  0  0  0
 17 12  1  0  0  0
 27 22  1  0  0  0
 11  5  2  0  0  0
 28 29  1  0  0  0
M  END
> <minimizedAffinity>
-9.82071

> <CNNscore>
0.3590667546

> <CNNaffinity>
7.3399138451

> <CNN_VS>
2.6355190277

> <CNNaffinity_variance>
0.2187438309

$$$$
[H]c1nc(N2C([H])([H])C([H])([H])c3nc(N4C([H])([H])C([H])([H])C([H])([H])C([H])([H])C4([H])[H])nc(N([H])c4c([H])c([H])c(C(F)(F)F)c(Cl)c4[H])c3C([H])([H])C2([H])[H])c(C(F)(F)F)c([H])c1[H]


 40 44  0  0  0  0  0  0  0  0999 V2000
  154.3295  138.2108  185.2576 C   0  0  0  0  0  0  0  0  0  0  0  0
  154.5168  138.1853  186.5959 N   0  0  0  0  0  0  0  0  0  0  0  0
  153.5895  137.8400  187.4996 C   0  0  0  0  0  0  0  0  0  0  0  0
  152.3715  137.4918  187.0010 N   0  0  0  0  0  0  0  0  0  0  0  0
  152.0907  137.4849  185.7156 C   0  0  0  0  0  0  0  0  0  0  0  0
  150.6890  137.0461  185.3738 C   0  0  0  0  0  0  0  0  0  0  0  0
  150.7596  136.0187  184.2586 C   0  0  0  0  0  0  0  0  0  0  0  0
  150.9030  136.6883  183.0027 N   0  0  0  0  0  0  0  0  0  0  0  0
  151.6435  137.8685  182.7387 C   0  0  0  0  0  0  0  0  0  0  0  0
  153.0195  137.9483  183.3414 C   0  0  0  0  0  0  0  0  0  0  0  0
  153.0784  137.8517  184.7906 C   0  0  0  0  0  0  0  0  0  0  0  0
  150.2466  136.1029  181.8937 C   0  0  0  0  0  0  0  0  0  0  0  0
  150.7378  134.8661  181.5478 N   0  0  0  0  0  0  0  0  0  0  0  0
  150.2643  134.1266  180.5535 C   0  0  0  0  0  0  0  0  0  0  0  0
  149.2149  134.6381  179.8283 C   0  0  0  0  0  0  0  0  0  0  0  0
  148.6937  135.8664  180.1371 C   0  0  0  0  0  0  0  0  0  0  0  0
  149.2062  136.6372  181.1922 C   0  0  0  0  0  0  0  0  0  0  0  0
  148.6640  137.9531  181.5148 C   0  0  0  0  0  0  0  0  0  0  0  0
  149.3474  139.0221  180.9733 F   0  0  0  0  0  0  0  0  0  0  0  0
  147.4199  138.0128  180.8090 F   0  0  0  0  0  0  0  0  0  0  0  0
  148.2911  138.0995  182.8107 F   0  0  0  0  0  0  0  0  0  0  0  0
  153.8080  137.8185  188.8964 N   0  0  0  0  0  0  0  0  0  0  0  0
  154.8804  138.5816  189.4324 C   0  0  0  0  0  0  0  0  0  0  0  0
  154.8801  138.7239  190.9218 C   0  0  0  0  0  0  0  0  0  0  0  0
  154.3278  137.5657  191.6684 C   0  0  0  0  0  0  0  0  0  0  0  0
  153.8544  136.4274  190.8206 C   0  0  0  0  0  0  0  0  0  0  0  0
  152.9461  137.0318  189.7418 C   0  0  0  0  0  0  0  0  0  0  0  0
  155.4089  138.5481  184.3971 N   0  0  0  0  0  0  0  0  0  0  0  0
  156.0408  137.7285  184.1144 H   0  0  0  0  0  0  0  0  0  0  0  0
  156.7643  142.2118  182.8196 C   0  0  0  0  0  0  0  0  0  0  0  0
  157.6235  141.2114  183.1965 C   0  0  0  0  0  0  0  0  0  0  0  0
  157.1257  140.0470  183.7077 C   0  0  0  0  0  0  0  0  0  0  0  0
  155.7521  139.7939  183.8800 C   0  0  0  0  0  0  0  0  0  0  0  0
  154.9096  140.8038  183.4974 C   0  0  0  0  0  0  0  0  0  0  0  0
  155.4193  141.9849  182.9790 C   0  0  0  0  0  0  0  0  0  0  0  0
  154.3088  143.2531  182.5018 Cl  0  0  0  0  0  0  0  0  0  0  0  0
  157.2064  143.4418  180.8853 F   0  0  0  0  0  0  0  0  0  0  0  0
  157.2921  143.4905  182.2604 C   0  0  0  0  0  0  0  0  0  0  0  0
  158.6538  143.5920  182.5586 F   0  0  0  0  0  0  0  0  0  0  0  0
  156.6700  144.5812  182.7820 F   0  0  0  0  0  0  0  0  0  0  0  0
 37 38  1  0  0  0
 38 39  1  0  0  0
 38 40  1  0  0  0
 38 30  1  0  0  0
 30 31  2  0  0  0
 31 32  1  0  0  0
 32 33  2  0  0  0
 33 28  1  0  0  0
 28  1  1  0  0  0
  1  2  2  0  0  0
  2  3  1  0  0  0
  3  4  2  0  0  0
  4  5  1  0  0  0
  5  6  1  0  0  0
  6  7  1  0  0  0
  7  8  1  0  0  0
  8  9  1  0  0  0
  9 10  1  0  0  0
 10 11  1  0  0  0
  8 12  1  0  0  0
 12 13  2  0  0  0
 13 14  1  0  0  0
 14 15  2  0  0  0
 15 16  1  0  0  0
 16 17  2  0  0  0
 17 18  1  0  0  0
 18 19  1  0  0  0
 18 20  1  0  0  0
 18 21  1  0  0  0
  3 22  1  0  0  0
 22 23  1  0  0  0
 23 24  1  0  0  0
 24 25  1  0  0  0
 25 26  1  0  0  0
 26 27  1  0  0  0
 33 34  1  0  0  0
 34 35  2  0  0  0
 35 36  1  0  0  0
 35 30  1  0  0  0
 11  1  1  0  0  0
 17 12  1  0  0  0
 27 22  1  0  0  0
 11  5  2  0  0  0
 28 29  1  0  0  0
M  END
> <minimizedAffinity>
-8.17335

> <CNNscore>
0.3260443211

> <CNNaffinity>
7.0436983109

> <CNN_VS>
2.2965579033

> <CNNaffinity_variance>
0.0468257852

$$$$
[H]c1nc(N2C([H])([H])C([H])([H])c3nc(N4C([H])([H])C([H])([H])C([H])([H])C([H])([H])C4([H])[H])nc(N([H])c4c([H])c([H])c(C(F)(F)F)c(Cl)c4[H])c3C([H])([H])C2([H])[H])c(C(F)(F)F)c([H])c1[H]


 40 44  0  0  0  0  0  0  0  0999 V2000
  153.7606  137.7479  184.3274 C   0  0  0  0  0  0  0  0  0  0  0  0
  154.5679  138.5874  183.6417 N   0  0  0  0  0  0  0  0  0  0  0  0
  155.6444  139.2073  184.1447 C   0  0  0  0  0  0  0  0  0  0  0  0
  155.9225  138.9520  185.4527 N   0  0  0  0  0  0  0  0  0  0  0  0
  155.1979  138.1509  186.2038 C   0  0  0  0  0  0  0  0  0  0  0  0
  155.6914  137.9882  187.6194 C   0  0  0  0  0  0  0  0  0  0  0  0
  155.7177  136.5087  187.9581 C   0  0  0  0  0  0  0  0  0  0  0  0
  154.4021  136.0800  188.3211 N   0  0  0  0  0  0  0  0  0  0  0  0
  153.1729  136.5161  187.7645 C   0  0  0  0  0  0  0  0  0  0  0  0
  153.1113  136.6157  186.2647 C   0  0  0  0  0  0  0  0  0  0  0  0
  154.0757  137.5153  185.6537 C   0  0  0  0  0  0  0  0  0  0  0  0
  154.3130  135.1003  189.3388 C   0  0  0  0  0  0  0  0  0  0  0  0
  154.4187  133.8095  188.8769 N   0  0  0  0  0  0  0  0  0  0  0  0
  154.3808  132.7339  189.6525 C   0  0  0  0  0  0  0  0  0  0  0  0
  154.2259  132.9330  191.0034 C   0  0  0  0  0  0  0  0  0  0  0  0
  154.1163  134.2015  191.5082 C   0  0  0  0  0  0  0  0  0  0  0  0
  154.1577  135.3296  190.6742 C   0  0  0  0  0  0  0  0  0  0  0  0
  154.0258  136.6821  191.2060 C   0  0  0  0  0  0  0  0  0  0  0  0
  152.8723  137.3478  190.8465 F   0  0  0  0  0  0  0  0  0  0  0  0
  153.8318  136.4986  192.6126 F   0  0  0  0  0  0  0  0  0  0  0  0
  155.1634  137.4182  191.1447 F   0  0  0  0  0  0  0  0  0  0  0  0
  156.4769  140.0808  183.4078 N   0  0  0  0  0  0  0  0  0  0  0  0
  155.8852  141.1846  182.7360 C   0  0  0  0  0  0  0  0  0  0  0  0
  156.8479  142.2031  182.2122 C   0  0  0  0  0  0  0  0  0  0  0  0
  158.1617  141.6670  181.7759 C   0  0  0  0  0  0  0  0  0  0  0  0
  158.3278  140.1874  181.9237 C   0  0  0  0  0  0  0  0  0  0  0  0
  157.8963  139.8382  183.3541 C   0  0  0  0  0  0  0  0  0  0  0  0
  152.6749  137.1116  183.6672 N   0  0  0  0  0  0  0  0  0  0  0  0
  152.6895  136.0392  183.6939 H   0  0  0  0  0  0  0  0  0  0  0  0
  149.2363  138.7389  181.8573 C   0  0  0  0  0  0  0  0  0  0  0  0
  149.1674  137.8595  182.9075 C   0  0  0  0  0  0  0  0  0  0  0  0
  150.3169  137.3599  183.4499 C   0  0  0  0  0  0  0  0  0  0  0  0
  151.6054  137.6939  182.9932 C   0  0  0  0  0  0  0  0  0  0  0  0
  151.6544  138.5737  181.9445 C   0  0  0  0  0  0  0  0  0  0  0  0
  150.4846  139.0785  181.3964 C   0  0  0  0  0  0  0  0  0  0  0  0
  150.5892  140.2011  180.0555 Cl  0  0  0  0  0  0  0  0  0  0  0  0
  147.9441  140.6493  181.4960 F   0  0  0  0  0  0  0  0  0  0  0  0
  147.9899  139.2931  181.2526 C   0  0  0  0  0  0  0  0  0  0  0  0
  146.8824  138.7462  181.9069 F   0  0  0  0  0  0  0  0  0  0  0  0
  147.8786  138.9980  179.9301 F   0  0  0  0  0  0  0  0  0  0  0  0
 37 38  1  0  0  0
 38 39  1  0  0  0
 38 40  1  0  0  0
 38 30  1  0  0  0
 30 31  2  0  0  0
 31 32  1  0  0  0
 32 33  2  0  0  0
 33 28  1  0  0  0
 28  1  1  0  0  0
  1  2  2  0  0  0
  2  3  1  0  0  0
  3  4  2  0  0  0
  4  5  1  0  0  0
  5  6  1  0  0  0
  6  7  1  0  0  0
  7  8  1  0  0  0
  8  9  1  0  0  0
  9 10  1  0  0  0
 10 11  1  0  0  0
  8 12  1  0  0  0
 12 13  2  0  0  0
 13 14  1  0  0  0
 14 15  2  0  0  0
 15 16  1  0  0  0
 16 17  2  0  0  0
 17 18  1  0  0  0
 18 19  1  0  0  0
 18 20  1  0  0  0
 18 21  1  0  0  0
  3 22  1  0  0  0
 22 23  1  0  0  0
 23 24  1  0  0  0
 24 25  1  0  0  0
 25 26  1  0  0  0
 26 27  1  0  0  0
 33 34  1  0  0  0
 34 35  2  0  0  0
 35 36  1  0  0  0
 35 30  1  0  0  0
 11  1  1  0  0  0
 17 12  1  0  0  0
 27 22  1  0  0  0
 11  5  2  0  0  0
 28 29  1  0  0  0
M  END
> <minimizedAffinity>
-8.12123

> <CNNscore>
0.3229635954

> <CNNaffinity>
6.8979711533

> <CNN_VS>
2.2277934551

> <CNNaffinity_variance>
0.0538600758

$$$$
