[H]c1nc(N2C([H])([H])C3([H])C(F)(F)C3([H])C2([H])[H])nc([H])c1-c1nc(N([H])C(=O)[C@@]([H])(n2c([H])nc3c2c(=O)n(C([H])([H])C(=O)C([H])([H])[H])c(=O)n3C([H])([H])[H])C([H])([H])[H])c([H])c([H])c1[H]


 42 47  0  0  0  0  0  0  0  0999 V2000
  155.2983  136.3542  189.6973 C   0  0  0  0  0  0  0  0  0  0  0  0
  156.4553  136.7305  189.8438 O   0  0  0  0  0  0  0  0  0  0  0  0
  154.9179  135.0424  189.4132 N   0  0  0  0  0  0  0  0  0  0  0  0
  153.8486  134.8341  189.3060 H   0  0  0  0  0  0  0  0  0  0  0  0
  155.7738  133.9271  189.2422 C   0  0  0  0  0  0  0  0  0  0  0  0
  156.3223  133.2193  190.2715 C   0  0  0  0  0  0  0  0  0  0  0  0
  157.1513  132.1385  189.9487 C   0  0  0  0  0  0  0  0  0  0  0  0
  157.4042  131.8019  188.6365 C   0  0  0  0  0  0  0  0  0  0  0  0
  156.8427  132.5267  187.6153 C   0  0  0  0  0  0  0  0  0  0  0  0
  156.0605  133.5464  187.9579 N   0  0  0  0  0  0  0  0  0  0  0  0
  157.0560  132.2392  186.1881 C   0  0  0  0  0  0  0  0  0  0  0  0
  156.3574  132.9288  185.2143 C   0  0  0  0  0  0  0  0  0  0  0  0
  156.5300  132.6895  183.9069 N   0  0  0  0  0  0  0  0  0  0  0  0
  157.4145  131.7422  183.4767 C   0  0  0  0  0  0  0  0  0  0  0  0
  158.0937  131.0721  184.4313 N   0  0  0  0  0  0  0  0  0  0  0  0
  157.9418  131.2906  185.7620 C   0  0  0  0  0  0  0  0  0  0  0  0
  157.5994  131.4860  182.1012 N   0  0  0  0  0  0  0  0  0  0  0  0
  157.5635  130.2024  181.4716 C   0  0  0  0  0  0  0  0  0  0  0  0
  158.7717  130.2739  180.5451 C   0  0  0  0  0  0  0  0  0  0  0  0
  158.9792  131.7853  180.2932 C   0  0  0  0  0  0  0  0  0  0  0  0
  157.8559  132.4566  181.0829 C   0  0  0  0  0  0  0  0  0  0  0  0
  158.6387  130.8550  179.1915 C   0  0  0  0  0  0  0  0  0  0  0  0
  157.3887  130.8750  178.6366 F   0  0  0  0  0  0  0  0  0  0  0  0
  159.6726  130.5699  178.3226 F   0  0  0  0  0  0  0  0  0  0  0  0
  154.9669  138.6364  190.3577 C   0  0  0  0  0  0  0  0  0  0  0  0
  154.2145  137.4000  189.8377 C   0  0  0  0  0  0  0  0  0  0  0  0
  153.2880  137.0234  190.8465 N   0  0  0  0  0  0  0  0  0  0  0  0
  153.4781  137.2937  192.1606 C   0  0  0  0  0  0  0  0  0  0  0  0
  152.4540  136.8282  192.8800 N   0  0  0  0  0  0  0  0  0  0  0  0
  151.5880  136.2506  192.0405 C   0  0  0  0  0  0  0  0  0  0  0  0
  150.4049  135.6241  192.1704 N   0  0  0  0  0  0  0  0  0  0  0  0
  149.8562  135.4954  193.5064 C   0  0  0  0  0  0  0  0  0  0  0  0
  149.7380  135.1290  191.1260 C   0  0  0  0  0  0  0  0  0  0  0  0
  148.6263  134.5487  191.3137 O   0  0  0  0  0  0  0  0  0  0  0  0
  150.2174  135.2307  189.8750 N   0  0  0  0  0  0  0  0  0  0  0  0
  151.4113  135.8608  189.7274 C   0  0  0  0  0  0  0  0  0  0  0  0
  151.8826  135.9707  188.5771 O   0  0  0  0  0  0  0  0  0  0  0  0
  152.1151  136.3771  190.7810 C   0  0  0  0  0  0  0  0  0  0  0  0
  149.4801  134.6876  188.7448 C   0  0  0  0  0  0  0  0  0  0  0  0
  148.6886  135.7285  188.0543 C   0  0  0  0  0  0  0  0  0  0  0  0
  147.4288  136.2980  188.6065 C   0  0  0  0  0  0  0  0  0  0  0  0
  149.0826  136.1485  186.9731 O   0  0  0  0  0  0  0  0  0  0  0  0
 25 26  1  0  0  0
 26  1  1  0  0  0
  1  2  2  0  0  0
  1  3  1  0  0  0
  3  5  1  0  0  0
  5  6  2  0  0  0
  6  7  1  0  0  0
  7  8  2  0  0  0
  8  9  1  0  0  0
  9 10  2  0  0  0
  9 11  1  0  0  0
 11 12  2  0  0  0
 12 13  1  0  0  0
 13 14  2  0  0  0
 14 15  1  0  0  0
 15 16  2  0  0  0
 14 17  1  0  0  0
 17 18  1  0  0  0
 18 19  1  0  0  0
 19 20  1  0  0  0
 20 21  1  0  0  0
 20 22  1  0  0  0
 22 23  1  0  0  0
 22 24  1  0  0  0
 26 27  1  0  0  0
 27 28  1  0  0  0
 28 29  2  0  0  0
 29 30  1  0  0  0
 30 31  1  0  0  0
 31 32  1  0  0  0
 31 33  1  0  0  0
 33 34  2  0  0  0
 33 35  1  0  0  0
 35 39  1  0  0  0
 39 40  1  0  0  0
 40 41  1  0  0  0
 40 42  2  0  0  0
 35 36  1  0  0  0
 36 37  2  0  0  0
 36 38  1  0  0  0
 10  5  1  0  0  0
 16 11  1  0  0  0
 21 17  1  0  0  0
 38 27  1  0  0  0
 22 19  1  0  0  0
 38 30  2  0  0  0
  3  4  1  0  0  0
M  END
> <minimizedAffinity>
-6.40394

> <CNNscore>
0.3776892424

> <CNNaffinity>
6.0425577164

> <CNN_VS>
2.2822091579

> <CNNaffinity_variance>
0.0375697836

$$$$
[H]c1nc(N2C([H])([H])C3([H])C(F)(F)C3([H])C2([H])[H])nc([H])c1-c1nc(N([H])C(=O)[C@@]([H])(n2c([H])nc3c2c(=O)n(C([H])([H])C(=O)C([H])([H])[H])c(=O)n3C([H])([H])[H])C([H])([H])[H])c([H])c([H])c1[H]


 42 47  0  0  0  0  0  0  0  0999 V2000
  154.7811  137.9587  189.4606 C   0  0  0  0  0  0  0  0  0  0  0  0
  155.8061  138.1266  188.8102 O   0  0  0  0  0  0  0  0  0  0  0  0
  153.5269  137.6870  188.9135 N   0  0  0  0  0  0  0  0  0  0  0  0
  152.6875  137.5568  189.6040 H   0  0  0  0  0  0  0  0  0  0  0  0
  153.2081  137.5596  187.5395 C   0  0  0  0  0  0  0  0  0  0  0  0
  152.2094  136.7652  187.0568 C   0  0  0  0  0  0  0  0  0  0  0  0
  152.0106  136.7400  185.6713 C   0  0  0  0  0  0  0  0  0  0  0  0
  152.7968  137.4917  184.8252 C   0  0  0  0  0  0  0  0  0  0  0  0
  153.7965  138.2845  185.3307 C   0  0  0  0  0  0  0  0  0  0  0  0
  153.9574  138.2846  186.6510 N   0  0  0  0  0  0  0  0  0  0  0  0
  154.6820  139.1195  184.5039 C   0  0  0  0  0  0  0  0  0  0  0  0
  155.9955  139.3416  184.8743 C   0  0  0  0  0  0  0  0  0  0  0  0
  156.8260  140.0971  184.1421 N   0  0  0  0  0  0  0  0  0  0  0  0
  156.4038  140.6865  182.9849 C   0  0  0  0  0  0  0  0  0  0  0  0
  155.1208  140.4664  182.6281 N   0  0  0  0  0  0  0  0  0  0  0  0
  154.2555  139.7074  183.3469 C   0  0  0  0  0  0  0  0  0  0  0  0
  157.2741  141.4834  182.2107 N   0  0  0  0  0  0  0  0  0  0  0  0
  158.6617  141.7119  182.4710 C   0  0  0  0  0  0  0  0  0  0  0  0
  158.7807  143.2138  182.2396 C   0  0  0  0  0  0  0  0  0  0  0  0
  157.6152  143.5527  181.2816 C   0  0  0  0  0  0  0  0  0  0  0  0
  156.9344  142.2085  181.0260 C   0  0  0  0  0  0  0  0  0  0  0  0
  159.0290  143.7404  180.8799 C   0  0  0  0  0  0  0  0  0  0  0  0
  159.6043  142.8928  179.9735 F   0  0  0  0  0  0  0  0  0  0  0  0
  159.4548  145.0521  180.8237 F   0  0  0  0  0  0  0  0  0  0  0  0
  156.3784  137.7276  191.2352 C   0  0  0  0  0  0  0  0  0  0  0  0
  154.9005  138.0564  190.9653 C   0  0  0  0  0  0  0  0  0  0  0  0
  154.1286  137.0419  191.5921 N   0  0  0  0  0  0  0  0  0  0  0  0
  153.0968  137.3109  192.4283 C   0  0  0  0  0  0  0  0  0  0  0  0
  152.5525  136.1743  192.8696 N   0  0  0  0  0  0  0  0  0  0  0  0
  153.2252  135.1551  192.3246 C   0  0  0  0  0  0  0  0  0  0  0  0
  153.1449  133.8140  192.3895 N   0  0  0  0  0  0  0  0  0  0  0  0
  152.1095  133.2430  193.2288 C   0  0  0  0  0  0  0  0  0  0  0  0
  153.9742  133.0133  191.7173 C   0  0  0  0  0  0  0  0  0  0  0  0
  153.8473  131.7558  191.8199 O   0  0  0  0  0  0  0  0  0  0  0  0
  154.9444  133.5087  190.9309 N   0  0  0  0  0  0  0  0  0  0  0  0
  155.0384  134.8614  190.8549 C   0  0  0  0  0  0  0  0  0  0  0  0
  155.9301  135.3515  190.1324 O   0  0  0  0  0  0  0  0  0  0  0  0
  154.2012  135.7044  191.5336 C   0  0  0  0  0  0  0  0  0  0  0  0
  155.8413  132.6250  190.2025 C   0  0  0  0  0  0  0  0  0  0  0  0
  157.1177  132.4239  190.9217 C   0  0  0  0  0  0  0  0  0  0  0  0
  158.4012  133.0484  190.4988 C   0  0  0  0  0  0  0  0  0  0  0  0
  157.1277  131.7088  191.9163 O   0  0  0  0  0  0  0  0  0  0  0  0
 25 26  1  0  0  0
 26  1  1  0  0  0
  1  2  2  0  0  0
  1  3  1  0  0  0
  3  5  1  0  0  0
  5  6  2  0  0  0
  6  7  1  0  0  0
  7  8  2  0  0  0
  8  9  1  0  0  0
  9 10  2  0  0  0
  9 11  1  0  0  0
 11 12  2  0  0  0
 12 13  1  0  0  0
 13 14  2  0  0  0
 14 15  1  0  0  0
 15 16  2  0  0  0
 14 17  1  0  0  0
 17 18  1  0  0  0
 18 19  1  0  0  0
 19 20  1  0  0  0
 20 21  1  0  0  0
 20 22  1  0  0  0
 22 23  1  0  0  0
 22 24  1  0  0  0
 26 27  1  0  0  0
 27 28  1  0  0  0
 28 29  2  0  0  0
 29 30  1  0  0  0
 30 31  1  0  0  0
 31 32  1  0  0  0
 31 33  1  0  0  0
 33 34  2  0  0  0
 33 35  1  0  0  0
 35 39  1  0  0  0
 39 40  1  0  0  0
 40 41  1  0  0  0
 40 42  2  0  0  0
 35 36  1  0  0  0
 36 37  2  0  0  0
 36 38  1  0  0  0
 10  5  1  0  0  0
 16 11  1  0  0  0
 21 17  1  0  0  0
 38 27  1  0  0  0
 22 19  1  0  0  0
 38 30  2  0  0  0
  3  4  1  0  0  0
M  END
> <minimizedAffinity>
-8.54984

> <CNNscore>
0.2881349623

> <CNNaffinity>
6.5556154251

> <CNN_VS>
1.8889019489

> <CNNaffinity_variance>
0.0644529611

$$$$
[H]c1nc(N2C([H])([H])C3([H])C(F)(F)C3([H])C2([H])[H])nc([H])c1-c1nc(N([H])C(=O)[C@@]([H])(n2c([H])nc3c2c(=O)n(C([H])([H])C(=O)C([H])([H])[H])c(=O)n3C([H])([H])[H])C([H])([H])[H])c([H])c([H])c1[H]


 42 47  0  0  0  0  0  0  0  0999 V2000
  154.0246  138.5994  184.6129 C   0  0  0  0  0  0  0  0  0  0  0  0
  153.5467  138.9408  185.6884 O   0  0  0  0  0  0  0  0  0  0  0  0
  153.3266  137.9268  183.6095 N   0  0  0  0  0  0  0  0  0  0  0  0
  153.8686  137.6774  182.6917 H   0  0  0  0  0  0  0  0  0  0  0  0
  151.9706  137.5196  183.6436 C   0  0  0  0  0  0  0  0  0  0  0  0
  151.1084  137.6437  182.5935 C   0  0  0  0  0  0  0  0  0  0  0  0
  149.7943  137.1965  182.7745 C   0  0  0  0  0  0  0  0  0  0  0  0
  149.3865  136.6501  183.9721 C   0  0  0  0  0  0  0  0  0  0  0  0
  150.2693  136.5340  185.0164 C   0  0  0  0  0  0  0  0  0  0  0  0
  151.5093  136.9686  184.8098 N   0  0  0  0  0  0  0  0  0  0  0  0
  149.9224  135.9635  186.3276 C   0  0  0  0  0  0  0  0  0  0  0  0
  148.6193  135.6081  186.6233 C   0  0  0  0  0  0  0  0  0  0  0  0
  148.2728  135.0862  187.8082 N   0  0  0  0  0  0  0  0  0  0  0  0
  149.2044  134.8812  188.7853 C   0  0  0  0  0  0  0  0  0  0  0  0
  150.4747  135.2299  188.4914 N   0  0  0  0  0  0  0  0  0  0  0  0
  150.8576  135.7601  187.3024 C   0  0  0  0  0  0  0  0  0  0  0  0
  148.8445  134.3326  190.0349 N   0  0  0  0  0  0  0  0  0  0  0  0
  149.2738  134.8022  191.3157 C   0  0  0  0  0  0  0  0  0  0  0  0
  149.6195  133.4994  192.0273 C   0  0  0  0  0  0  0  0  0  0  0  0
  148.7682  132.4268  191.3092 C   0  0  0  0  0  0  0  0  0  0  0  0
  147.9867  133.2098  190.2547 C   0  0  0  0  0  0  0  0  0  0  0  0
  148.5708  132.7411  192.7436 C   0  0  0  0  0  0  0  0  0  0  0  0
  147.4625  133.4323  193.1495 F   0  0  0  0  0  0  0  0  0  0  0  0
  149.0322  131.7834  193.6239 F   0  0  0  0  0  0  0  0  0  0  0  0
  156.0842  138.9765  185.7832 C   0  0  0  0  0  0  0  0  0  0  0  0
  155.4784  138.9389  184.3702 C   0  0  0  0  0  0  0  0  0  0  0  0
  155.6000  140.2477  183.8316 N   0  0  0  0  0  0  0  0  0  0  0  0
  154.5329  140.9899  183.4488 C   0  0  0  0  0  0  0  0  0  0  0  0
  154.9379  142.1739  182.9827 N   0  0  0  0  0  0  0  0  0  0  0  0
  156.2724  142.2129  183.0580 C   0  0  0  0  0  0  0  0  0  0  0  0
  157.2207  143.1149  182.7471 N   0  0  0  0  0  0  0  0  0  0  0  0
  156.7865  144.3808  182.1891 C   0  0  0  0  0  0  0  0  0  0  0  0
  158.5210  142.8806  182.9343 C   0  0  0  0  0  0  0  0  0  0  0  0
  159.3670  143.7717  182.6210 O   0  0  0  0  0  0  0  0  0  0  0  0
  158.9579  141.7189  183.4489 N   0  0  0  0  0  0  0  0  0  0  0  0
  158.0124  140.7978  183.7679 C   0  0  0  0  0  0  0  0  0  0  0  0
  158.3874  139.7086  184.2478 O   0  0  0  0  0  0  0  0  0  0  0  0
  156.6734  141.0128  183.5860 C   0  0  0  0  0  0  0  0  0  0  0  0
  160.3781  141.4763  183.6489 C   0  0  0  0  0  0  0  0  0  0  0  0
  160.8857  142.1549  184.8609 C   0  0  0  0  0  0  0  0  0  0  0  0
  160.1073  142.2594  186.1255 C   0  0  0  0  0  0  0  0  0  0  0  0
  162.0018  142.6589  184.8307 O   0  0  0  0  0  0  0  0  0  0  0  0
 25 26  1  0  0  0
 26  1  1  0  0  0
  1  2  2  0  0  0
  1  3  1  0  0  0
  3  5  1  0  0  0
  5  6  2  0  0  0
  6  7  1  0  0  0
  7  8  2  0  0  0
  8  9  1  0  0  0
  9 10  2  0  0  0
  9 11  1  0  0  0
 11 12  2  0  0  0
 12 13  1  0  0  0
 13 14  2  0  0  0
 14 15  1  0  0  0
 15 16  2  0  0  0
 14 17  1  0  0  0
 17 18  1  0  0  0
 18 19  1  0  0  0
 19 20  1  0  0  0
 20 21  1  0  0  0
 20 22  1  0  0  0
 22 23  1  0  0  0
 22 24  1  0  0  0
 26 27  1  0  0  0
 27 28  1  0  0  0
 28 29  2  0  0  0
 29 30  1  0  0  0
 30 31  1  0  0  0
 31 32  1  0  0  0
 31 33  1  0  0  0
 33 34  2  0  0  0
 33 35  1  0  0  0
 35 39  1  0  0  0
 39 40  1  0  0  0
 40 41  1  0  0  0
 40 42  2  0  0  0
 35 36  1  0  0  0
 36 37  2  0  0  0
 36 38  1  0  0  0
 10  5  1  0  0  0
 16 11  1  0  0  0
 21 17  1  0  0  0
 38 27  1  0  0  0
 22 19  1  0  0  0
 38 30  2  0  0  0
  3  4  1  0  0  0
M  END
> <minimizedAffinity>
-7.56326

> <CNNscore>
0.2513486445

> <CNNaffinity>
6.4313392639

> <CNN_VS>
1.6165083647

> <CNNaffinity_variance>
0.1508523524

$$$$
[H]c1nc(N2C([H])([H])C3([H])C(F)(F)C3([H])C2([H])[H])nc([H])c1-c1nc(N([H])C(=O)[C@@]([H])(n2c([H])nc3c2c(=O)n(C([H])([H])C(=O)C([H])([H])[H])c(=O)n3C([H])([H])[H])C([H])([H])[H])c([H])c([H])c1[H]


 42 47  0  0  0  0  0  0  0  0999 V2000
  155.4746  136.7094  190.0251 C   0  0  0  0  0  0  0  0  0  0  0  0
  156.4915  137.3135  189.7047 O   0  0  0  0  0  0  0  0  0  0  0  0
  155.3715  135.3217  190.1255 N   0  0  0  0  0  0  0  0  0  0  0  0
  154.4046  134.9031  190.4226 H   0  0  0  0  0  0  0  0  0  0  0  0
  156.3941  134.3732  189.8803 C   0  0  0  0  0  0  0  0  0  0  0  0
  157.2427  133.8990  190.8377 C   0  0  0  0  0  0  0  0  0  0  0  0
  158.2065  132.9622  190.4464 C   0  0  0  0  0  0  0  0  0  0  0  0
  158.2946  132.5346  189.1393 C   0  0  0  0  0  0  0  0  0  0  0  0
  157.4316  133.0238  188.1911 C   0  0  0  0  0  0  0  0  0  0  0  0
  156.5286  133.9119  188.5974 N   0  0  0  0  0  0  0  0  0  0  0  0
  157.4519  132.6239  186.7752 C   0  0  0  0  0  0  0  0  0  0  0  0
  158.3223  131.6473  186.3273 C   0  0  0  0  0  0  0  0  0  0  0  0
  158.3639  131.2617  185.0443 N   0  0  0  0  0  0  0  0  0  0  0  0
  157.5378  131.8248  184.1141 C   0  0  0  0  0  0  0  0  0  0  0  0
  156.6903  132.7774  184.5568 N   0  0  0  0  0  0  0  0  0  0  0  0
  156.6236  133.1898  185.8479 C   0  0  0  0  0  0  0  0  0  0  0  0
  157.5782  131.4228  182.7618 N   0  0  0  0  0  0  0  0  0  0  0  0
  157.9509  130.1293  182.2788 C   0  0  0  0  0  0  0  0  0  0  0  0
  158.8593  130.4823  181.1069 C   0  0  0  0  0  0  0  0  0  0  0  0
  158.4047  131.8957  180.6750 C   0  0  0  0  0  0  0  0  0  0  0  0
  157.2554  132.2288  181.6257 C   0  0  0  0  0  0  0  0  0  0  0  0
  158.2840  130.7310  179.7672 C   0  0  0  0  0  0  0  0  0  0  0  0
  157.0556  130.1913  179.5012 F   0  0  0  0  0  0  0  0  0  0  0  0
  159.1863  130.7037  178.7231 F   0  0  0  0  0  0  0  0  0  0  0  0
  154.0726  137.3853  191.8504 C   0  0  0  0  0  0  0  0  0  0  0  0
  154.2500  137.5428  190.3308 C   0  0  0  0  0  0  0  0  0  0  0  0
  153.0992  136.9787  189.7181 N   0  0  0  0  0  0  0  0  0  0  0  0
  152.2109  136.2055  190.3883 C   0  0  0  0  0  0  0  0  0  0  0  0
  151.2309  135.8139  189.5702 N   0  0  0  0  0  0  0  0  0  0  0  0
  151.4727  136.3288  188.3599 C   0  0  0  0  0  0  0  0  0  0  0  0
  150.8588  136.2863  187.1638 N   0  0  0  0  0  0  0  0  0  0  0  0
  149.6311  135.5210  187.0657 C   0  0  0  0  0  0  0  0  0  0  0  0
  151.3390  136.9155  186.0895 C   0  0  0  0  0  0  0  0  0  0  0  0
  150.7137  136.8373  184.9891 O   0  0  0  0  0  0  0  0  0  0  0  0
  152.4736  137.6330  186.1451 N   0  0  0  0  0  0  0  0  0  0  0  0
  153.1052  137.6855  187.3461 C   0  0  0  0  0  0  0  0  0  0  0  0
  154.1619  138.3443  187.4292 O   0  0  0  0  0  0  0  0  0  0  0  0
  152.6344  137.0499  188.4625 C   0  0  0  0  0  0  0  0  0  0  0  0
  152.9860  138.3151  184.9668 C   0  0  0  0  0  0  0  0  0  0  0  0
  154.1598  137.6195  184.3967 C   0  0  0  0  0  0  0  0  0  0  0  0
  154.1543  136.1783  184.0240 C   0  0  0  0  0  0  0  0  0  0  0  0
  155.1924  138.2542  184.2192 O   0  0  0  0  0  0  0  0  0  0  0  0
 25 26  1  0  0  0
 26  1  1  0  0  0
  1  2  2  0  0  0
  1  3  1  0  0  0
  3  5  1  0  0  0
  5  6  2  0  0  0
  6  7  1  0  0  0
  7  8  2  0  0  0
  8  9  1  0  0  0
  9 10  2  0  0  0
  9 11  1  0  0  0
 11 12  2  0  0  0
 12 13  1  0  0  0
 13 14  2  0  0  0
 14 15  1  0  0  0
 15 16  2  0  0  0
 14 17  1  0  0  0
 17 18  1  0  0  0
 18 19  1  0  0  0
 19 20  1  0  0  0
 20 21  1  0  0  0
 20 22  1  0  0  0
 22 23  1  0  0  0
 22 24  1  0  0  0
 26 27  1  0  0  0
 27 28  1  0  0  0
 28 29  2  0  0  0
 29 30  1  0  0  0
 30 31  1  0  0  0
 31 32  1  0  0  0
 31 33  1  0  0  0
 33 34  2  0  0  0
 33 35  1  0  0  0
 35 39  1  0  0  0
 39 40  1  0  0  0
 40 41  1  0  0  0
 40 42  2  0  0  0
 35 36  1  0  0  0
 36 37  2  0  0  0
 36 38  1  0  0  0
 10  5  1  0  0  0
 16 11  1  0  0  0
 21 17  1  0  0  0
 38 27  1  0  0  0
 22 19  1  0  0  0
 38 30  2  0  0  0
  3  4  1  0  0  0
M  END
> <minimizedAffinity>
-5.81212

> <CNNscore>
0.2470954806

> <CNNaffinity>
6.0308718681

> <CNN_VS>
1.4902012348

> <CNNaffinity_variance>
0.0672181174

$$$$
[H]c1nc(N2C([H])([H])C3([H])C(F)(F)C3([H])C2([H])[H])nc([H])c1-c1nc(N([H])C(=O)[C@@]([H])(n2c([H])nc3c2c(=O)n(C([H])([H])C(=O)C([H])([H])[H])c(=O)n3C([H])([H])[H])C([H])([H])[H])c([H])c([H])c1[H]


 42 47  0  0  0  0  0  0  0  0999 V2000
  154.8225  137.6905  188.8220 C   0  0  0  0  0  0  0  0  0  0  0  0
  155.8553  137.9735  188.2261 O   0  0  0  0  0  0  0  0  0  0  0  0
  153.5866  137.4719  188.2128 N   0  0  0  0  0  0  0  0  0  0  0  0
  152.7375  137.2247  188.8581 H   0  0  0  0  0  0  0  0  0  0  0  0
  153.2981  137.5364  186.8279 C   0  0  0  0  0  0  0  0  0  0  0  0
  152.3210  136.8070  186.2156 C   0  0  0  0  0  0  0  0  0  0  0  0
  152.1512  136.9756  184.8363 C   0  0  0  0  0  0  0  0  0  0  0  0
  152.9438  137.8481  184.1225 C   0  0  0  0  0  0  0  0  0  0  0  0
  153.9214  138.5727  184.7571 C   0  0  0  0  0  0  0  0  0  0  0  0
  154.0551  138.3880  186.0675 N   0  0  0  0  0  0  0  0  0  0  0  0
  154.8118  139.5261  184.0764 C   0  0  0  0  0  0  0  0  0  0  0  0
  156.1133  139.7103  184.5054 C   0  0  0  0  0  0  0  0  0  0  0  0
  156.9478  140.5710  183.9059 N   0  0  0  0  0  0  0  0  0  0  0  0
  156.5419  141.3114  182.8327 C   0  0  0  0  0  0  0  0  0  0  0  0
  155.2706  141.1277  182.4182 N   0  0  0  0  0  0  0  0  0  0  0  0
  154.4016  140.2649  183.0031 C   0  0  0  0  0  0  0  0  0  0  0  0
  157.4165  142.2195  182.1984 N   0  0  0  0  0  0  0  0  0  0  0  0
  157.0336  143.2951  181.3371 C   0  0  0  0  0  0  0  0  0  0  0  0
  158.0411  143.1606  180.2012 C   0  0  0  0  0  0  0  0  0  0  0  0
  159.2506  142.4380  180.8382 C   0  0  0  0  0  0  0  0  0  0  0  0
  158.8429  142.2354  182.2972 C   0  0  0  0  0  0  0  0  0  0  0  0
  159.3649  143.8132  180.2988 C   0  0  0  0  0  0  0  0  0  0  0  0
  159.4790  144.8780  181.1498 F   0  0  0  0  0  0  0  0  0  0  0  0
  160.0580  143.9225  179.1102 F   0  0  0  0  0  0  0  0  0  0  0  0
  156.2779  138.1915  190.6618 C   0  0  0  0  0  0  0  0  0  0  0  0
  154.9100  137.5732  190.3274 C   0  0  0  0  0  0  0  0  0  0  0  0
  154.9651  136.2084  190.7174 N   0  0  0  0  0  0  0  0  0  0  0  0
  156.1266  135.5193  190.8283 C   0  0  0  0  0  0  0  0  0  0  0  0
  155.8830  134.2633  191.2104 N   0  0  0  0  0  0  0  0  0  0  0  0
  154.5606  134.1235  191.3517 C   0  0  0  0  0  0  0  0  0  0  0  0
  153.7386  133.1193  191.7053 N   0  0  0  0  0  0  0  0  0  0  0  0
  154.3409  131.8407  192.0294 C   0  0  0  0  0  0  0  0  0  0  0  0
  152.4135  133.2652  191.7643 C   0  0  0  0  0  0  0  0  0  0  0  0
  151.6917  132.2798  192.1049 O   0  0  0  0  0  0  0  0  0  0  0  0
  151.8226  134.4355  191.4706 N   0  0  0  0  0  0  0  0  0  0  0  0
  152.6393  135.4594  191.1116 C   0  0  0  0  0  0  0  0  0  0  0  0
  152.1196  136.5592  190.8328 O   0  0  0  0  0  0  0  0  0  0  0  0
  154.0003  135.3363  191.0433 C   0  0  0  0  0  0  0  0  0  0  0  0
  150.3770  134.5819  191.5398 C   0  0  0  0  0  0  0  0  0  0  0  0
  149.9298  134.9837  192.8909 C   0  0  0  0  0  0  0  0  0  0  0  0
  149.4646  134.0138  193.9198 C   0  0  0  0  0  0  0  0  0  0  0  0
  149.9398  136.1727  193.1859 O   0  0  0  0  0  0  0  0  0  0  0  0
 25 26  1  0  0  0
 26  1  1  0  0  0
  1  2  2  0  0  0
  1  3  1  0  0  0
  3  5  1  0  0  0
  5  6  2  0  0  0
  6  7  1  0  0  0
  7  8  2  0  0  0
  8  9  1  0  0  0
  9 10  2  0  0  0
  9 11  1  0  0  0
 11 12  2  0  0  0
 12 13  1  0  0  0
 13 14  2  0  0  0
 14 15  1  0  0  0
 15 16  2  0  0  0
 14 17  1  0  0  0
 17 18  1  0  0  0
 18 19  1  0  0  0
 19 20  1  0  0  0
 20 21  1  0  0  0
 20 22  1  0  0  0
 22 23  1  0  0  0
 22 24  1  0  0  0
 26 27  1  0  0  0
 27 28  1  0  0  0
 28 29  2  0  0  0
 29 30  1  0  0  0
 30 31  1  0  0  0
 31 32  1  0  0  0
 31 33  1  0  0  0
 33 34  2  0  0  0
 33 35  1  0  0  0
 35 39  1  0  0  0
 39 40  1  0  0  0
 40 41  1  0  0  0
 40 42  2  0  0  0
 35 36  1  0  0  0
 36 37  2  0  0  0
 36 38  1  0  0  0
 10  5  1  0  0  0
 16 11  1  0  0  0
 21 17  1  0  0  0
 38 27  1  0  0  0
 22 19  1  0  0  0
 38 30  2  0  0  0
  3  4  1  0  0  0
M  END
> <minimizedAffinity>
-8.84784

> <CNNscore>
0.1858825088

> <CNNaffinity>
6.3901810646

> <CNN_VS>
1.1878229380

> <CNNaffinity_variance>
0.0528230965

$$$$
[H]c1nc(N2C([H])([H])C3([H])C(F)(F)C3([H])C2([H])[H])nc([H])c1-c1nc(N([H])C(=O)[C@@]([H])(n2c([H])nc3c2c(=O)n(C([H])([H])C(=O)C([H])([H])[H])c(=O)n3C([H])([H])[H])C([H])([H])[H])c([H])c([H])c1[H]


 42 47  0  0  0  0  0  0  0  0999 V2000
  155.3045  137.7469  188.0946 C   0  0  0  0  0  0  0  0  0  0  0  0
  154.4818  138.6223  188.3362 O   0  0  0  0  0  0  0  0  0  0  0  0
  156.0608  137.6663  186.9251 N   0  0  0  0  0  0  0  0  0  0  0  0
  156.7645  136.8331  186.8301 H   0  0  0  0  0  0  0  0  0  0  0  0
  156.0205  138.5556  185.8236 C   0  0  0  0  0  0  0  0  0  0  0  0
  157.0050  139.4530  185.5291 C   0  0  0  0  0  0  0  0  0  0  0  0
  156.8264  140.2691  184.4058 C   0  0  0  0  0  0  0  0  0  0  0  0
  155.6952  140.1689  183.6253 C   0  0  0  0  0  0  0  0  0  0  0  0
  154.7162  139.2596  183.9385 C   0  0  0  0  0  0  0  0  0  0  0  0
  154.9185  138.5005  185.0118 N   0  0  0  0  0  0  0  0  0  0  0  0
  153.4784  139.0831  183.1628 C   0  0  0  0  0  0  0  0  0  0  0  0
  153.0819  140.0296  182.2361 C   0  0  0  0  0  0  0  0  0  0  0  0
  151.9602  139.8966  181.5146 N   0  0  0  0  0  0  0  0  0  0  0  0
  151.1517  138.8067  181.6669 C   0  0  0  0  0  0  0  0  0  0  0  0
  151.5434  137.8860  182.5727 N   0  0  0  0  0  0  0  0  0  0  0  0
  152.6725  137.9911  183.3183 C   0  0  0  0  0  0  0  0  0  0  0  0
  149.9692  138.6623  180.9101 N   0  0  0  0  0  0  0  0  0  0  0  0
  148.9946  137.6266  181.0606 C   0  0  0  0  0  0  0  0  0  0  0  0
  148.7175  137.2442  179.6113 C   0  0  0  0  0  0  0  0  0  0  0  0
  149.0851  138.5076  178.7991 C   0  0  0  0  0  0  0  0  0  0  0  0
  149.5249  139.5203  179.8560 C   0  0  0  0  0  0  0  0  0  0  0  0
  147.7010  137.9799  178.8283 C   0  0  0  0  0  0  0  0  0  0  0  0
  146.7280  138.6410  179.5263 F   0  0  0  0  0  0  0  0  0  0  0  0
  147.2849  137.3574  177.6688 F   0  0  0  0  0  0  0  0  0  0  0  0
  155.4646  135.3677  188.3550 C   0  0  0  0  0  0  0  0  0  0  0  0
  155.5034  136.6829  189.1511 C   0  0  0  0  0  0  0  0  0  0  0  0
  154.4005  136.6588  190.0461 N   0  0  0  0  0  0  0  0  0  0  0  0
  154.5015  137.0106  191.3507 C   0  0  0  0  0  0  0  0  0  0  0  0
  153.3153  136.8948  191.9529 N   0  0  0  0  0  0  0  0  0  0  0  0
  152.4315  136.4662  191.0454 C   0  0  0  0  0  0  0  0  0  0  0  0
  151.1189  136.1726  191.0549 N   0  0  0  0  0  0  0  0  0  0  0  0
  150.4050  136.3273  192.3074 C   0  0  0  0  0  0  0  0  0  0  0  0
  150.4710  135.7520  189.9667 C   0  0  0  0  0  0  0  0  0  0  0  0
  149.2322  135.4911  190.0398 O   0  0  0  0  0  0  0  0  0  0  0  0
  151.1015  135.5976  188.7903 N   0  0  0  0  0  0  0  0  0  0  0  0
  152.4274  135.8902  188.7646 C   0  0  0  0  0  0  0  0  0  0  0  0
  153.0406  135.7564  187.6860 O   0  0  0  0  0  0  0  0  0  0  0  0
  153.1151  136.3229  189.8655 C   0  0  0  0  0  0  0  0  0  0  0  0
  150.3835  135.1394  187.6111 C   0  0  0  0  0  0  0  0  0  0  0  0
  149.8224  136.2676  186.8371 C   0  0  0  0  0  0  0  0  0  0  0  0
  148.4204  136.7448  186.9876 C   0  0  0  0  0  0  0  0  0  0  0  0
  150.5411  136.8436  186.0294 O   0  0  0  0  0  0  0  0  0  0  0  0
 25 26  1  0  0  0
 26  1  1  0  0  0
  1  2  2  0  0  0
  1  3  1  0  0  0
  3  5  1  0  0  0
  5  6  2  0  0  0
  6  7  1  0  0  0
  7  8  2  0  0  0
  8  9  1  0  0  0
  9 10  2  0  0  0
  9 11  1  0  0  0
 11 12  2  0  0  0
 12 13  1  0  0  0
 13 14  2  0  0  0
 14 15  1  0  0  0
 15 16  2  0  0  0
 14 17  1  0  0  0
 17 18  1  0  0  0
 18 19  1  0  0  0
 19 20  1  0  0  0
 20 21  1  0  0  0
 20 22  1  0  0  0
 22 23  1  0  0  0
 22 24  1  0  0  0
 26 27  1  0  0  0
 27 28  1  0  0  0
 28 29  2  0  0  0
 29 30  1  0  0  0
 30 31  1  0  0  0
 31 32  1  0  0  0
 31 33  1  0  0  0
 33 34  2  0  0  0
 33 35  1  0  0  0
 35 39  1  0  0  0
 39 40  1  0  0  0
 40 41  1  0  0  0
 40 42  2  0  0  0
 35 36  1  0  0  0
 36 37  2  0  0  0
 36 38  1  0  0  0
 10  5  1  0  0  0
 16 11  1  0  0  0
 21 17  1  0  0  0
 38 27  1  0  0  0
 22 19  1  0  0  0
 38 30  2  0  0  0
  3  4  1  0  0  0
M  END
> <minimizedAffinity>
-7.41923

> <CNNscore>
0.1740326881

> <CNNaffinity>
6.1220116615

> <CNN_VS>
1.0654301643

> <CNNaffinity_variance>
0.2204829007

$$$$
[H]c1nc(N2C([H])([H])C3([H])C(F)(F)C3([H])C2([H])[H])nc([H])c1-c1nc(N([H])C(=O)[C@@]([H])(n2c([H])nc3c2c(=O)n(C([H])([H])C(=O)C([H])([H])[H])c(=O)n3C([H])([H])[H])C([H])([H])[H])c([H])c([H])c1[H]


 42 47  0  0  0  0  0  0  0  0999 V2000
  151.6017  134.6592  184.5331 C   0  0  0  0  0  0  0  0  0  0  0  0
  150.9352  135.5470  184.0143 O   0  0  0  0  0  0  0  0  0  0  0  0
  152.5170  134.8526  185.5682 N   0  0  0  0  0  0  0  0  0  0  0  0
  153.0509  133.9750  185.9464 H   0  0  0  0  0  0  0  0  0  0  0  0
  152.8425  136.0790  186.1971 C   0  0  0  0  0  0  0  0  0  0  0  0
  152.4414  136.4234  187.4549 C   0  0  0  0  0  0  0  0  0  0  0  0
  152.8406  137.6721  187.9458 C   0  0  0  0  0  0  0  0  0  0  0  0
  153.6117  138.5234  187.1845 C   0  0  0  0  0  0  0  0  0  0  0  0
  154.0049  138.1583  185.9213 C   0  0  0  0  0  0  0  0  0  0  0  0
  153.6081  136.9655  185.4867 N   0  0  0  0  0  0  0  0  0  0  0  0
  154.8280  139.0012  185.0398 C   0  0  0  0  0  0  0  0  0  0  0  0
  156.1766  139.1799  185.2872 C   0  0  0  0  0  0  0  0  0  0  0  0
  156.9519  139.9412  184.5025 N   0  0  0  0  0  0  0  0  0  0  0  0
  156.4354  140.5804  183.4119 C   0  0  0  0  0  0  0  0  0  0  0  0
  155.1186  140.4025  183.1750 N   0  0  0  0  0  0  0  0  0  0  0  0
  154.3072  139.6388  183.9497 C   0  0  0  0  0  0  0  0  0  0  0  0
  157.2474  141.3836  182.5829 N   0  0  0  0  0  0  0  0  0  0  0  0
  156.8854  142.6472  182.0194 C   0  0  0  0  0  0  0  0  0  0  0  0
  157.3843  142.5056  180.5861 C   0  0  0  0  0  0  0  0  0  0  0  0
  158.5109  141.4497  180.6695 C   0  0  0  0  0  0  0  0  0  0  0  0
  158.5784  141.0871  182.1527 C   0  0  0  0  0  0  0  0  0  0  0  0
  158.7840  142.8436  180.2480 C   0  0  0  0  0  0  0  0  0  0  0  0
  159.4439  143.6987  181.0872 F   0  0  0  0  0  0  0  0  0  0  0  0
  159.0422  143.0107  178.9024 F   0  0  0  0  0  0  0  0  0  0  0  0
  152.1941  132.3801  184.9906 C   0  0  0  0  0  0  0  0  0  0  0  0
  151.4072  133.2565  184.0017 C   0  0  0  0  0  0  0  0  0  0  0  0
  152.0314  133.1143  182.7336 N   0  0  0  0  0  0  0  0  0  0  0  0
  153.3727  133.1943  182.5587 C   0  0  0  0  0  0  0  0  0  0  0  0
  153.6809  133.0231  181.2708 N   0  0  0  0  0  0  0  0  0  0  0  0
  152.5428  132.8302  180.5958 C   0  0  0  0  0  0  0  0  0  0  0  0
  152.2215  132.6089  179.3085 N   0  0  0  0  0  0  0  0  0  0  0  0
  153.3048  132.5489  178.3466 C   0  0  0  0  0  0  0  0  0  0  0  0
  150.9607  132.4469  178.9025 C   0  0  0  0  0  0  0  0  0  0  0  0
  150.7222  132.2411  177.6742 O   0  0  0  0  0  0  0  0  0  0  0  0
  149.9332  132.4967  179.7668 N   0  0  0  0  0  0  0  0  0  0  0  0
  150.2414  132.7195  181.0705 C   0  0  0  0  0  0  0  0  0  0  0  0
  149.3081  132.7711  181.8973 O   0  0  0  0  0  0  0  0  0  0  0  0
  151.5251  132.8888  181.5128 C   0  0  0  0  0  0  0  0  0  0  0  0
  148.5633  132.3175  179.3116 C   0  0  0  0  0  0  0  0  0  0  0  0
  148.0206  133.5517  178.7042 C   0  0  0  0  0  0  0  0  0  0  0  0
  147.4054  133.5936  177.3492 C   0  0  0  0  0  0  0  0  0  0  0  0
  148.0764  134.5963  179.3416 O   0  0  0  0  0  0  0  0  0  0  0  0
 25 26  1  0  0  0
 26  1  1  0  0  0
  1  2  2  0  0  0
  1  3  1  0  0  0
  3  5  1  0  0  0
  5  6  2  0  0  0
  6  7  1  0  0  0
  7  8  2  0  0  0
  8  9  1  0  0  0
  9 10  2  0  0  0
  9 11  1  0  0  0
 11 12  2  0  0  0
 12 13  1  0  0  0
 13 14  2  0  0  0
 14 15  1  0  0  0
 15 16  2  0  0  0
 14 17  1  0  0  0
 17 18  1  0  0  0
 18 19  1  0  0  0
 19 20  1  0  0  0
 20 21  1  0  0  0
 20 22  1  0  0  0
 22 23  1  0  0  0
 22 24  1  0  0  0
 26 27  1  0  0  0
 27 28  1  0  0  0
 28 29  2  0  0  0
 29 30  1  0  0  0
 30 31  1  0  0  0
 31 32  1  0  0  0
 31 33  1  0  0  0
 33 34  2  0  0  0
 33 35  1  0  0  0
 35 39  1  0  0  0
 39 40  1  0  0  0
 40 41  1  0  0  0
 40 42  2  0  0  0
 35 36  1  0  0  0
 36 37  2  0  0  0
 36 38  1  0  0  0
 10  5  1  0  0  0
 16 11  1  0  0  0
 21 17  1  0  0  0
 38 27  1  0  0  0
 22 19  1  0  0  0
 38 30  2  0  0  0
  3  4  1  0  0  0
M  END
> <minimizedAffinity>
-6.18289

> <CNNscore>
0.1693111211

> <CNNaffinity>
6.2627782822

> <CNN_VS>
1.0603580475

> <CNNaffinity_variance>
0.1038517356

$$$$
[H]c1nc(N2C([H])([H])C3([H])C(F)(F)C3([H])C2([H])[H])nc([H])c1-c1nc(N([H])C(=O)[C@@]([H])(n2c([H])nc3c2c(=O)n(C([H])([H])C(=O)C([H])([H])[H])c(=O)n3C([H])([H])[H])C([H])([H])[H])c([H])c([H])c1[H]


 42 47  0  0  0  0  0  0  0  0999 V2000
  151.9345  135.8860  184.3071 C   0  0  0  0  0  0  0  0  0  0  0  0
  151.5736  137.0378  184.0955 O   0  0  0  0  0  0  0  0  0  0  0  0
  152.9596  135.5209  185.1802 N   0  0  0  0  0  0  0  0  0  0  0  0
  153.1863  134.4547  185.2818 H   0  0  0  0  0  0  0  0  0  0  0  0
  153.7578  136.3887  185.9646 C   0  0  0  0  0  0  0  0  0  0  0  0
  153.8709  136.3059  187.3217 C   0  0  0  0  0  0  0  0  0  0  0  0
  154.6987  137.2347  187.9633 C   0  0  0  0  0  0  0  0  0  0  0  0
  155.3754  138.1989  187.2483 C   0  0  0  0  0  0  0  0  0  0  0  0
  155.2483  138.2655  185.8834 C   0  0  0  0  0  0  0  0  0  0  0  0
  154.4542  137.3679  185.3066 N   0  0  0  0  0  0  0  0  0  0  0  0
  155.9328  139.2587  185.0407 C   0  0  0  0  0  0  0  0  0  0  0  0
  155.2813  139.8541  183.9763 C   0  0  0  0  0  0  0  0  0  0  0  0
  155.8780  140.7619  183.1911 N   0  0  0  0  0  0  0  0  0  0  0  0
  157.1710  141.1411  183.4126 C   0  0  0  0  0  0  0  0  0  0  0  0
  157.8021  140.5568  184.4528 N   0  0  0  0  0  0  0  0  0  0  0  0
  157.2265  139.6353  185.2658 C   0  0  0  0  0  0  0  0  0  0  0  0
  157.8040  142.0960  182.5884 N   0  0  0  0  0  0  0  0  0  0  0  0
  157.1597  142.9422  181.6324 C   0  0  0  0  0  0  0  0  0  0  0  0
  158.0996  142.8368  180.4370 C   0  0  0  0  0  0  0  0  0  0  0  0
  159.4672  142.4570  181.0504 C   0  0  0  0  0  0  0  0  0  0  0  0
  159.2018  142.3960  182.5543 C   0  0  0  0  0  0  0  0  0  0  0  0
  159.2694  143.7354  180.3279 C   0  0  0  0  0  0  0  0  0  0  0  0
  159.2218  144.9150  181.0186 F   0  0  0  0  0  0  0  0  0  0  0  0
  159.8498  143.7993  179.0772 F   0  0  0  0  0  0  0  0  0  0  0  0
  150.2158  135.5572  182.6664 C   0  0  0  0  0  0  0  0  0  0  0  0
  151.2060  134.7913  183.5597 C   0  0  0  0  0  0  0  0  0  0  0  0
  150.4337  134.0060  184.4568 N   0  0  0  0  0  0  0  0  0  0  0  0
  149.1670  134.3271  184.8153 C   0  0  0  0  0  0  0  0  0  0  0  0
  148.6834  133.4173  185.6648 N   0  0  0  0  0  0  0  0  0  0  0  0
  149.6313  132.4959  185.8670 C   0  0  0  0  0  0  0  0  0  0  0  0
  149.7296  131.3712  186.5981 N   0  0  0  0  0  0  0  0  0  0  0  0
  148.5800  130.9837  187.3923 C   0  0  0  0  0  0  0  0  0  0  0  0
  150.8322  130.6197  186.6117 C   0  0  0  0  0  0  0  0  0  0  0  0
  150.8631  129.5697  187.3221 O   0  0  0  0  0  0  0  0  0  0  0  0
  151.9152  130.9494  185.8881 N   0  0  0  0  0  0  0  0  0  0  0  0
  151.8315  132.0826  185.1444 C   0  0  0  0  0  0  0  0  0  0  0  0
  152.8217  132.4151  184.4615 O   0  0  0  0  0  0  0  0  0  0  0  0
  150.7133  132.8705  185.1128 C   0  0  0  0  0  0  0  0  0  0  0  0
  153.1107  130.1210  185.9108 C   0  0  0  0  0  0  0  0  0  0  0  0
  154.0822  130.5866  186.9239 C   0  0  0  0  0  0  0  0  0  0  0  0
  154.0322  130.1752  188.3537 C   0  0  0  0  0  0  0  0  0  0  0  0
  154.9758  131.3493  186.5771 O   0  0  0  0  0  0  0  0  0  0  0  0
 25 26  1  0  0  0
 26  1  1  0  0  0
  1  2  2  0  0  0
  1  3  1  0  0  0
  3  5  1  0  0  0
  5  6  2  0  0  0
  6  7  1  0  0  0
  7  8  2  0  0  0
  8  9  1  0  0  0
  9 10  2  0  0  0
  9 11  1  0  0  0
 11 12  2  0  0  0
 12 13  1  0  0  0
 13 14  2  0  0  0
 14 15  1  0  0  0
 15 16  2  0  0  0
 14 17  1  0  0  0
 17 18  1  0  0  0
 18 19  1  0  0  0
 19 20  1  0  0  0
 20 21  1  0  0  0
 20 22  1  0  0  0
 22 23  1  0  0  0
 22 24  1  0  0  0
 26 27  1  0  0  0
 27 28  1  0  0  0
 28 29  2  0  0  0
 29 30  1  0  0  0
 30 31  1  0  0  0
 31 32  1  0  0  0
 31 33  1  0  0  0
 33 34  2  0  0  0
 33 35  1  0  0  0
 35 39  1  0  0  0
 39 40  1  0  0  0
 40 41  1  0  0  0
 40 42  2  0  0  0
 35 36  1  0  0  0
 36 37  2  0  0  0
 36 38  1  0  0  0
 10  5  1  0  0  0
 16 11  1  0  0  0
 21 17  1  0  0  0
 38 27  1  0  0  0
 22 19  1  0  0  0
 38 30  2  0  0  0
  3  4  1  0  0  0
M  END
> <minimizedAffinity>
-5.82086

> <CNNscore>
0.1644140631

> <CNNaffinity>
6.4954543114

> <CNN_VS>
1.0679440498

> <CNNaffinity_variance>
0.8511962891

$$$$
[H]c1nc(N2C([H])([H])C3([H])C(F)(F)C3([H])C2([H])[H])nc([H])c1-c1nc(N([H])C(=O)[C@@]([H])(n2c([H])nc3c2c(=O)n(C([H])([H])C(=O)C([H])([H])[H])c(=O)n3C([H])([H])[H])C([H])([H])[H])c([H])c([H])c1[H]


 42 47  0  0  0  0  0  0  0  0999 V2000
  153.3180  134.4041  184.0344 C   0  0  0  0  0  0  0  0  0  0  0  0
  152.6651  135.0434  183.2179 O   0  0  0  0  0  0  0  0  0  0  0  0
  153.7965  134.9108  185.2430 N   0  0  0  0  0  0  0  0  0  0  0  0
  154.3686  134.2356  185.8873 H   0  0  0  0  0  0  0  0  0  0  0  0
  153.6252  136.2254  185.7411 C   0  0  0  0  0  0  0  0  0  0  0  0
  152.8137  136.5460  186.7899 C   0  0  0  0  0  0  0  0  0  0  0  0
  152.7446  137.8911  187.1714 C   0  0  0  0  0  0  0  0  0  0  0  0
  153.4711  138.8573  186.5099 C   0  0  0  0  0  0  0  0  0  0  0  0
  154.2817  138.5143  185.4569 C   0  0  0  0  0  0  0  0  0  0  0  0
  154.3237  137.2279  185.1215 N   0  0  0  0  0  0  0  0  0  0  0  0
  155.0925  139.4770  184.6949 C   0  0  0  0  0  0  0  0  0  0  0  0
  156.4641  139.5357  184.8603 C   0  0  0  0  0  0  0  0  0  0  0  0
  157.2290  140.4014  184.1806 N   0  0  0  0  0  0  0  0  0  0  0  0
  156.6783  141.2728  183.2849 C   0  0  0  0  0  0  0  0  0  0  0  0
  155.3392  141.2112  183.1274 N   0  0  0  0  0  0  0  0  0  0  0  0
  154.5375  140.3470  183.7998 C   0  0  0  0  0  0  0  0  0  0  0  0
  157.4792  142.1867  182.5672 N   0  0  0  0  0  0  0  0  0  0  0  0
  157.0063  143.2130  181.6907 C   0  0  0  0  0  0  0  0  0  0  0  0
  157.9515  143.0711  180.5034 C   0  0  0  0  0  0  0  0  0  0  0  0
  159.2226  142.4187  181.0946 C   0  0  0  0  0  0  0  0  0  0  0  0
  158.9073  142.2587  182.5815 C   0  0  0  0  0  0  0  0  0  0  0  0
  159.2524  143.7750  180.4989 C   0  0  0  0  0  0  0  0  0  0  0  0
  159.3737  144.8758  181.3018 F   0  0  0  0  0  0  0  0  0  0  0  0
  159.8716  143.8629  179.2685 F   0  0  0  0  0  0  0  0  0  0  0  0
  153.7020  132.9611  182.1571 C   0  0  0  0  0  0  0  0  0  0  0  0
  153.6193  132.9618  183.6927 C   0  0  0  0  0  0  0  0  0  0  0  0
  152.5264  132.1276  184.0498 N   0  0  0  0  0  0  0  0  0  0  0  0
  151.5866  131.7227  183.1615 C   0  0  0  0  0  0  0  0  0  0  0  0
  150.6818  130.9498  183.7675 N   0  0  0  0  0  0  0  0  0  0  0  0
  151.0246  130.8449  185.0558 C   0  0  0  0  0  0  0  0  0  0  0  0
  150.5160  130.2176  186.1315 N   0  0  0  0  0  0  0  0  0  0  0  0
  149.3039  129.4436  185.9469 C   0  0  0  0  0  0  0  0  0  0  0  0
  151.0845  130.2874  187.3368 C   0  0  0  0  0  0  0  0  0  0  0  0
  150.5565  129.6730  188.3123 O   0  0  0  0  0  0  0  0  0  0  0  0
  152.2076  130.9955  187.5431 N   0  0  0  0  0  0  0  0  0  0  0  0
  152.7334  131.6348  186.4665 C   0  0  0  0  0  0  0  0  0  0  0  0
  153.7765  132.3008  186.6267 O   0  0  0  0  0  0  0  0  0  0  0  0
  152.1705  131.5795  185.2206 C   0  0  0  0  0  0  0  0  0  0  0  0
  152.8181  131.0627  188.8617 C   0  0  0  0  0  0  0  0  0  0  0  0
  152.3720  132.2557  189.6131 C   0  0  0  0  0  0  0  0  0  0  0  0
  153.1673  133.5110  189.7005 C   0  0  0  0  0  0  0  0  0  0  0  0
  151.2950  132.2169  190.1957 O   0  0  0  0  0  0  0  0  0  0  0  0
 25 26  1  0  0  0
 26  1  1  0  0  0
  1  2  2  0  0  0
  1  3  1  0  0  0
  3  5  1  0  0  0
  5  6  2  0  0  0
  6  7  1  0  0  0
  7  8  2  0  0  0
  8  9  1  0  0  0
  9 10  2  0  0  0
  9 11  1  0  0  0
 11 12  2  0  0  0
 12 13  1  0  0  0
 13 14  2  0  0  0
 14 15  1  0  0  0
 15 16  2  0  0  0
 14 17  1  0  0  0
 17 18  1  0  0  0
 18 19  1  0  0  0
 19 20  1  0  0  0
 20 21  1  0  0  0
 20 22  1  0  0  0
 22 23  1  0  0  0
 22 24  1  0  0  0
 26 27  1  0  0  0
 27 28  1  0  0  0
 28 29  2  0  0  0
 29 30  1  0  0  0
 30 31  1  0  0  0
 31 32  1  0  0  0
 31 33  1  0  0  0
 33 34  2  0  0  0
 33 35  1  0  0  0
 35 39  1  0  0  0
 39 40  1  0  0  0
 40 41  1  0  0  0
 40 42  2  0  0  0
 35 36  1  0  0  0
 36 37  2  0  0  0
 36 38  1  0  0  0
 10  5  1  0  0  0
 16 11  1  0  0  0
 21 17  1  0  0  0
 38 27  1  0  0  0
 22 19  1  0  0  0
 38 30  2  0  0  0
  3  4  1  0  0  0
M  END
> <minimizedAffinity>
-5.98850

> <CNNscore>
0.1599717587

> <CNNaffinity>
6.4510145187

> <CNN_VS>
1.0319801569

> <CNNaffinity_variance>
0.6399238706

$$$$
[H]c1sc(-c2c([H])c([H])c(Cl)c(Cl)c2[H])nc1N([H])C(=O)[C@@]([H])(n1c([H])nc2c1c(=O)n(C([H])([H])C#N)c(=O)n2C([H])([H])[H])C([H])([H])[H]


 34 37  0  0  0  0  0  0  0  0999 V2000
  156.5542  138.1488  190.3730 C   0  0  0  0  0  0  0  0  0  0  0  0
  155.1563  137.6186  190.0372 C   0  0  0  0  0  0  0  0  0  0  0  0
  155.0531  136.1922  190.2211 N   0  0  0  0  0  0  0  0  0  0  0  0
  155.6435  135.2286  189.4879 C   0  0  0  0  0  0  0  0  0  0  0  0
  155.2754  134.0534  190.0074 N   0  0  0  0  0  0  0  0  0  0  0  0
  154.4673  134.2571  191.0497 C   0  0  0  0  0  0  0  0  0  0  0  0
  153.8173  133.4558  191.9206 N   0  0  0  0  0  0  0  0  0  0  0  0
  153.9943  132.0210  191.7417 C   0  0  0  0  0  0  0  0  0  0  0  0
  153.0471  133.9582  192.9015 C   0  0  0  0  0  0  0  0  0  0  0  0
  152.4642  133.1724  193.6850 O   0  0  0  0  0  0  0  0  0  0  0  0
  152.8741  135.2723  193.0795 N   0  0  0  0  0  0  0  0  0  0  0  0
  153.5045  136.1022  192.2330 C   0  0  0  0  0  0  0  0  0  0  0  0
  153.3781  137.3439  192.3526 O   0  0  0  0  0  0  0  0  0  0  0  0
  154.3073  135.6297  191.2092 C   0  0  0  0  0  0  0  0  0  0  0  0
  152.0573  135.7804  194.1205 C   0  0  0  0  0  0  0  0  0  0  0  0
  150.6516  135.7145  193.7392 C   0  0  0  0  0  0  0  0  0  0  0  0
  149.5442  135.6612  193.4474 N   0  0  0  0  0  0  0  0  0  0  0  0
  154.8340  138.0573  188.6654 C   0  0  0  0  0  0  0  0  0  0  0  0
  153.7521  138.6497  188.4426 O   0  0  0  0  0  0  0  0  0  0  0  0
  155.7200  137.8261  187.5824 N   0  0  0  0  0  0  0  0  0  0  0  0
  156.6071  137.3398  187.7677 H   0  0  0  0  0  0  0  0  0  0  0  0
  155.4006  138.2591  186.2314 C   0  0  0  0  0  0  0  0  0  0  0  0
  154.2457  137.8433  185.6097 C   0  0  0  0  0  0  0  0  0  0  0  0
  154.3715  138.6244  184.0943 S   0  0  0  0  0  0  0  0  0  0  0  0
  155.8582  139.4178  184.3390 C   0  0  0  0  0  0  0  0  0  0  0  0
  156.1835  139.0475  185.5631 N   0  0  0  0  0  0  0  0  0  0  0  0
  156.6326  140.3031  183.4511 C   0  0  0  0  0  0  0  0  0  0  0  0
  157.7854  139.8481  182.8592 C   0  0  0  0  0  0  0  0  0  0  0  0
  158.5337  140.6722  182.0141 C   0  0  0  0  0  0  0  0  0  0  0  0
  158.1178  141.9612  181.7644 C   0  0  0  0  0  0  0  0  0  0  0  0
  159.0548  143.0085  180.6998 Cl  0  0  0  0  0  0  0  0  0  0  0  0
  156.9626  142.3989  182.3651 C   0  0  0  0  0  0  0  0  0  0  0  0
  156.4377  144.0306  182.0482 Cl  0  0  0  0  0  0  0  0  0  0  0  0
  156.2159  141.5755  183.2089 C   0  0  0  0  0  0  0  0  0  0  0  0
  1  2  1  0  0  0
  2 18  1  0  0  0
 18 19  2  0  0  0
 18 20  1  0  0  0
 20 22  1  0  0  0
 22 23  2  0  0  0
 23 24  1  0  0  0
 24 25  1  0  0  0
 25 26  2  0  0  0
 25 27  1  0  0  0
 27 28  2  0  0  0
 28 29  1  0  0  0
 29 30  2  0  0  0
 30 31  1  0  0  0
 30 32  1  0  0  0
 32 33  1  0  0  0
 32 34  2  0  0  0
  2  3  1  0  0  0
  3  4  1  0  0  0
  4  5  2  0  0  0
  5  6  1  0  0  0
  6  7  1  0  0  0
  7  8  1  0  0  0
  7  9  1  0  0  0
  9 10  2  0  0  0
  9 11  1  0  0  0
 11 15  1  0  0  0
 15 16  1  0  0  0
 16 17  3  0  0  0
 11 12  1  0  0  0
 12 13  2  0  0  0
 12 14  1  0  0  0
 26 22  1  0  0  0
 34 27  1  0  0  0
 14  3  1  0  0  0
 14  6  2  0  0  0
 20 21  1  0  0  0
M  END
> <minimizedAffinity>
-7.70422

> <CNNscore>
0.5291309953

> <CNNaffinity>
6.3016319275

> <CNN_VS>
3.3343887329

> <CNNaffinity_variance>
0.0407199487

$$$$
[H]c1sc(-c2c([H])c([H])c(Cl)c(Cl)c2[H])nc1N([H])C(=O)[C@@]([H])(n1c([H])nc2c1c(=O)n(C([H])([H])C#N)c(=O)n2C([H])([H])[H])C([H])([H])[H]


 34 37  0  0  0  0  0  0  0  0999 V2000
  151.3573  137.0857  186.8750 C   0  0  0  0  0  0  0  0  0  0  0  0
  152.8703  136.8453  186.9060 C   0  0  0  0  0  0  0  0  0  0  0  0
  153.3612  136.6174  188.2425 N   0  0  0  0  0  0  0  0  0  0  0  0
  152.7722  136.9712  189.4011 C   0  0  0  0  0  0  0  0  0  0  0  0
  153.5714  136.5654  190.3925 N   0  0  0  0  0  0  0  0  0  0  0  0
  154.6489  135.9652  189.8829 C   0  0  0  0  0  0  0  0  0  0  0  0
  155.7498  135.3830  190.4044 N   0  0  0  0  0  0  0  0  0  0  0  0
  155.8522  135.3690  191.8575 C   0  0  0  0  0  0  0  0  0  0  0  0
  156.7010  134.8446  189.6215 C   0  0  0  0  0  0  0  0  0  0  0  0
  157.7047  134.3154  190.1542 O   0  0  0  0  0  0  0  0  0  0  0  0
  156.6224  134.8491  188.2865 N   0  0  0  0  0  0  0  0  0  0  0  0
  155.5419  135.4192  187.7297 C   0  0  0  0  0  0  0  0  0  0  0  0
  155.4157  135.4524  186.4827 O   0  0  0  0  0  0  0  0  0  0  0  0
  154.5380  135.9854  188.4964 C   0  0  0  0  0  0  0  0  0  0  0  0
  157.6372  134.2756  187.4801 C   0  0  0  0  0  0  0  0  0  0  0  0
  157.3773  132.8560  187.2725 C   0  0  0  0  0  0  0  0  0  0  0  0
  157.1789  131.7396  187.1034 N   0  0  0  0  0  0  0  0  0  0  0  0
  153.5145  137.9897  186.2325 C   0  0  0  0  0  0  0  0  0  0  0  0
  153.3664  139.1448  186.6963 O   0  0  0  0  0  0  0  0  0  0  0  0
  154.3027  137.8195  185.0659 N   0  0  0  0  0  0  0  0  0  0  0  0
  154.4226  136.8708  184.6874 H   0  0  0  0  0  0  0  0  0  0  0  0
  154.9365  138.9484  184.4037 C   0  0  0  0  0  0  0  0  0  0  0  0
  154.2555  139.6938  183.4690 C   0  0  0  0  0  0  0  0  0  0  0  0
  155.4337  140.8517  183.0288 S   0  0  0  0  0  0  0  0  0  0  0  0
  156.6978  140.3269  184.0419 C   0  0  0  0  0  0  0  0  0  0  0  0
  156.1582  139.2960  184.6643 N   0  0  0  0  0  0  0  0  0  0  0  0
  158.0644  140.8483  184.2221 C   0  0  0  0  0  0  0  0  0  0  0  0
  158.9924  140.7103  183.2189 C   0  0  0  0  0  0  0  0  0  0  0  0
  160.2933  141.1981  183.3705 C   0  0  0  0  0  0  0  0  0  0  0  0
  160.6606  141.8280  184.5389 C   0  0  0  0  0  0  0  0  0  0  0  0
  162.2991  142.4466  184.7398 Cl  0  0  0  0  0  0  0  0  0  0  0  0
  159.7192  141.9568  185.5311 C   0  0  0  0  0  0  0  0  0  0  0  0
  160.1857  142.7541  187.0092 Cl  0  0  0  0  0  0  0  0  0  0  0  0
  158.4204  141.4695  185.3790 C   0  0  0  0  0  0  0  0  0  0  0  0
  1  2  1  0  0  0
  2 18  1  0  0  0
 18 19  2  0  0  0
 18 20  1  0  0  0
 20 22  1  0  0  0
 22 23  2  0  0  0
 23 24  1  0  0  0
 24 25  1  0  0  0
 25 26  2  0  0  0
 25 27  1  0  0  0
 27 28  2  0  0  0
 28 29  1  0  0  0
 29 30  2  0  0  0
 30 31  1  0  0  0
 30 32  1  0  0  0
 32 33  1  0  0  0
 32 34  2  0  0  0
  2  3  1  0  0  0
  3  4  1  0  0  0
  4  5  2  0  0  0
  5  6  1  0  0  0
  6  7  1  0  0  0
  7  8  1  0  0  0
  7  9  1  0  0  0
  9 10  2  0  0  0
  9 11  1  0  0  0
 11 15  1  0  0  0
 15 16  1  0  0  0
 16 17  3  0  0  0
 11 12  1  0  0  0
 12 13  2  0  0  0
 12 14  1  0  0  0
 26 22  1  0  0  0
 34 27  1  0  0  0
 14  3  1  0  0  0
 14  6  2  0  0  0
 20 21  1  0  0  0
M  END
> <minimizedAffinity>
-7.13378

> <CNNscore>
0.4654900432

> <CNNaffinity>
6.7800750732

> <CNN_VS>
3.1560573578

> <CNNaffinity_variance>
0.0900757164

$$$$
[H]c1sc(-c2c([H])c([H])c(Cl)c(Cl)c2[H])nc1N([H])C(=O)[C@@]([H])(n1c([H])nc2c1c(=O)n(C([H])([H])C#N)c(=O)n2C([H])([H])[H])C([H])([H])[H]


 34 37  0  0  0  0  0  0  0  0999 V2000
  156.6864  137.7943  190.0173 C   0  0  0  0  0  0  0  0  0  0  0  0
  155.3828  137.2919  189.3881 C   0  0  0  0  0  0  0  0  0  0  0  0
  155.1557  135.8911  189.6438 N   0  0  0  0  0  0  0  0  0  0  0  0
  155.6049  134.8453  188.9233 C   0  0  0  0  0  0  0  0  0  0  0  0
  155.1596  133.7339  189.5173 N   0  0  0  0  0  0  0  0  0  0  0  0
  154.4408  134.0580  190.5941 C   0  0  0  0  0  0  0  0  0  0  0  0
  153.7728  133.3603  191.5374 N   0  0  0  0  0  0  0  0  0  0  0  0
  153.8008  131.9090  191.4155 C   0  0  0  0  0  0  0  0  0  0  0  0
  153.1164  133.9752  192.5368 C   0  0  0  0  0  0  0  0  0  0  0  0
  152.5111  133.2827  193.3884 O   0  0  0  0  0  0  0  0  0  0  0  0
  153.0808  135.3060  192.6632 N   0  0  0  0  0  0  0  0  0  0  0  0
  153.7336  136.0351  191.7440 C   0  0  0  0  0  0  0  0  0  0  0  0
  153.7337  137.2871  191.8128 O   0  0  0  0  0  0  0  0  0  0  0  0
  154.4226  135.4450  190.6985 C   0  0  0  0  0  0  0  0  0  0  0  0
  152.3823  135.9336  193.7250 C   0  0  0  0  0  0  0  0  0  0  0  0
  150.9487  135.9310  193.4595 C   0  0  0  0  0  0  0  0  0  0  0  0
  149.8206  135.9224  193.2557 N   0  0  0  0  0  0  0  0  0  0  0  0
  155.4272  137.6254  187.9511 C   0  0  0  0  0  0  0  0  0  0  0  0
  156.4682  137.3923  187.2930 O   0  0  0  0  0  0  0  0  0  0  0  0
  154.3172  138.2070  187.2872 N   0  0  0  0  0  0  0  0  0  0  0  0
  153.4642  138.3972  187.8293 H   0  0  0  0  0  0  0  0  0  0  0  0
  154.3630  138.5349  185.8712 C   0  0  0  0  0  0  0  0  0  0  0  0
  155.4701  139.1380  185.3201 C   0  0  0  0  0  0  0  0  0  0  0  0
  154.9998  139.2887  183.6835 S   0  0  0  0  0  0  0  0  0  0  0  0
  153.4518  138.5883  183.7975 C   0  0  0  0  0  0  0  0  0  0  0  0
  153.3716  138.2751  185.0768 N   0  0  0  0  0  0  0  0  0  0  0  0
  152.4212  138.3622  182.7686 C   0  0  0  0  0  0  0  0  0  0  0  0
  151.5337  137.3221  182.8992 C   0  0  0  0  0  0  0  0  0  0  0  0
  150.5493  137.0912  181.9345 C   0  0  0  0  0  0  0  0  0  0  0  0
  150.4589  137.9128  180.8328 C   0  0  0  0  0  0  0  0  0  0  0  0
  149.2205  137.6298  179.6103 Cl  0  0  0  0  0  0  0  0  0  0  0  0
  151.3549  138.9478  180.7191 C   0  0  0  0  0  0  0  0  0  0  0  0
  151.2392  139.9866  179.3241 Cl  0  0  0  0  0  0  0  0  0  0  0  0
  152.3377  139.1778  181.6828 C   0  0  0  0  0  0  0  0  0  0  0  0
  1  2  1  0  0  0
  2 18  1  0  0  0
 18 19  2  0  0  0
 18 20  1  0  0  0
 20 22  1  0  0  0
 22 23  2  0  0  0
 23 24  1  0  0  0
 24 25  1  0  0  0
 25 26  2  0  0  0
 25 27  1  0  0  0
 27 28  2  0  0  0
 28 29  1  0  0  0
 29 30  2  0  0  0
 30 31  1  0  0  0
 30 32  1  0  0  0
 32 33  1  0  0  0
 32 34  2  0  0  0
  2  3  1  0  0  0
  3  4  1  0  0  0
  4  5  2  0  0  0
  5  6  1  0  0  0
  6  7  1  0  0  0
  7  8  1  0  0  0
  7  9  1  0  0  0
  9 10  2  0  0  0
  9 11  1  0  0  0
 11 15  1  0  0  0
 15 16  1  0  0  0
 16 17  3  0  0  0
 11 12  1  0  0  0
 12 13  2  0  0  0
 12 14  1  0  0  0
 26 22  1  0  0  0
 34 27  1  0  0  0
 14  3  1  0  0  0
 14  6  2  0  0  0
 20 21  1  0  0  0
M  END
> <minimizedAffinity>
-6.36340

> <CNNscore>
0.4105455577

> <CNNaffinity>
5.8504571915

> <CNN_VS>
2.4018793106

> <CNNaffinity_variance>
0.2246771157

$$$$
[H]c1sc(-c2c([H])c([H])c(Cl)c(Cl)c2[H])nc1N([H])C(=O)[C@@]([H])(n1c([H])nc2c1c(=O)n(C([H])([H])C#N)c(=O)n2C([H])([H])[H])C([H])([H])[H]


 34 37  0  0  0  0  0  0  0  0999 V2000
  152.8905  137.5213  185.1913 C   0  0  0  0  0  0  0  0  0  0  0  0
  154.1930  137.2642  185.9564 C   0  0  0  0  0  0  0  0  0  0  0  0
  153.9849  137.1865  187.3811 N   0  0  0  0  0  0  0  0  0  0  0  0
  153.1840  137.9652  188.1339 C   0  0  0  0  0  0  0  0  0  0  0  0
  153.2957  137.5445  189.3976 N   0  0  0  0  0  0  0  0  0  0  0  0
  154.1485  136.5196  189.4554 C   0  0  0  0  0  0  0  0  0  0  0  0
  154.6236  135.7318  190.4436 N   0  0  0  0  0  0  0  0  0  0  0  0
  154.1334  136.0065  191.7876 C   0  0  0  0  0  0  0  0  0  0  0  0
  155.5036  134.7455  190.1978 C   0  0  0  0  0  0  0  0  0  0  0  0
  155.9151  134.0413  191.1497 O   0  0  0  0  0  0  0  0  0  0  0  0
  155.9635  134.4802  188.9704 N   0  0  0  0  0  0  0  0  0  0  0  0
  155.5141  135.2423  187.9604 C   0  0  0  0  0  0  0  0  0  0  0  0
  155.9116  135.0388  186.7888 O   0  0  0  0  0  0  0  0  0  0  0  0
  154.6080  136.2682  188.1668 C   0  0  0  0  0  0  0  0  0  0  0  0
  156.8913  133.4352  188.7338 C   0  0  0  0  0  0  0  0  0  0  0  0
  158.2388  133.9753  188.5980 C   0  0  0  0  0  0  0  0  0  0  0  0
  159.2950  134.4075  188.4893 N   0  0  0  0  0  0  0  0  0  0  0  0
  155.1533  138.3128  185.5609 C   0  0  0  0  0  0  0  0  0  0  0  0
  156.1439  138.5526  186.2905 O   0  0  0  0  0  0  0  0  0  0  0  0
  154.9868  139.0636  184.3694 N   0  0  0  0  0  0  0  0  0  0  0  0
  154.1732  138.8649  183.7724 H   0  0  0  0  0  0  0  0  0  0  0  0
  155.9341  140.0964  183.9814 C   0  0  0  0  0  0  0  0  0  0  0  0
  155.7345  140.8498  182.8476 C   0  0  0  0  0  0  0  0  0  0  0  0
  157.1024  141.8748  182.8713 S   0  0  0  0  0  0  0  0  0  0  0  0
  157.8319  141.2934  184.2960 C   0  0  0  0  0  0  0  0  0  0  0  0
  156.9962  140.3477  184.6814 N   0  0  0  0  0  0  0  0  0  0  0  0
  159.0753  141.7006  184.9741 C   0  0  0  0  0  0  0  0  0  0  0  0
  159.0404  142.1275  186.2791 C   0  0  0  0  0  0  0  0  0  0  0  0
  160.2086  142.5178  186.9397 C   0  0  0  0  0  0  0  0  0  0  0  0
  161.4178  142.4776  186.2816 C   0  0  0  0  0  0  0  0  0  0  0  0
  162.8969  142.9678  187.1062 Cl  0  0  0  0  0  0  0  0  0  0  0  0
  161.4333  142.0479  184.9769 C   0  0  0  0  0  0  0  0  0  0  0  0
  162.9644  141.9977  184.1454 Cl  0  0  0  0  0  0  0  0  0  0  0  0
  160.2665  141.6584  184.3179 C   0  0  0  0  0  0  0  0  0  0  0  0
  1  2  1  0  0  0
  2 18  1  0  0  0
 18 19  2  0  0  0
 18 20  1  0  0  0
 20 22  1  0  0  0
 22 23  2  0  0  0
 23 24  1  0  0  0
 24 25  1  0  0  0
 25 26  2  0  0  0
 25 27  1  0  0  0
 27 28  2  0  0  0
 28 29  1  0  0  0
 29 30  2  0  0  0
 30 31  1  0  0  0
 30 32  1  0  0  0
 32 33  1  0  0  0
 32 34  2  0  0  0
  2  3  1  0  0  0
  3  4  1  0  0  0
  4  5  2  0  0  0
  5  6  1  0  0  0
  6  7  1  0  0  0
  7  8  1  0  0  0
  7  9  1  0  0  0
  9 10  2  0  0  0
  9 11  1  0  0  0
 11 15  1  0  0  0
 15 16  1  0  0  0
 16 17  3  0  0  0
 11 12  1  0  0  0
 12 13  2  0  0  0
 12 14  1  0  0  0
 26 22  1  0  0  0
 34 27  1  0  0  0
 14  3  1  0  0  0
 14  6  2  0  0  0
 20 21  1  0  0  0
M  END
> <minimizedAffinity>
-7.99914

> <CNNscore>
0.4096333086

> <CNNaffinity>
6.7434067726

> <CNN_VS>
2.7623240948

> <CNNaffinity_variance>
0.0549106412

$$$$
[H]c1sc(-c2c([H])c([H])c(Cl)c(Cl)c2[H])nc1N([H])C(=O)[C@@]([H])(n1c([H])nc2c1c(=O)n(C([H])([H])C#N)c(=O)n2C([H])([H])[H])C([H])([H])[H]


 34 37  0  0  0  0  0  0  0  0999 V2000
  152.1220  137.6596  186.8538 C   0  0  0  0  0  0  0  0  0  0  0  0
  152.7836  136.7071  185.8523 C   0  0  0  0  0  0  0  0  0  0  0  0
  153.4587  135.6115  186.5025 N   0  0  0  0  0  0  0  0  0  0  0  0
  153.2697  134.2944  186.2923 C   0  0  0  0  0  0  0  0  0  0  0  0
  154.1029  133.6392  187.1065 N   0  0  0  0  0  0  0  0  0  0  0  0
  154.8105  134.5148  187.8233 C   0  0  0  0  0  0  0  0  0  0  0  0
  155.7672  134.4161  188.7708 N   0  0  0  0  0  0  0  0  0  0  0  0
  156.1727  133.0689  189.1487 C   0  0  0  0  0  0  0  0  0  0  0  0
  156.3159  135.5061  189.3353 C   0  0  0  0  0  0  0  0  0  0  0  0
  157.2011  135.3617  190.2110 O   0  0  0  0  0  0  0  0  0  0  0  0
  155.9552  136.7494  189.0000 N   0  0  0  0  0  0  0  0  0  0  0  0
  155.0062  136.8890  188.0606 C   0  0  0  0  0  0  0  0  0  0  0  0
  154.6287  138.0313  187.7073 O   0  0  0  0  0  0  0  0  0  0  0  0
  154.4139  135.7955  187.4526 C   0  0  0  0  0  0  0  0  0  0  0  0
  156.5471  137.8847  189.6081 C   0  0  0  0  0  0  0  0  0  0  0  0
  155.6721  138.4173  190.6457 C   0  0  0  0  0  0  0  0  0  0  0  0
  154.9780  138.8367  191.4560 N   0  0  0  0  0  0  0  0  0  0  0  0
  153.6708  137.5147  184.9928 C   0  0  0  0  0  0  0  0  0  0  0  0
  154.3548  136.9516  184.1061 O   0  0  0  0  0  0  0  0  0  0  0  0
  153.7732  138.9213  185.1419 N   0  0  0  0  0  0  0  0  0  0  0  0
  153.2110  139.3810  185.8701 H   0  0  0  0  0  0  0  0  0  0  0  0
  154.6481  139.7153  184.2940 C   0  0  0  0  0  0  0  0  0  0  0  0
  154.1985  140.2324  183.1009 C   0  0  0  0  0  0  0  0  0  0  0  0
  155.5892  141.0501  182.5355 S   0  0  0  0  0  0  0  0  0  0  0  0
  156.6389  140.6911  183.8274 C   0  0  0  0  0  0  0  0  0  0  0  0
  155.8766  139.9664  184.6242 N   0  0  0  0  0  0  0  0  0  0  0  0
  158.0463  141.0648  184.0544 C   0  0  0  0  0  0  0  0  0  0  0  0
  158.9819  140.8557  183.0708 C   0  0  0  0  0  0  0  0  0  0  0  0
  160.3213  141.2034  183.2668 C   0  0  0  0  0  0  0  0  0  0  0  0
  160.7195  141.7645  184.4599 C   0  0  0  0  0  0  0  0  0  0  0  0
  162.4068  142.2064  184.7167 Cl  0  0  0  0  0  0  0  0  0  0  0  0
  159.7699  141.9660  185.4319 C   0  0  0  0  0  0  0  0  0  0  0  0
  160.2755  142.6762  186.9413 Cl  0  0  0  0  0  0  0  0  0  0  0  0
  158.4326  141.6187  185.2355 C   0  0  0  0  0  0  0  0  0  0  0  0
  1  2  1  0  0  0
  2 18  1  0  0  0
 18 19  2  0  0  0
 18 20  1  0  0  0
 20 22  1  0  0  0
 22 23  2  0  0  0
 23 24  1  0  0  0
 24 25  1  0  0  0
 25 26  2  0  0  0
 25 27  1  0  0  0
 27 28  2  0  0  0
 28 29  1  0  0  0
 29 30  2  0  0  0
 30 31  1  0  0  0
 30 32  1  0  0  0
 32 33  1  0  0  0
 32 34  2  0  0  0
  2  3  1  0  0  0
  3  4  1  0  0  0
  4  5  2  0  0  0
  5  6  1  0  0  0
  6  7  1  0  0  0
  7  8  1  0  0  0
  7  9  1  0  0  0
  9 10  2  0  0  0
  9 11  1  0  0  0
 11 15  1  0  0  0
 15 16  1  0  0  0
 16 17  3  0  0  0
 11 12  1  0  0  0
 12 13  2  0  0  0
 12 14  1  0  0  0
 26 22  1  0  0  0
 34 27  1  0  0  0
 14  3  1  0  0  0
 14  6  2  0  0  0
 20 21  1  0  0  0
M  END
> <minimizedAffinity>
-7.50400

> <CNNscore>
0.4035638869

> <CNNaffinity>
6.7685594559

> <CNN_VS>
2.7315461636

> <CNNaffinity_variance>
0.1346053630

$$$$
[H]c1sc(-c2c([H])c([H])c(Cl)c(Cl)c2[H])nc1N([H])C(=O)[C@@]([H])(n1c([H])nc2c1c(=O)n(C([H])([H])C#N)c(=O)n2C([H])([H])[H])C([H])([H])[H]


 34 37  0  0  0  0  0  0  0  0999 V2000
  153.9009  135.2784  185.1323 C   0  0  0  0  0  0  0  0  0  0  0  0
  153.9909  136.4233  186.1466 C   0  0  0  0  0  0  0  0  0  0  0  0
  153.0209  136.2940  187.2057 N   0  0  0  0  0  0  0  0  0  0  0  0
  151.7504  135.8585  187.1019 C   0  0  0  0  0  0  0  0  0  0  0  0
  151.2153  135.9011  188.3259 N   0  0  0  0  0  0  0  0  0  0  0  0
  152.1206  136.3536  189.1957 C   0  0  0  0  0  0  0  0  0  0  0  0
  152.1267  136.5935  190.5244 N   0  0  0  0  0  0  0  0  0  0  0  0
  150.8898  136.3151  191.2417 C   0  0  0  0  0  0  0  0  0  0  0  0
  153.2188  137.0651  191.1510 C   0  0  0  0  0  0  0  0  0  0  0  0
  153.1740  137.2716  192.3865 O   0  0  0  0  0  0  0  0  0  0  0  0
  154.3617  137.3259  190.5075 N   0  0  0  0  0  0  0  0  0  0  0  0
  154.3954  137.1000  189.1844 C   0  0  0  0  0  0  0  0  0  0  0  0
  155.4405  137.3270  188.5301 O   0  0  0  0  0  0  0  0  0  0  0  0
  153.2954  136.6149  188.4982 C   0  0  0  0  0  0  0  0  0  0  0  0
  155.5014  137.8228  191.1881 C   0  0  0  0  0  0  0  0  0  0  0  0
  156.2732  136.7226  191.7535 C   0  0  0  0  0  0  0  0  0  0  0  0
  156.8736  135.8525  192.1972 N   0  0  0  0  0  0  0  0  0  0  0  0
  153.8746  137.6893  185.3970 C   0  0  0  0  0  0  0  0  0  0  0  0
  153.6328  138.7539  186.0129 O   0  0  0  0  0  0  0  0  0  0  0  0
  154.0295  137.7372  183.9882 N   0  0  0  0  0  0  0  0  0  0  0  0
  154.2279  136.8624  183.4851 H   0  0  0  0  0  0  0  0  0  0  0  0
  153.9145  138.9856  183.2514 C   0  0  0  0  0  0  0  0  0  0  0  0
  152.7292  139.3480  182.6541 C   0  0  0  0  0  0  0  0  0  0  0  0
  153.1440  140.8503  181.9516 S   0  0  0  0  0  0  0  0  0  0  0  0
  154.7703  140.9249  182.4512 C   0  0  0  0  0  0  0  0  0  0  0  0
  154.9148  139.8013  183.1280 N   0  0  0  0  0  0  0  0  0  0  0  0
  155.8007  141.9527  182.2192 C   0  0  0  0  0  0  0  0  0  0  0  0
  155.5928  143.2438  182.6390 C   0  0  0  0  0  0  0  0  0  0  0  0
  156.5577  144.2326  182.4285 C   0  0  0  0  0  0  0  0  0  0  0  0
  157.7378  143.9186  181.7917 C   0  0  0  0  0  0  0  0  0  0  0  0
  158.9611  145.1589  181.5214 Cl  0  0  0  0  0  0  0  0  0  0  0  0
  157.9281  142.6222  181.3789 C   0  0  0  0  0  0  0  0  0  0  0  0
  159.4222  142.2263  180.5731 Cl  0  0  0  0  0  0  0  0  0  0  0  0
  156.9642  141.6353  181.5894 C   0  0  0  0  0  0  0  0  0  0  0  0
  1  2  1  0  0  0
  2 18  1  0  0  0
 18 19  2  0  0  0
 18 20  1  0  0  0
 20 22  1  0  0  0
 22 23  2  0  0  0
 23 24  1  0  0  0
 24 25  1  0  0  0
 25 26  2  0  0  0
 25 27  1  0  0  0
 27 28  2  0  0  0
 28 29  1  0  0  0
 29 30  2  0  0  0
 30 31  1  0  0  0
 30 32  1  0  0  0
 32 33  1  0  0  0
 32 34  2  0  0  0
  2  3  1  0  0  0
  3  4  1  0  0  0
  4  5  2  0  0  0
  5  6  1  0  0  0
  6  7  1  0  0  0
  7  8  1  0  0  0
  7  9  1  0  0  0
  9 10  2  0  0  0
  9 11  1  0  0  0
 11 15  1  0  0  0
 15 16  1  0  0  0
 16 17  3  0  0  0
 11 12  1  0  0  0
 12 13  2  0  0  0
 12 14  1  0  0  0
 26 22  1  0  0  0
 34 27  1  0  0  0
 14  3  1  0  0  0
 14  6  2  0  0  0
 20 21  1  0  0  0
M  END
> <minimizedAffinity>
-7.21930

> <CNNscore>
0.3801448941

> <CNNaffinity>
6.2069005966

> <CNN_VS>
2.3595216274

> <CNNaffinity_variance>
0.1372561157

$$$$
[H]c1sc(-c2c([H])c([H])c(Cl)c(Cl)c2[H])nc1N([H])C(=O)[C@@]([H])(n1c([H])nc2c1c(=O)n(C([H])([H])C#N)c(=O)n2C([H])([H])[H])C([H])([H])[H]


 34 37  0  0  0  0  0  0  0  0999 V2000
  153.6840  135.4675  184.5305 C   0  0  0  0  0  0  0  0  0  0  0  0
  153.2629  136.3815  185.6861 C   0  0  0  0  0  0  0  0  0  0  0  0
  151.8302  136.4609  185.8271 N   0  0  0  0  0  0  0  0  0  0  0  0
  150.9368  136.8421  184.8938 C   0  0  0  0  0  0  0  0  0  0  0  0
  149.7243  136.7669  185.4512 N   0  0  0  0  0  0  0  0  0  0  0  0
  149.8361  136.3474  186.7132 C   0  0  0  0  0  0  0  0  0  0  0  0
  148.9646  136.0993  187.7141 N   0  0  0  0  0  0  0  0  0  0  0  0
  147.5549  136.3179  187.4189 C   0  0  0  0  0  0  0  0  0  0  0  0
  149.3784  135.6727  188.9201 C   0  0  0  0  0  0  0  0  0  0  0  0
  148.5298  135.4563  189.8169 O   0  0  0  0  0  0  0  0  0  0  0  0
  150.6682  135.4671  189.2075 N   0  0  0  0  0  0  0  0  0  0  0  0
  151.5660  135.7029  188.2375 C   0  0  0  0  0  0  0  0  0  0  0  0
  152.7890  135.5274  188.4510 O   0  0  0  0  0  0  0  0  0  0  0  0
  151.1856  136.1426  186.9813 C   0  0  0  0  0  0  0  0  0  0  0  0
  151.0824  135.0170  190.4861 C   0  0  0  0  0  0  0  0  0  0  0  0
  151.1135  136.1288  191.4288 C   0  0  0  0  0  0  0  0  0  0  0  0
  151.1311  137.0001  192.1737 N   0  0  0  0  0  0  0  0  0  0  0  0
  153.9039  137.6931  185.4695 C   0  0  0  0  0  0  0  0  0  0  0  0
  154.0378  138.4837  186.4329 O   0  0  0  0  0  0  0  0  0  0  0  0
  154.3768  138.0887  184.1924 N   0  0  0  0  0  0  0  0  0  0  0  0
  154.2658  137.4383  183.4035 H   0  0  0  0  0  0  0  0  0  0  0  0
  155.0081  139.3816  183.9811 C   0  0  0  0  0  0  0  0  0  0  0  0
  154.2797  140.4601  183.5344 C   0  0  0  0  0  0  0  0  0  0  0  0
  155.4772  141.6781  183.4652 S   0  0  0  0  0  0  0  0  0  0  0  0
  156.8074  140.7584  183.9987 C   0  0  0  0  0  0  0  0  0  0  0  0
  156.2717  139.5698  184.2027 N   0  0  0  0  0  0  0  0  0  0  0  0
  158.2175  141.1360  184.2011 C   0  0  0  0  0  0  0  0  0  0  0  0
  159.1386  140.9190  183.2057 C   0  0  0  0  0  0  0  0  0  0  0  0
  160.4803  141.2701  183.3783 C   0  0  0  0  0  0  0  0  0  0  0  0
  160.8955  141.8428  184.5601 C   0  0  0  0  0  0  0  0  0  0  0  0
  162.5857  142.2892  184.7875 Cl  0  0  0  0  0  0  0  0  0  0  0  0
  159.9602  142.0522  185.5443 C   0  0  0  0  0  0  0  0  0  0  0  0
  160.4873  142.7769  187.0393 Cl  0  0  0  0  0  0  0  0  0  0  0  0
  158.6207  141.7013  185.3712 C   0  0  0  0  0  0  0  0  0  0  0  0
  1  2  1  0  0  0
  2 18  1  0  0  0
 18 19  2  0  0  0
 18 20  1  0  0  0
 20 22  1  0  0  0
 22 23  2  0  0  0
 23 24  1  0  0  0
 24 25  1  0  0  0
 25 26  2  0  0  0
 25 27  1  0  0  0
 27 28  2  0  0  0
 28 29  1  0  0  0
 29 30  2  0  0  0
 30 31  1  0  0  0
 30 32  1  0  0  0
 32 33  1  0  0  0
 32 34  2  0  0  0
  2  3  1  0  0  0
  3  4  1  0  0  0
  4  5  2  0  0  0
  5  6  1  0  0  0
  6  7  1  0  0  0
  7  8  1  0  0  0
  7  9  1  0  0  0
  9 10  2  0  0  0
  9 11  1  0  0  0
 11 15  1  0  0  0
 15 16  1  0  0  0
 16 17  3  0  0  0
 11 12  1  0  0  0
 12 13  2  0  0  0
 12 14  1  0  0  0
 26 22  1  0  0  0
 34 27  1  0  0  0
 14  3  1  0  0  0
 14  6  2  0  0  0
 20 21  1  0  0  0
M  END
> <minimizedAffinity>
-7.14191

> <CNNscore>
0.3793771863

> <CNNaffinity>
6.2219099998

> <CNN_VS>
2.3604507446

> <CNNaffinity_variance>
0.1404722333

$$$$
[H]c1sc(-c2c([H])c([H])c(Cl)c(Cl)c2[H])nc1N([H])C(=O)[C@@]([H])(n1c([H])nc2c1c(=O)n(C([H])([H])C#N)c(=O)n2C([H])([H])[H])C([H])([H])[H]


 34 37  0  0  0  0  0  0  0  0999 V2000
  153.1441  140.1420  182.0205 C   0  0  0  0  0  0  0  0  0  0  0  0
  153.0091  138.6887  182.4868 C   0  0  0  0  0  0  0  0  0  0  0  0
  151.6818  138.1667  182.2749 N   0  0  0  0  0  0  0  0  0  0  0  0
  150.5292  138.8617  182.2207 C   0  0  0  0  0  0  0  0  0  0  0  0
  149.5454  137.9823  182.0077 N   0  0  0  0  0  0  0  0  0  0  0  0
  150.0541  136.7510  181.9272 C   0  0  0  0  0  0  0  0  0  0  0  0
  149.5378  135.5193  181.7292 N   0  0  0  0  0  0  0  0  0  0  0  0
  148.0939  135.4393  181.5534 C   0  0  0  0  0  0  0  0  0  0  0  0
  150.3176  134.4246  181.6965 C   0  0  0  0  0  0  0  0  0  0  0  0
  149.7902  133.3030  181.5096 O   0  0  0  0  0  0  0  0  0  0  0  0
  151.6442  134.4806  181.8561 N   0  0  0  0  0  0  0  0  0  0  0  0
  152.1956  135.6884  182.0554 C   0  0  0  0  0  0  0  0  0  0  0  0
  153.4346  135.8004  182.2116 O   0  0  0  0  0  0  0  0  0  0  0  0
  151.4318  136.8421  182.0964 C   0  0  0  0  0  0  0  0  0  0  0  0
  152.4475  133.3134  181.8180 C   0  0  0  0  0  0  0  0  0  0  0  0
  152.9609  133.0957  180.4708 C   0  0  0  0  0  0  0  0  0  0  0  0
  153.3641  132.9164  179.4127 N   0  0  0  0  0  0  0  0  0  0  0  0
  153.4420  138.6339  183.8967 C   0  0  0  0  0  0  0  0  0  0  0  0
  154.2725  139.4706  184.3226 O   0  0  0  0  0  0  0  0  0  0  0  0
  152.9418  137.6539  184.7914 N   0  0  0  0  0  0  0  0  0  0  0  0
  152.2605  136.9686  184.4396 H   0  0  0  0  0  0  0  0  0  0  0  0
  153.3696  137.6016  186.1803 C   0  0  0  0  0  0  0  0  0  0  0  0
  152.7921  138.4131  187.1296 C   0  0  0  0  0  0  0  0  0  0  0  0
  153.6440  137.9531  188.5385 S   0  0  0  0  0  0  0  0  0  0  0  0
  154.6645  136.7781  187.8472 C   0  0  0  0  0  0  0  0  0  0  0  0
  154.3044  136.7957  186.5778 N   0  0  0  0  0  0  0  0  0  0  0  0
  155.7020  135.9276  188.4571 C   0  0  0  0  0  0  0  0  0  0  0  0
  155.4481  135.2687  189.6352 C   0  0  0  0  0  0  0  0  0  0  0  0
  156.4189  134.4576  190.2293 C   0  0  0  0  0  0  0  0  0  0  0  0
  157.6515  134.3100  189.6330 C   0  0  0  0  0  0  0  0  0  0  0  0
  158.8827  133.2890  190.3746 Cl  0  0  0  0  0  0  0  0  0  0  0  0
  157.8874  134.9765  188.4552 C   0  0  0  0  0  0  0  0  0  0  0  0
  159.4480  134.7887  187.7019 Cl  0  0  0  0  0  0  0  0  0  0  0  0
  156.9177  135.7863  187.8626 C   0  0  0  0  0  0  0  0  0  0  0  0
  1  2  1  0  0  0
  2 18  1  0  0  0
 18 19  2  0  0  0
 18 20  1  0  0  0
 20 22  1  0  0  0
 22 23  2  0  0  0
 23 24  1  0  0  0
 24 25  1  0  0  0
 25 26  2  0  0  0
 25 27  1  0  0  0
 27 28  2  0  0  0
 28 29  1  0  0  0
 29 30  2  0  0  0
 30 31  1  0  0  0
 30 32  1  0  0  0
 32 33  1  0  0  0
 32 34  2  0  0  0
  2  3  1  0  0  0
  3  4  1  0  0  0
  4  5  2  0  0  0
  5  6  1  0  0  0
  6  7  1  0  0  0
  7  8  1  0  0  0
  7  9  1  0  0  0
  9 10  2  0  0  0
  9 11  1  0  0  0
 11 15  1  0  0  0
 15 16  1  0  0  0
 16 17  3  0  0  0
 11 12  1  0  0  0
 12 13  2  0  0  0
 12 14  1  0  0  0
 26 22  1  0  0  0
 34 27  1  0  0  0
 14  3  1  0  0  0
 14  6  2  0  0  0
 20 21  1  0  0  0
M  END
> <minimizedAffinity>
-5.13631

> <CNNscore>
0.3528817594

> <CNNaffinity>
5.7574319839

> <CNN_VS>
2.0316927433

> <CNNaffinity_variance>
0.1330666244

$$$$
[H]c1sc(-c2c([H])c([H])c(Cl)c(Cl)c2[H])nc1N([H])C(=O)[C@@]([H])(n1c([H])nc2c1c(=O)n(C([H])([H])C#N)c(=O)n2C([H])([H])[H])C([H])([H])[H]


 34 37  0  0  0  0  0  0  0  0999 V2000
  155.4631  139.0481  184.1188 C   0  0  0  0  0  0  0  0  0  0  0  0
  154.6908  137.8119  184.5913 C   0  0  0  0  0  0  0  0  0  0  0  0
  153.4691  137.6137  183.8513 N   0  0  0  0  0  0  0  0  0  0  0  0
  152.6278  138.5610  183.3937 C   0  0  0  0  0  0  0  0  0  0  0  0
  151.6283  137.9339  182.7658 N   0  0  0  0  0  0  0  0  0  0  0  0
  151.8228  136.6147  182.8189 C   0  0  0  0  0  0  0  0  0  0  0  0
  151.1506  135.5349  182.3661 N   0  0  0  0  0  0  0  0  0  0  0  0
  149.9152  135.7948  181.6393 C   0  0  0  0  0  0  0  0  0  0  0  0
  151.5999  134.2852  182.5762 C   0  0  0  0  0  0  0  0  0  0  0  0
  150.9394  133.3153  182.1355 O   0  0  0  0  0  0  0  0  0  0  0  0
  152.7316  134.0293  183.2412 N   0  0  0  0  0  0  0  0  0  0  0  0
  153.4289  135.0776  183.7075 C   0  0  0  0  0  0  0  0  0  0  0  0
  154.4972  134.8969  184.3385 O   0  0  0  0  0  0  0  0  0  0  0  0
  153.0045  136.3810  183.5145 C   0  0  0  0  0  0  0  0  0  0  0  0
  153.1869  132.7035  183.4513 C   0  0  0  0  0  0  0  0  0  0  0  0
  154.0899  132.3023  182.3792 C   0  0  0  0  0  0  0  0  0  0  0  0
  154.7939  131.9824  181.5328 N   0  0  0  0  0  0  0  0  0  0  0  0
  154.4790  137.9509  186.0452 C   0  0  0  0  0  0  0  0  0  0  0  0
  153.4563  138.5390  186.4688 O   0  0  0  0  0  0  0  0  0  0  0  0
  155.4068  137.4344  186.9853 N   0  0  0  0  0  0  0  0  0  0  0  0
  156.2450  136.9523  186.6353 H   0  0  0  0  0  0  0  0  0  0  0  0
  155.1964  137.5725  188.4176 C   0  0  0  0  0  0  0  0  0  0  0  0
  156.1159  138.2222  189.2084 C   0  0  0  0  0  0  0  0  0  0  0  0
  155.3917  138.0956  190.7517 S   0  0  0  0  0  0  0  0  0  0  0  0
  153.9889  137.2394  190.3056 C   0  0  0  0  0  0  0  0  0  0  0  0
  154.1433  137.0934  189.0032 N   0  0  0  0  0  0  0  0  0  0  0  0
  152.8579  136.7576  191.1183 C   0  0  0  0  0  0  0  0  0  0  0  0
  152.8197  137.0146  192.4670 C   0  0  0  0  0  0  0  0  0  0  0  0
  151.7559  136.5664  193.2547 C   0  0  0  0  0  0  0  0  0  0  0  0
  150.7255  135.8557  192.6803 C   0  0  0  0  0  0  0  0  0  0  0  0
  149.3791  135.2860  193.6655 Cl  0  0  0  0  0  0  0  0  0  0  0  0
  150.7808  135.6082  191.3301 C   0  0  0  0  0  0  0  0  0  0  0  0
  149.4760  134.7085  190.6046 Cl  0  0  0  0  0  0  0  0  0  0  0  0
  151.8433  136.0560  190.5441 C   0  0  0  0  0  0  0  0  0  0  0  0
  1  2  1  0  0  0
  2 18  1  0  0  0
 18 19  2  0  0  0
 18 20  1  0  0  0
 20 22  1  0  0  0
 22 23  2  0  0  0
 23 24  1  0  0  0
 24 25  1  0  0  0
 25 26  2  0  0  0
 25 27  1  0  0  0
 27 28  2  0  0  0
 28 29  1  0  0  0
 29 30  2  0  0  0
 30 31  1  0  0  0
 30 32  1  0  0  0
 32 33  1  0  0  0
 32 34  2  0  0  0
  2  3  1  0  0  0
  3  4  1  0  0  0
  4  5  2  0  0  0
  5  6  1  0  0  0
  6  7  1  0  0  0
  7  8  1  0  0  0
  7  9  1  0  0  0
  9 10  2  0  0  0
  9 11  1  0  0  0
 11 15  1  0  0  0
 15 16  1  0  0  0
 16 17  3  0  0  0
 11 12  1  0  0  0
 12 13  2  0  0  0
 12 14  1  0  0  0
 26 22  1  0  0  0
 34 27  1  0  0  0
 14  3  1  0  0  0
 14  6  2  0  0  0
 20 21  1  0  0  0
M  END
> <minimizedAffinity>
-5.27926

> <CNNscore>
0.3411366343

> <CNNaffinity>
5.9845337868

> <CNN_VS>
2.0415437222

> <CNNaffinity_variance>
0.1721307933

$$$$
[H]C([H])([H])SC([H])([H])C([H])([H])C([H])([H])C([H])([H])C([H])([H])N=C=S


 10  9  0  0  0  0  0  0  0  0999 V2000
  155.2487  141.8444  182.2757 C   0  0  0  0  0  0  0  0  0  0  0  0
  155.5299  143.3152  182.4504 C   0  0  0  0  0  0  0  0  0  0  0  0
  156.9348  143.5574  181.9081 C   0  0  0  0  0  0  0  0  0  0  0  0
  158.0798  141.9177  179.7424 C   0  0  0  0  0  0  0  0  0  0  0  0
  157.7538  141.9997  181.5258 S   0  0  0  0  0  0  0  0  0  0  0  0
  154.3476  141.3007  183.3645 C   0  0  0  0  0  0  0  0  0  0  0  0
  153.5907  140.1269  182.7356 C   0  0  0  0  0  0  0  0  0  0  0  0
  153.4124  140.4460  181.3424 N   0  0  0  0  0  0  0  0  0  0  0  0
  152.2999  140.1565  180.8041 C   0  0  0  0  0  0  0  0  0  0  0  0
  151.1814  139.7628  179.7192 S   0  0  0  0  0  0  0  0  0  0  0  0
  4  5  1  0  0  0
  5  3  1  0  0  0
  3  2  1  0  0  0
  2  1  1  0  0  0
  1  6  1  0  0  0
  6  7  1  0  0  0
  7  8  1  0  0  0
  8  9  2  0  0  0
  9 10  2  0  0  0
M  END
> <minimizedAffinity>
-3.60638

> <CNNscore>
0.7414658666

> <CNNaffinity>
4.4656424522

> <CNN_VS>
3.3111214638

> <CNNaffinity_variance>
0.0601134188

$$$$
[H]C([H])([H])SC([H])([H])C([H])([H])C([H])([H])C([H])([H])C([H])([H])N=C=S


 10  9  0  0  0  0  0  0  0  0999 V2000
  159.6735  141.6011  184.7824 C   0  0  0  0  0  0  0  0  0  0  0  0
  159.1861  141.7391  186.2022 C   0  0  0  0  0  0  0  0  0  0  0  0
  160.1189  142.7319  186.8884 C   0  0  0  0  0  0  0  0  0  0  0  0
  163.0520  142.6606  187.1738 C   0  0  0  0  0  0  0  0  0  0  0  0
  161.6810  142.8643  186.0023 S   0  0  0  0  0  0  0  0  0  0  0  0
  158.5700  141.1744  183.8372 C   0  0  0  0  0  0  0  0  0  0  0  0
  158.8004  139.6842  183.5685 C   0  0  0  0  0  0  0  0  0  0  0  0
  158.6632  139.4921  182.1476 N   0  0  0  0  0  0  0  0  0  0  0  0
  158.5916  140.5246  181.4126 C   0  0  0  0  0  0  0  0  0  0  0  0
  158.2432  141.5160  180.1965 S   0  0  0  0  0  0  0  0  0  0  0  0
  4  5  1  0  0  0
  5  3  1  0  0  0
  3  2  1  0  0  0
  2  1  1  0  0  0
  1  6  1  0  0  0
  6  7  1  0  0  0
  7  8  1  0  0  0
  8  9  2  0  0  0
  9 10  2  0  0  0
M  END
> <minimizedAffinity>
-4.38256

> <CNNscore>
0.7393367290

> <CNNaffinity>
4.9340119362

> <CNN_VS>
3.6478962898

> <CNNaffinity_variance>
0.1534766257

$$$$
[H]C([H])([H])SC([H])([H])C([H])([H])C([H])([H])C([H])([H])C([H])([H])N=C=S


 10  9  0  0  0  0  0  0  0  0999 V2000
  160.0692  141.3796  184.3615 C   0  0  0  0  0  0  0  0  0  0  0  0
  159.1112  141.8659  185.4191 C   0  0  0  0  0  0  0  0  0  0  0  0
  159.9585  142.2708  186.6211 C   0  0  0  0  0  0  0  0  0  0  0  0
  162.8025  142.7647  187.2190 C   0  0  0  0  0  0  0  0  0  0  0  0
  161.4325  143.1630  186.0974 S   0  0  0  0  0  0  0  0  0  0  0  0
  159.6627  141.8253  182.9725 C   0  0  0  0  0  0  0  0  0  0  0  0
  159.0887  143.2360  183.1356 C   0  0  0  0  0  0  0  0  0  0  0  0
  158.2091  143.4586  182.0169 N   0  0  0  0  0  0  0  0  0  0  0  0
  158.2208  142.6093  181.0736 C   0  0  0  0  0  0  0  0  0  0  0  0
  158.0969  141.9353  179.6198 S   0  0  0  0  0  0  0  0  0  0  0  0
  4  5  1  0  0  0
  5  3  1  0  0  0
  3  2  1  0  0  0
  2  1  1  0  0  0
  1  6  1  0  0  0
  6  7  1  0  0  0
  7  8  1  0  0  0
  8  9  2  0  0  0
  9 10  2  0  0  0
M  END
> <minimizedAffinity>
-3.94287

> <CNNscore>
0.7108372450

> <CNNaffinity>
5.1335954666

> <CNN_VS>
3.6491508484

> <CNNaffinity_variance>
0.0955731869

$$$$
[H]C([H])([H])SC([H])([H])C([H])([H])C([H])([H])C([H])([H])C([H])([H])N=C=S


 10  9  0  0  0  0  0  0  0  0999 V2000
  157.4789  140.4685  183.6285 C   0  0  0  0  0  0  0  0  0  0  0  0
  156.5970  141.6891  183.5557 C   0  0  0  0  0  0  0  0  0  0  0  0
  156.5222  142.0851  182.0845 C   0  0  0  0  0  0  0  0  0  0  0  0
  158.6357  142.9083  180.2017 C   0  0  0  0  0  0  0  0  0  0  0  0
  157.9881  141.5345  181.1951 S   0  0  0  0  0  0  0  0  0  0  0  0
  158.3117  140.4387  184.8929 C   0  0  0  0  0  0  0  0  0  0  0  0
  159.3140  141.5896  184.7626 C   0  0  0  0  0  0  0  0  0  0  0  0
  159.6980  141.9597  186.1006 N   0  0  0  0  0  0  0  0  0  0  0  0
  160.8121  142.5474  186.2581 C   0  0  0  0  0  0  0  0  0  0  0  0
  162.1873  143.0726  186.9029 S   0  0  0  0  0  0  0  0  0  0  0  0
  4  5  1  0  0  0
  5  3  1  0  0  0
  3  2  1  0  0  0
  2  1  1  0  0  0
  1  6  1  0  0  0
  6  7  1  0  0  0
  7  8  1  0  0  0
  8  9  2  0  0  0
  9 10  2  0  0  0
M  END
> <minimizedAffinity>
-3.55076

> <CNNscore>
0.6680310965

> <CNNaffinity>
4.8094511032

> <CNN_VS>
3.2128629684

> <CNNaffinity_variance>
0.1153815016

$$$$
[H]C([H])([H])SC([H])([H])C([H])([H])C([H])([H])C([H])([H])C([H])([H])N=C=S


 10  9  0  0  0  0  0  0  0  0999 V2000
  158.4150  140.7116  184.8157 C   0  0  0  0  0  0  0  0  0  0  0  0
  159.2139  141.6986  185.6283 C   0  0  0  0  0  0  0  0  0  0  0  0
  160.0041  142.5430  184.6337 C   0  0  0  0  0  0  0  0  0  0  0  0
  161.8999  142.9489  186.8542 C   0  0  0  0  0  0  0  0  0  0  0  0
  161.7479  142.5983  185.0800 S   0  0  0  0  0  0  0  0  0  0  0  0
  159.2861  139.9095  183.8716 C   0  0  0  0  0  0  0  0  0  0  0  0
  158.3895  139.5383  182.6865 C   0  0  0  0  0  0  0  0  0  0  0  0
  157.7865  140.7613  182.2226 N   0  0  0  0  0  0  0  0  0  0  0  0
  158.0894  141.1693  181.0594 C   0  0  0  0  0  0  0  0  0  0  0  0
  158.3686  142.1244  179.7973 S   0  0  0  0  0  0  0  0  0  0  0  0
  4  5  1  0  0  0
  5  3  1  0  0  0
  3  2  1  0  0  0
  2  1  1  0  0  0
  1  6  1  0  0  0
  6  7  1  0  0  0
  7  8  1  0  0  0
  8  9  2  0  0  0
  9 10  2  0  0  0
M  END
> <minimizedAffinity>
-4.18670

> <CNNscore>
0.6510096788

> <CNNaffinity>
4.7595744133

> <CNN_VS>
3.0985291004

> <CNNaffinity_variance>
0.1574753076

$$$$
[H]C([H])([H])SC([H])([H])C([H])([H])C([H])([H])C([H])([H])C([H])([H])N=C=S


 10  9  0  0  0  0  0  0  0  0999 V2000
  156.2223  137.7726  191.1344 C   0  0  0  0  0  0  0  0  0  0  0  0
  156.6188  137.1894  189.8019 C   0  0  0  0  0  0  0  0  0  0  0  0
  156.0399  138.1113  188.7334 C   0  0  0  0  0  0  0  0  0  0  0  0
  155.1052  138.2395  185.9406 C   0  0  0  0  0  0  0  0  0  0  0  0
  155.3235  137.1596  187.3828 S   0  0  0  0  0  0  0  0  0  0  0  0
  154.7711  138.2044  191.1611 C   0  0  0  0  0  0  0  0  0  0  0  0
  153.9673  136.9522  191.5244 C   0  0  0  0  0  0  0  0  0  0  0  0
  152.9281  137.3733  192.4286 N   0  0  0  0  0  0  0  0  0  0  0  0
  151.9622  136.5764  192.6363 C   0  0  0  0  0  0  0  0  0  0  0  0
  150.5034  135.9976  192.9826 S   0  0  0  0  0  0  0  0  0  0  0  0
  4  5  1  0  0  0
  5  3  1  0  0  0
  3  2  1  0  0  0
  2  1  1  0  0  0
  1  6  1  0  0  0
  6  7  1  0  0  0
  7  8  1  0  0  0
  8  9  2  0  0  0
  9 10  2  0  0  0
M  END
> <minimizedAffinity>
-2.92196

> <CNNscore>
0.6467326880

> <CNNaffinity>
3.9022262096

> <CNN_VS>
2.5236971378

> <CNNaffinity_variance>
0.0229159724

$$$$
[H]C([H])([H])SC([H])([H])C([H])([H])C([H])([H])C([H])([H])C([H])([H])N=C=S


 10  9  0  0  0  0  0  0  0  0999 V2000
  158.9678  142.9234  181.3040 C   0  0  0  0  0  0  0  0  0  0  0  0
  158.3609  141.5780  181.6111 C   0  0  0  0  0  0  0  0  0  0  0  0
  156.8479  141.7716  181.6066 C   0  0  0  0  0  0  0  0  0  0  0  0
  154.5747  141.7433  183.4833 C   0  0  0  0  0  0  0  0  0  0  0  0
  156.0809  140.8730  182.9659 S   0  0  0  0  0  0  0  0  0  0  0  0
  159.0465  143.8091  182.5298 C   0  0  0  0  0  0  0  0  0  0  0  0
  159.6027  142.9257  183.6508 C   0  0  0  0  0  0  0  0  0  0  0  0
  160.4902  143.7513  184.4288 N   0  0  0  0  0  0  0  0  0  0  0  0
  161.2133  143.1850  185.3050 C   0  0  0  0  0  0  0  0  0  0  0  0
  162.0918  142.9178  186.6241 S   0  0  0  0  0  0  0  0  0  0  0  0
  4  5  1  0  0  0
  5  3  1  0  0  0
  3  2  1  0  0  0
  2  1  1  0  0  0
  1  6  1  0  0  0
  6  7  1  0  0  0
  7  8  1  0  0  0
  8  9  2  0  0  0
  9 10  2  0  0  0
M  END
> <minimizedAffinity>
-3.59308

> <CNNscore>
0.6293928027

> <CNNaffinity>
4.8806676865

> <CNN_VS>
3.0718572140

> <CNNaffinity_variance>
0.1258360445

$$$$
[H]C([H])([H])SC([H])([H])C([H])([H])C([H])([H])C([H])([H])C([H])([H])N=C=S


 10  9  0  0  0  0  0  0  0  0999 V2000
  154.5986  135.9843  191.6226 C   0  0  0  0  0  0  0  0  0  0  0  0
  153.5860  137.0990  191.6920 C   0  0  0  0  0  0  0  0  0  0  0  0
  152.6387  136.7561  192.8372 C   0  0  0  0  0  0  0  0  0  0  0  0
  149.9951  135.5201  193.2542 C   0  0  0  0  0  0  0  0  0  0  0  0
  150.9296  136.7253  192.2704 S   0  0  0  0  0  0  0  0  0  0  0  0
  156.0213  136.4980  191.6963 C   0  0  0  0  0  0  0  0  0  0  0  0
  155.9802  137.9278  191.1484 C   0  0  0  0  0  0  0  0  0  0  0  0
  156.7207  137.9208  189.9130 N   0  0  0  0  0  0  0  0  0  0  0  0
  156.0644  137.9374  188.8266 C   0  0  0  0  0  0  0  0  0  0  0  0
  155.6413  137.7227  187.2910 S   0  0  0  0  0  0  0  0  0  0  0  0
  4  5  1  0  0  0
  5  3  1  0  0  0
  3  2  1  0  0  0
  2  1  1  0  0  0
  1  6  1  0  0  0
  6  7  1  0  0  0
  7  8  1  0  0  0
  8  9  2  0  0  0
  9 10  2  0  0  0
M  END
> <minimizedAffinity>
-3.02497

> <CNNscore>
0.6050438285

> <CNNaffinity>
3.8730888367

> <CNN_VS>
2.3433885574

> <CNNaffinity_variance>
0.0173769966

$$$$
[H]C([H])([H])SC([H])([H])C([H])([H])C([H])([H])C([H])([H])C([H])([H])N=C=S


 10  9  0  0  0  0  0  0  0  0999 V2000
  159.2703  139.9600  183.8331 C   0  0  0  0  0  0  0  0  0  0  0  0
  160.0596  141.1992  183.4956 C   0  0  0  0  0  0  0  0  0  0  0  0
  160.1334  142.0298  184.7728 C   0  0  0  0  0  0  0  0  0  0  0  0
  161.9945  142.9536  186.8640 C   0  0  0  0  0  0  0  0  0  0  0  0
  161.8246  142.5542  185.1018 S   0  0  0  0  0  0  0  0  0  0  0  0
  158.4017  139.5028  182.6799 C   0  0  0  0  0  0  0  0  0  0  0  0
  158.5636  140.5632  181.5865 C   0  0  0  0  0  0  0  0  0  0  0  0
  157.2392  141.0185  181.2498 N   0  0  0  0  0  0  0  0  0  0  0  0
  156.7747  142.0156  181.8833 C   0  0  0  0  0  0  0  0  0  0  0  0
  155.7581  143.0509  182.5743 S   0  0  0  0  0  0  0  0  0  0  0  0
  4  5  1  0  0  0
  5  3  1  0  0  0
  3  2  1  0  0  0
  2  1  1  0  0  0
  1  6  1  0  0  0
  6  7  1  0  0  0
  7  8  1  0  0  0
  8  9  2  0  0  0
  9 10  2  0  0  0
M  END
> <minimizedAffinity>
-4.13259

> <CNNscore>
0.5991418958

> <CNNaffinity>
4.8165879250

> <CNN_VS>
2.8858196735

> <CNNaffinity_variance>
0.1097739711

$$$$
[H]c1nc(N([H])C(=O)C([H])([H])n2c([H])nc3c2c(=O)n(C([H])([H])c2noc(C([H])([H])[H])c2[H])c(=O)n3C([H])([H])[H])c([H])c([H])c1N1C([H])([H])C([H])([H])C([H])(C(F)(C([H])([H])[H])C([H])([H])[H])C([H])([H])C1([H])[H]


 40 44  0  0  0  0  0  0  0  0999 V2000
  155.5463  139.1890  184.6546 C   0  0  0  0  0  0  0  0  0  0  0  0
  158.7933  141.6992  182.8113 N   0  0  0  0  0  0  0  0  0  0  0  0
  158.3771  142.9199  182.4317 C   0  0  0  0  0  0  0  0  0  0  0  0
  159.2083  143.6918  181.9146 O   0  0  0  0  0  0  0  0  0  0  0  0
  157.0968  143.3042  182.6031 N   0  0  0  0  0  0  0  0  0  0  0  0
  156.6924  144.6226  182.1813 C   0  0  0  0  0  0  0  0  0  0  0  0
  156.2656  142.4152  183.1668 C   0  0  0  0  0  0  0  0  0  0  0  0
  154.9598  142.5271  183.4467 N   0  0  0  0  0  0  0  0  0  0  0  0
  154.5448  141.3839  184.0033 C   0  0  0  0  0  0  0  0  0  0  0  0
  155.5746  140.5062  184.0961 N   0  0  0  0  0  0  0  0  0  0  0  0
  156.6359  141.1407  183.5797 C   0  0  0  0  0  0  0  0  0  0  0  0
  157.9566  140.7979  183.3807 C   0  0  0  0  0  0  0  0  0  0  0  0
  158.3816  139.6552  183.7244 O   0  0  0  0  0  0  0  0  0  0  0  0
  160.1668  141.2809  182.6393 C   0  0  0  0  0  0  0  0  0  0  0  0
  161.6691  143.5506  186.9361 C   0  0  0  0  0  0  0  0  0  0  0  0
  161.6162  142.7503  185.6776 C   0  0  0  0  0  0  0  0  0  0  0  0
  160.5499  142.5708  184.8261 C   0  0  0  0  0  0  0  0  0  0  0  0
  160.9751  141.7460  183.7887 C   0  0  0  0  0  0  0  0  0  0  0  0
  162.2676  141.4740  184.0688 N   0  0  0  0  0  0  0  0  0  0  0  0
  162.6052  142.0716  185.1687 O   0  0  0  0  0  0  0  0  0  0  0  0
  154.3422  138.3995  184.3151 C   0  0  0  0  0  0  0  0  0  0  0  0
  153.7054  137.7647  185.2205 O   0  0  0  0  0  0  0  0  0  0  0  0
  153.8349  138.3003  183.0201 N   0  0  0  0  0  0  0  0  0  0  0  0
  154.3271  138.8117  182.2288 H   0  0  0  0  0  0  0  0  0  0  0  0
  152.6731  137.5329  182.6797 C   0  0  0  0  0  0  0  0  0  0  0  0
  152.7620  136.2829  182.1170 C   0  0  0  0  0  0  0  0  0  0  0  0
  151.6652  135.5208  181.7868 C   0  0  0  0  0  0  0  0  0  0  0  0
  150.3730  136.0138  182.0228 C   0  0  0  0  0  0  0  0  0  0  0  0
  150.3176  137.2678  182.5863 C   0  0  0  0  0  0  0  0  0  0  0  0
  151.4330  137.9939  182.9003 N   0  0  0  0  0  0  0  0  0  0  0  0
  149.2300  135.2487  181.6790 N   0  0  0  0  0  0  0  0  0  0  0  0
  149.1803  134.6001  180.3919 C   0  0  0  0  0  0  0  0  0  0  0  0
  149.0941  133.0891  180.6652 C   0  0  0  0  0  0  0  0  0  0  0  0
  147.8558  132.8071  181.4913 C   0  0  0  0  0  0  0  0  0  0  0  0
  147.8647  133.5785  182.7826 C   0  0  0  0  0  0  0  0  0  0  0  0
  148.0894  135.0599  182.5483 C   0  0  0  0  0  0  0  0  0  0  0  0
  147.6097  131.3547  181.7045 C   0  0  0  0  0  0  0  0  0  0  0  0
  146.6327  130.7820  180.6852 C   0  0  0  0  0  0  0  0  0  0  0  0
  147.1074  131.0508  183.0802 C   0  0  0  0  0  0  0  0  0  0  0  0
  148.8067  130.6490  181.5270 F   0  0  0  0  0  0  0  0  0  0  0  0
 15 16  1  0  0  0
 16 17  2  0  0  0
 17 18  1  0  0  0
 18 14  1  0  0  0
 14  2  1  0  0  0
  2  3  1  0  0  0
  3  4  2  0  0  0
  3  5  1  0  0  0
  5  6  1  0  0  0
  5  7  1  0  0  0
  7  8  1  0  0  0
  8  9  2  0  0  0
  9 10  1  0  0  0
 10  1  1  0  0  0
  1 21  1  0  0  0
 21 22  2  0  0  0
 21 23  1  0  0  0
 23 25  1  0  0  0
 25 26  2  0  0  0
 26 27  1  0  0  0
 27 28  2  0  0  0
 28 29  1  0  0  0
 29 30  2  0  0  0
 28 31  1  0  0  0
 31 32  1  0  0  0
 32 33  1  0  0  0
 33 34  1  0  0  0
 34 35  1  0  0  0
 35 36  1  0  0  0
 34 37  1  0  0  0
 37 38  1  0  0  0
 37 39  1  0  0  0
 37 40  1  0  0  0
 10 11  1  0  0  0
 11 12  1  0  0  0
 12 13  2  0  0  0
 18 19  2  0  0  0
 19 20  1  0  0  0
 20 16  1  0  0  0
 12  2  1  0  0  0
 11  7  2  0  0  0
 30 25  1  0  0  0
 36 31  1  0  0  0
 23 24  1  0  0  0
M  END
> <minimizedAffinity>
-7.04786

> <CNNscore>
0.3499238789

> <CNNaffinity>
6.8029251099

> <CNN_VS>
2.3805060387

> <CNNaffinity_variance>
0.2199794352

$$$$
[H]c1nc(N([H])C(=O)C([H])([H])n2c([H])nc3c2c(=O)n(C([H])([H])c2noc(C([H])([H])[H])c2[H])c(=O)n3C([H])([H])[H])c([H])c([H])c1N1C([H])([H])C([H])([H])C([H])(C(F)(C([H])([H])[H])C([H])([H])[H])C([H])([H])C1([H])[H]


 40 44  0  0  0  0  0  0  0  0999 V2000
  154.7147  139.0422  183.3000 C   0  0  0  0  0  0  0  0  0  0  0  0
  158.3535  141.6682  182.9762 N   0  0  0  0  0  0  0  0  0  0  0  0
  158.0701  142.9377  182.6366 C   0  0  0  0  0  0  0  0  0  0  0  0
  159.0148  143.7438  182.5277 O   0  0  0  0  0  0  0  0  0  0  0  0
  156.8006  143.3340  182.4186 N   0  0  0  0  0  0  0  0  0  0  0  0
  156.5409  144.7053  182.0558 C   0  0  0  0  0  0  0  0  0  0  0  0
  155.8420  142.4060  182.5562 C   0  0  0  0  0  0  0  0  0  0  0  0
  154.5163  142.5194  182.3966 N   0  0  0  0  0  0  0  0  0  0  0  0
  153.9560  141.3283  182.6343 C   0  0  0  0  0  0  0  0  0  0  0  0
  154.9085  140.4170  182.9536 N   0  0  0  0  0  0  0  0  0  0  0  0
  156.0718  141.0802  182.9048 C   0  0  0  0  0  0  0  0  0  0  0  0
  157.3880  140.7275  183.1158 C   0  0  0  0  0  0  0  0  0  0  0  0
  157.6906  139.5394  183.4345 O   0  0  0  0  0  0  0  0  0  0  0  0
  159.7115  141.2357  183.2204 C   0  0  0  0  0  0  0  0  0  0  0  0
  162.4801  143.0847  187.0658 C   0  0  0  0  0  0  0  0  0  0  0  0
  161.3808  142.5186  186.2302 C   0  0  0  0  0  0  0  0  0  0  0  0
  161.4056  142.2003  184.8914 C   0  0  0  0  0  0  0  0  0  0  0  0
  160.1496  141.7045  184.5543 C   0  0  0  0  0  0  0  0  0  0  0  0
  159.4388  141.7502  185.7013 N   0  0  0  0  0  0  0  0  0  0  0  0
  160.1826  142.2264  186.6505 O   0  0  0  0  0  0  0  0  0  0  0  0
  154.5208  138.7904  184.7448 C   0  0  0  0  0  0  0  0  0  0  0  0
  153.7591  139.5432  185.4386 O   0  0  0  0  0  0  0  0  0  0  0  0
  155.1381  137.7421  185.4262 N   0  0  0  0  0  0  0  0  0  0  0  0
  155.7814  137.0841  184.8941 H   0  0  0  0  0  0  0  0  0  0  0  0
  154.9621  137.4935  186.8269 C   0  0  0  0  0  0  0  0  0  0  0  0
  155.8202  138.0000  187.7724 C   0  0  0  0  0  0  0  0  0  0  0  0
  155.6722  137.7843  189.1232 C   0  0  0  0  0  0  0  0  0  0  0  0
  154.6007  137.0117  189.5958 C   0  0  0  0  0  0  0  0  0  0  0  0
  153.7599  136.5186  188.6246 C   0  0  0  0  0  0  0  0  0  0  0  0
  153.9418  136.7563  187.2903 N   0  0  0  0  0  0  0  0  0  0  0  0
  154.4374  136.7683  190.9829 N   0  0  0  0  0  0  0  0  0  0  0  0
  153.6921  137.7124  191.7785 C   0  0  0  0  0  0  0  0  0  0  0  0
  152.4783  136.9520  192.3389 C   0  0  0  0  0  0  0  0  0  0  0  0
  152.9686  135.7783  193.1619 C   0  0  0  0  0  0  0  0  0  0  0  0
  153.8400  134.8591  192.3504 C   0  0  0  0  0  0  0  0  0  0  0  0
  154.9678  135.6118  191.6710 C   0  0  0  0  0  0  0  0  0  0  0  0
  151.8726  135.0484  193.8559 C   0  0  0  0  0  0  0  0  0  0  0  0
  150.5435  135.7880  193.7665 C   0  0  0  0  0  0  0  0  0  0  0  0
  152.1804  134.7781  195.2945 C   0  0  0  0  0  0  0  0  0  0  0  0
  151.6669  133.8127  193.2291 F   0  0  0  0  0  0  0  0  0  0  0  0
 15 16  1  0  0  0
 16 17  2  0  0  0
 17 18  1  0  0  0
 18 14  1  0  0  0
 14  2  1  0  0  0
  2  3  1  0  0  0
  3  4  2  0  0  0
  3  5  1  0  0  0
  5  6  1  0  0  0
  5  7  1  0  0  0
  7  8  1  0  0  0
  8  9  2  0  0  0
  9 10  1  0  0  0
 10  1  1  0  0  0
  1 21  1  0  0  0
 21 22  2  0  0  0
 21 23  1  0  0  0
 23 25  1  0  0  0
 25 26  2  0  0  0
 26 27  1  0  0  0
 27 28  2  0  0  0
 28 29  1  0  0  0
 29 30  2  0  0  0
 28 31  1  0  0  0
 31 32  1  0  0  0
 32 33  1  0  0  0
 33 34  1  0  0  0
 34 35  1  0  0  0
 35 36  1  0  0  0
 34 37  1  0  0  0
 37 38  1  0  0  0
 37 39  1  0  0  0
 37 40  1  0  0  0
 10 11  1  0  0  0
 11 12  1  0  0  0
 12 13  2  0  0  0
 18 19  2  0  0  0
 19 20  1  0  0  0
 20 16  1  0  0  0
 12  2  1  0  0  0
 11  7  2  0  0  0
 30 25  1  0  0  0
 36 31  1  0  0  0
 23 24  1  0  0  0
M  END
> <minimizedAffinity>
-9.34357

> <CNNscore>
0.3400108218

> <CNNaffinity>
6.6538801193

> <CNN_VS>
2.2623913288

> <CNNaffinity_variance>
0.3188943863

$$$$
[H]c1nc(N([H])C(=O)C([H])([H])n2c([H])nc3c2c(=O)n(C([H])([H])c2noc(C([H])([H])[H])c2[H])c(=O)n3C([H])([H])[H])c([H])c([H])c1N1C([H])([H])C([H])([H])C([H])(C(F)(C([H])([H])[H])C([H])([H])[H])C([H])([H])C1([H])[H]


 40 44  0  0  0  0  0  0  0  0999 V2000
  155.3185  139.2660  184.4007 C   0  0  0  0  0  0  0  0  0  0  0  0
  158.7426  141.9316  183.2125 N   0  0  0  0  0  0  0  0  0  0  0  0
  158.3511  143.1157  182.7103 C   0  0  0  0  0  0  0  0  0  0  0  0
  159.2302  143.9261  182.3575 O   0  0  0  0  0  0  0  0  0  0  0  0
  157.0447  143.4237  182.5891 N   0  0  0  0  0  0  0  0  0  0  0  0
  156.6684  144.7050  182.0449 C   0  0  0  0  0  0  0  0  0  0  0  0
  156.1620  142.4974  182.9915 C   0  0  0  0  0  0  0  0  0  0  0  0
  154.8224  142.5344  182.9801 N   0  0  0  0  0  0  0  0  0  0  0  0
  154.3610  141.3800  183.4737 C   0  0  0  0  0  0  0  0  0  0  0  0
  155.3936  140.5700  183.8161 N   0  0  0  0  0  0  0  0  0  0  0  0
  156.5045  141.2575  183.5182 C   0  0  0  0  0  0  0  0  0  0  0  0
  157.8539  140.9929  183.6196 C   0  0  0  0  0  0  0  0  0  0  0  0
  158.2574  139.8864  184.0860 O   0  0  0  0  0  0  0  0  0  0  0  0
  160.1418  141.5955  183.3542 C   0  0  0  0  0  0  0  0  0  0  0  0
  163.0916  142.9464  187.2714 C   0  0  0  0  0  0  0  0  0  0  0  0
  161.9297  142.5992  186.4018 C   0  0  0  0  0  0  0  0  0  0  0  0
  161.9375  142.2345  185.0747 C   0  0  0  0  0  0  0  0  0  0  0  0
  160.6182  142.0076  184.6936 C   0  0  0  0  0  0  0  0  0  0  0  0
  159.8898  142.2463  185.8051 N   0  0  0  0  0  0  0  0  0  0  0  0
  160.6811  142.5862  186.7743 O   0  0  0  0  0  0  0  0  0  0  0  0
  154.1917  138.4370  183.9194 C   0  0  0  0  0  0  0  0  0  0  0  0
  154.1904  137.1741  184.1021 O   0  0  0  0  0  0  0  0  0  0  0  0
  153.0856  138.9648  183.2543 N   0  0  0  0  0  0  0  0  0  0  0  0
  153.0363  140.0119  183.0782 H   0  0  0  0  0  0  0  0  0  0  0  0
  151.9921  138.1695  182.7783 C   0  0  0  0  0  0  0  0  0  0  0  0
  151.5605  138.2258  181.4755 C   0  0  0  0  0  0  0  0  0  0  0  0
  150.5193  137.4695  180.9888 C   0  0  0  0  0  0  0  0  0  0  0  0
  149.8398  136.5839  181.8388 C   0  0  0  0  0  0  0  0  0  0  0  0
  150.2952  136.5511  183.1367 C   0  0  0  0  0  0  0  0  0  0  0  0
  151.3350  137.3199  183.5816 N   0  0  0  0  0  0  0  0  0  0  0  0
  148.7569  135.8045  181.3594 N   0  0  0  0  0  0  0  0  0  0  0  0
  147.7867  136.4138  180.4835 C   0  0  0  0  0  0  0  0  0  0  0  0
  147.8559  135.6479  179.1516 C   0  0  0  0  0  0  0  0  0  0  0  0
  147.5511  134.1860  179.4070 C   0  0  0  0  0  0  0  0  0  0  0  0
  148.5006  133.5898  180.4099 C   0  0  0  0  0  0  0  0  0  0  0  0
  148.5557  134.4095  181.6847 C   0  0  0  0  0  0  0  0  0  0  0  0
  147.4672  133.3767  178.1606 C   0  0  0  0  0  0  0  0  0  0  0  0
  148.8176  132.7946  177.7618 C   0  0  0  0  0  0  0  0  0  0  0  0
  146.9139  134.1509  177.0066 C   0  0  0  0  0  0  0  0  0  0  0  0
  146.6242  132.2786  178.3747 F   0  0  0  0  0  0  0  0  0  0  0  0
 15 16  1  0  0  0
 16 17  2  0  0  0
 17 18  1  0  0  0
 18 14  1  0  0  0
 14  2  1  0  0  0
  2  3  1  0  0  0
  3  4  2  0  0  0
  3  5  1  0  0  0
  5  6  1  0  0  0
  5  7  1  0  0  0
  7  8  1  0  0  0
  8  9  2  0  0  0
  9 10  1  0  0  0
 10  1  1  0  0  0
  1 21  1  0  0  0
 21 22  2  0  0  0
 21 23  1  0  0  0
 23 25  1  0  0  0
 25 26  2  0  0  0
 26 27  1  0  0  0
 27 28  2  0  0  0
 28 29  1  0  0  0
 29 30  2  0  0  0
 28 31  1  0  0  0
 31 32  1  0  0  0
 32 33  1  0  0  0
 33 34  1  0  0  0
 34 35  1  0  0  0
 35 36  1  0  0  0
 34 37  1  0  0  0
 37 38  1  0  0  0
 37 39  1  0  0  0
 37 40  1  0  0  0
 10 11  1  0  0  0
 11 12  1  0  0  0
 12 13  2  0  0  0
 18 19  2  0  0  0
 19 20  1  0  0  0
 20 16  1  0  0  0
 12  2  1  0  0  0
 11  7  2  0  0  0
 30 25  1  0  0  0
 36 31  1  0  0  0
 23 24  1  0  0  0
M  END
> <minimizedAffinity>
-7.99256

> <CNNscore>
0.2795249522

> <CNNaffinity>
6.4735298157

> <CNN_VS>
1.8095130920

> <CNNaffinity_variance>
0.1213130951

$$$$
[H]c1nc(N([H])C(=O)C([H])([H])n2c([H])nc3c2c(=O)n(C([H])([H])c2noc(C([H])([H])[H])c2[H])c(=O)n3C([H])([H])[H])c([H])c([H])c1N1C([H])([H])C([H])([H])C([H])(C(F)(C([H])([H])[H])C([H])([H])[H])C([H])([H])C1([H])[H]


 40 44  0  0  0  0  0  0  0  0999 V2000
  156.3955  138.1535  186.0826 C   0  0  0  0  0  0  0  0  0  0  0  0
  157.8294  141.1162  183.0153 N   0  0  0  0  0  0  0  0  0  0  0  0
  156.8376  141.8294  182.4541 C   0  0  0  0  0  0  0  0  0  0  0  0
  157.1375  142.6815  181.5949 O   0  0  0  0  0  0  0  0  0  0  0  0
  155.5519  141.6329  182.8069 N   0  0  0  0  0  0  0  0  0  0  0  0
  154.5189  142.4196  182.1797 C   0  0  0  0  0  0  0  0  0  0  0  0
  155.3134  140.6977  183.7384 C   0  0  0  0  0  0  0  0  0  0  0  0
  154.1482  140.2966  184.2651 N   0  0  0  0  0  0  0  0  0  0  0  0
  154.3951  139.3328  185.1590 C   0  0  0  0  0  0  0  0  0  0  0  0
  155.7275  139.0892  185.2305 N   0  0  0  0  0  0  0  0  0  0  0  0
  156.2945  139.9295  184.3542 C   0  0  0  0  0  0  0  0  0  0  0  0
  157.5926  140.1701  183.9564 C   0  0  0  0  0  0  0  0  0  0  0  0
  158.5508  139.5145  184.4628 O   0  0  0  0  0  0  0  0  0  0  0  0
  159.2126  141.3258  182.6494 C   0  0  0  0  0  0  0  0  0  0  0  0
  161.9368  143.1878  186.5201 C   0  0  0  0  0  0  0  0  0  0  0  0
  161.0525  143.0390  185.3273 C   0  0  0  0  0  0  0  0  0  0  0  0
  160.6840  141.8824  184.6787 C   0  0  0  0  0  0  0  0  0  0  0  0
  159.8505  142.2402  183.6230 C   0  0  0  0  0  0  0  0  0  0  0  0
  159.7617  143.5857  183.6913 N   0  0  0  0  0  0  0  0  0  0  0  0
  160.4695  144.0143  184.6894 O   0  0  0  0  0  0  0  0  0  0  0  0
  155.5240  137.4946  187.0800 C   0  0  0  0  0  0  0  0  0  0  0  0
  155.3096  136.2379  187.0255 O   0  0  0  0  0  0  0  0  0  0  0  0
  154.8975  138.1823  188.1186 N   0  0  0  0  0  0  0  0  0  0  0  0
  155.0447  139.2310  188.2104 H   0  0  0  0  0  0  0  0  0  0  0  0
  154.0462  137.5544  189.0860 C   0  0  0  0  0  0  0  0  0  0  0  0
  154.4426  137.3508  190.3854 C   0  0  0  0  0  0  0  0  0  0  0  0
  153.6449  136.7581  191.3369 C   0  0  0  0  0  0  0  0  0  0  0  0
  152.3535  136.3266  190.9983 C   0  0  0  0  0  0  0  0  0  0  0  0
  151.9866  136.5443  189.6902 C   0  0  0  0  0  0  0  0  0  0  0  0
  152.8100  137.1378  188.7739 N   0  0  0  0  0  0  0  0  0  0  0  0
  151.5205  135.7033  191.9614 N   0  0  0  0  0  0  0  0  0  0  0  0
  150.4040  134.9073  191.5143 C   0  0  0  0  0  0  0  0  0  0  0  0
  150.6590  133.4749  192.0127 C   0  0  0  0  0  0  0  0  0  0  0  0
  150.7755  133.4917  193.5232 C   0  0  0  0  0  0  0  0  0  0  0  0
  151.8706  134.4146  193.9834 C   0  0  0  0  0  0  0  0  0  0  0  0
  151.7192  135.8024  193.3907 C   0  0  0  0  0  0  0  0  0  0  0  0
  150.8968  132.1329  194.1184 C   0  0  0  0  0  0  0  0  0  0  0  0
  150.1234  132.0070  195.4251 C   0  0  0  0  0  0  0  0  0  0  0  0
  152.3182  131.7326  194.3568 C   0  0  0  0  0  0  0  0  0  0  0  0
  150.3339  131.1914  193.2473 F   0  0  0  0  0  0  0  0  0  0  0  0
 15 16  1  0  0  0
 16 17  2  0  0  0
 17 18  1  0  0  0
 18 14  1  0  0  0
 14  2  1  0  0  0
  2  3  1  0  0  0
  3  4  2  0  0  0
  3  5  1  0  0  0
  5  6  1  0  0  0
  5  7  1  0  0  0
  7  8  1  0  0  0
  8  9  2  0  0  0
  9 10  1  0  0  0
 10  1  1  0  0  0
  1 21  1  0  0  0
 21 22  2  0  0  0
 21 23  1  0  0  0
 23 25  1  0  0  0
 25 26  2  0  0  0
 26 27  1  0  0  0
 27 28  2  0  0  0
 28 29  1  0  0  0
 29 30  2  0  0  0
 28 31  1  0  0  0
 31 32  1  0  0  0
 32 33  1  0  0  0
 33 34  1  0  0  0
 34 35  1  0  0  0
 35 36  1  0  0  0
 34 37  1  0  0  0
 37 38  1  0  0  0
 37 39  1  0  0  0
 37 40  1  0  0  0
 10 11  1  0  0  0
 11 12  1  0  0  0
 12 13  2  0  0  0
 18 19  2  0  0  0
 19 20  1  0  0  0
 20 16  1  0  0  0
 12  2  1  0  0  0
 11  7  2  0  0  0
 30 25  1  0  0  0
 36 31  1  0  0  0
 23 24  1  0  0  0
M  END
> <minimizedAffinity>
-7.86414

> <CNNscore>
0.2683553100

> <CNNaffinity>
6.4756073952

> <CNN_VS>
1.7377636433

> <CNNaffinity_variance>
0.0453451946

$$$$
[H]c1nc(N([H])C(=O)C([H])([H])n2c([H])nc3c2c(=O)n(C([H])([H])c2noc(C([H])([H])[H])c2[H])c(=O)n3C([H])([H])[H])c([H])c([H])c1N1C([H])([H])C([H])([H])C([H])(C(F)(C([H])([H])[H])C([H])([H])[H])C([H])([H])C1([H])[H]


 40 44  0  0  0  0  0  0  0  0999 V2000
  156.1069  138.9595  185.1553 C   0  0  0  0  0  0  0  0  0  0  0  0
  158.7239  141.9613  183.0620 N   0  0  0  0  0  0  0  0  0  0  0  0
  158.0381  142.9753  182.5063 C   0  0  0  0  0  0  0  0  0  0  0  0
  158.6783  143.8618  181.9077 O   0  0  0  0  0  0  0  0  0  0  0  0
  156.6945  143.0370  182.5909 N   0  0  0  0  0  0  0  0  0  0  0  0
  155.9981  144.1422  181.9801 C   0  0  0  0  0  0  0  0  0  0  0  0
  156.0809  142.0442  183.2519 C   0  0  0  0  0  0  0  0  0  0  0  0
  154.7746  141.8522  183.4811 N   0  0  0  0  0  0  0  0  0  0  0  0
  154.6272  140.7218  184.1807 C   0  0  0  0  0  0  0  0  0  0  0  0
  155.8370  140.1571  184.4201 N   0  0  0  0  0  0  0  0  0  0  0  0
  156.7339  140.9711  183.8469 C   0  0  0  0  0  0  0  0  0  0  0  0
  158.1077  140.9561  183.7303 C   0  0  0  0  0  0  0  0  0  0  0  0
  158.7846  140.0144  184.2398 O   0  0  0  0  0  0  0  0  0  0  0  0
  160.1661  141.8909  182.9838 C   0  0  0  0  0  0  0  0  0  0  0  0
  163.0295  142.6868  187.1115 C   0  0  0  0  0  0  0  0  0  0  0  0
  162.0258  142.8122  186.0143 C   0  0  0  0  0  0  0  0  0  0  0  0
  161.7859  141.9420  184.9754 C   0  0  0  0  0  0  0  0  0  0  0  0
  160.7588  142.4801  184.2054 C   0  0  0  0  0  0  0  0  0  0  0  0
  160.4364  143.6393  184.8179 N   0  0  0  0  0  0  0  0  0  0  0  0
  161.1894  143.7996  185.8611 O   0  0  0  0  0  0  0  0  0  0  0  0
  154.9081  138.1680  185.5089 C   0  0  0  0  0  0  0  0  0  0  0  0
  154.4270  137.3168  184.6891 O   0  0  0  0  0  0  0  0  0  0  0  0
  154.2431  138.2937  186.7280 N   0  0  0  0  0  0  0  0  0  0  0  0
  154.6043  138.9877  187.4477 H   0  0  0  0  0  0  0  0  0  0  0  0
  153.0773  137.5365  187.0777 C   0  0  0  0  0  0  0  0  0  0  0  0
  153.0129  136.7814  188.2234 C   0  0  0  0  0  0  0  0  0  0  0  0
  151.9055  136.0510  188.5882 C   0  0  0  0  0  0  0  0  0  0  0  0
  150.7645  136.0538  187.7719 C   0  0  0  0  0  0  0  0  0  0  0  0
  150.8606  136.8187  186.6322 C   0  0  0  0  0  0  0  0  0  0  0  0
  151.9809  137.5314  186.3051 N   0  0  0  0  0  0  0  0  0  0  0  0
  149.6176  135.2985  188.1245 N   0  0  0  0  0  0  0  0  0  0  0  0
  149.4960  133.9427  187.6482 C   0  0  0  0  0  0  0  0  0  0  0  0
  149.4604  133.0416  188.8940 C   0  0  0  0  0  0  0  0  0  0  0  0
  148.2862  133.4460  189.7619 C   0  0  0  0  0  0  0  0  0  0  0  0
  148.3648  134.8948  190.1590 C   0  0  0  0  0  0  0  0  0  0  0  0
  148.5419  135.7971  188.9530 C   0  0  0  0  0  0  0  0  0  0  0  0
  148.0859  132.5508  190.9340 C   0  0  0  0  0  0  0  0  0  0  0  0
  148.5390  133.1993  192.2361 C   0  0  0  0  0  0  0  0  0  0  0  0
  148.7816  131.2355  190.7806 C   0  0  0  0  0  0  0  0  0  0  0  0
  146.7188  132.2890  191.0912 F   0  0  0  0  0  0  0  0  0  0  0  0
 15 16  1  0  0  0
 16 17  2  0  0  0
 17 18  1  0  0  0
 18 14  1  0  0  0
 14  2  1  0  0  0
  2  3  1  0  0  0
  3  4  2  0  0  0
  3  5  1  0  0  0
  5  6  1  0  0  0
  5  7  1  0  0  0
  7  8  1  0  0  0
  8  9  2  0  0  0
  9 10  1  0  0  0
 10  1  1  0  0  0
  1 21  1  0  0  0
 21 22  2  0  0  0
 21 23  1  0  0  0
 23 25  1  0  0  0
 25 26  2  0  0  0
 26 27  1  0  0  0
 27 28  2  0  0  0
 28 29  1  0  0  0
 29 30  2  0  0  0
 28 31  1  0  0  0
 31 32  1  0  0  0
 32 33  1  0  0  0
 33 34  1  0  0  0
 34 35  1  0  0  0
 35 36  1  0  0  0
 34 37  1  0  0  0
 37 38  1  0  0  0
 37 39  1  0  0  0
 37 40  1  0  0  0
 10 11  1  0  0  0
 11 12  1  0  0  0
 12 13  2  0  0  0
 18 19  2  0  0  0
 19 20  1  0  0  0
 20 16  1  0  0  0
 12  2  1  0  0  0
 11  7  2  0  0  0
 30 25  1  0  0  0
 36 31  1  0  0  0
 23 24  1  0  0  0
M  END
> <minimizedAffinity>
-7.64239

> <CNNscore>
0.2579821050

> <CNNaffinity>
6.4773302078

> <CNN_VS>
1.6710352898

> <CNNaffinity_variance>
0.1199498624

$$$$
[H]c1nc(N([H])C(=O)C([H])([H])n2c([H])nc3c2c(=O)n(C([H])([H])c2noc(C([H])([H])[H])c2[H])c(=O)n3C([H])([H])[H])c([H])c([H])c1N1C([H])([H])C([H])([H])C([H])(C(F)(C([H])([H])[H])C([H])([H])[H])C([H])([H])C1([H])[H]


 40 44  0  0  0  0  0  0  0  0999 V2000
  150.6317  135.0635  183.6681 C   0  0  0  0  0  0  0  0  0  0  0  0
  150.3038  135.1606  188.1542 N   0  0  0  0  0  0  0  0  0  0  0  0
  149.1405  135.6696  188.5959 C   0  0  0  0  0  0  0  0  0  0  0  0
  148.9542  135.7325  189.8269 O   0  0  0  0  0  0  0  0  0  0  0  0
  148.1975  136.1018  187.7356 N   0  0  0  0  0  0  0  0  0  0  0  0
  146.9639  136.6412  188.2520 C   0  0  0  0  0  0  0  0  0  0  0  0
  148.4755  135.9995  186.4274 C   0  0  0  0  0  0  0  0  0  0  0  0
  147.7340  136.3516  185.3681 N   0  0  0  0  0  0  0  0  0  0  0  0
  148.4201  136.0678  184.2556 C   0  0  0  0  0  0  0  0  0  0  0  0
  149.6221  135.5246  184.5714 N   0  0  0  0  0  0  0  0  0  0  0  0
  149.6577  135.4830  185.9102 C   0  0  0  0  0  0  0  0  0  0  0  0
  150.5887  135.0559  186.8334 C   0  0  0  0  0  0  0  0  0  0  0  0
  151.6960  134.5735  186.4518 O   0  0  0  0  0  0  0  0  0  0  0  0
  151.3181  134.6865  189.0693 C   0  0  0  0  0  0  0  0  0  0  0  0
  150.2293  130.8053  192.1711 C   0  0  0  0  0  0  0  0  0  0  0  0
  150.4562  131.6661  190.9735 C   0  0  0  0  0  0  0  0  0  0  0  0
  150.8555  132.9826  190.9336 C   0  0  0  0  0  0  0  0  0  0  0  0
  150.9303  133.3585  189.5956 C   0  0  0  0  0  0  0  0  0  0  0  0
  150.5741  132.2548  188.9043 N   0  0  0  0  0  0  0  0  0  0  0  0
  150.3066  131.2946  189.7335 O   0  0  0  0  0  0  0  0  0  0  0  0
  151.7758  135.9857  183.4970 C   0  0  0  0  0  0  0  0  0  0  0  0
  152.6904  135.7342  182.6436 O   0  0  0  0  0  0  0  0  0  0  0  0
  151.9266  137.1594  184.2344 N   0  0  0  0  0  0  0  0  0  0  0  0
  151.1913  137.4167  184.9577 H   0  0  0  0  0  0  0  0  0  0  0  0
  153.0344  138.0561  184.0810 C   0  0  0  0  0  0  0  0  0  0  0  0
  153.0457  139.0477  183.1304 C   0  0  0  0  0  0  0  0  0  0  0  0
  154.0909  139.9268  182.9650 C   0  0  0  0  0  0  0  0  0  0  0  0
  155.2205  139.8357  183.7921 C   0  0  0  0  0  0  0  0  0  0  0  0
  155.1789  138.8327  184.7330 C   0  0  0  0  0  0  0  0  0  0  0  0
  154.1195  137.9783  184.8655 N   0  0  0  0  0  0  0  0  0  0  0  0
  156.3128  140.7248  183.6299 N   0  0  0  0  0  0  0  0  0  0  0  0
  157.6492  140.1884  183.5514 C   0  0  0  0  0  0  0  0  0  0  0  0
  158.1947  140.5708  182.1652 C   0  0  0  0  0  0  0  0  0  0  0  0
  158.1795  142.0796  182.0282 C   0  0  0  0  0  0  0  0  0  0  0  0
  156.7972  142.6392  182.2254 C   0  0  0  0  0  0  0  0  0  0  0  0
  156.1801  142.1614  183.5258 C   0  0  0  0  0  0  0  0  0  0  0  0
  158.8077  142.5617  180.7678 C   0  0  0  0  0  0  0  0  0  0  0  0
  158.9357  144.0795  180.7339 C   0  0  0  0  0  0  0  0  0  0  0  0
  158.0705  142.1107  179.5470 C   0  0  0  0  0  0  0  0  0  0  0  0
  160.1142  142.0644  180.6794 F   0  0  0  0  0  0  0  0  0  0  0  0
 15 16  1  0  0  0
 16 17  2  0  0  0
 17 18  1  0  0  0
 18 14  1  0  0  0
 14  2  1  0  0  0
  2  3  1  0  0  0
  3  4  2  0  0  0
  3  5  1  0  0  0
  5  6  1  0  0  0
  5  7  1  0  0  0
  7  8  1  0  0  0
  8  9  2  0  0  0
  9 10  1  0  0  0
 10  1  1  0  0  0
  1 21  1  0  0  0
 21 22  2  0  0  0
 21 23  1  0  0  0
 23 25  1  0  0  0
 25 26  2  0  0  0
 26 27  1  0  0  0
 27 28  2  0  0  0
 28 29  1  0  0  0
 29 30  2  0  0  0
 28 31  1  0  0  0
 31 32  1  0  0  0
 32 33  1  0  0  0
 33 34  1  0  0  0
 34 35  1  0  0  0
 35 36  1  0  0  0
 34 37  1  0  0  0
 37 38  1  0  0  0
 37 39  1  0  0  0
 37 40  1  0  0  0
 10 11  1  0  0  0
 11 12  1  0  0  0
 12 13  2  0  0  0
 18 19  2  0  0  0
 19 20  1  0  0  0
 20 16  1  0  0  0
 12  2  1  0  0  0
 11  7  2  0  0  0
 30 25  1  0  0  0
 36 31  1  0  0  0
 23 24  1  0  0  0
M  END
> <minimizedAffinity>
-6.09596

> <CNNscore>
0.2559972405

> <CNNaffinity>
6.3660507202

> <CNN_VS>
1.6296913624

> <CNNaffinity_variance>
0.6323725581

$$$$
[H]c1nc(N([H])C(=O)C([H])([H])n2c([H])nc3c2c(=O)n(C([H])([H])c2noc(C([H])([H])[H])c2[H])c(=O)n3C([H])([H])[H])c([H])c([H])c1N1C([H])([H])C([H])([H])C([H])(C(F)(C([H])([H])[H])C([H])([H])[H])C([H])([H])C1([H])[H]


 40 44  0  0  0  0  0  0  0  0999 V2000
  155.4404  139.0323  183.3856 C   0  0  0  0  0  0  0  0  0  0  0  0
  158.7950  141.9943  182.9211 N   0  0  0  0  0  0  0  0  0  0  0  0
  158.3749  143.2409  182.6435 C   0  0  0  0  0  0  0  0  0  0  0  0
  159.2328  144.1343  182.5024 O   0  0  0  0  0  0  0  0  0  0  0  0
  157.0629  143.5229  182.5199 N   0  0  0  0  0  0  0  0  0  0  0  0
  156.6557  144.8737  182.2212 C   0  0  0  0  0  0  0  0  0  0  0  0
  156.2043  142.5061  182.6865 C   0  0  0  0  0  0  0  0  0  0  0  0
  154.8661  142.4997  182.6152 N   0  0  0  0  0  0  0  0  0  0  0  0
  154.4338  141.2554  182.8473 C   0  0  0  0  0  0  0  0  0  0  0  0
  155.4846  140.4284  183.0745 N   0  0  0  0  0  0  0  0  0  0  0  0
  156.5767  141.1983  182.9746 C   0  0  0  0  0  0  0  0  0  0  0  0
  157.9307  140.9641  183.0896 C   0  0  0  0  0  0  0  0  0  0  0  0
  158.3609  139.8010  183.3480 O   0  0  0  0  0  0  0  0  0  0  0  0
  160.1999  141.6837  183.0640 C   0  0  0  0  0  0  0  0  0  0  0  0
  163.0447  142.8078  187.1277 C   0  0  0  0  0  0  0  0  0  0  0  0
  161.9077  142.4983  186.2123 C   0  0  0  0  0  0  0  0  0  0  0  0
  161.9480  142.2356  184.8619 C   0  0  0  0  0  0  0  0  0  0  0  0
  160.6420  142.0050  184.4396 C   0  0  0  0  0  0  0  0  0  0  0  0
  159.8885  142.1401  185.5517 N   0  0  0  0  0  0  0  0  0  0  0  0
  160.6536  142.4254  186.5587 O   0  0  0  0  0  0  0  0  0  0  0  0
  155.4068  138.7222  184.8317 C   0  0  0  0  0  0  0  0  0  0  0  0
  156.2971  139.1902  185.6170 O   0  0  0  0  0  0  0  0  0  0  0  0
  154.4268  137.9221  185.4180 N   0  0  0  0  0  0  0  0  0  0  0  0
  153.6605  137.5087  184.8082 H   0  0  0  0  0  0  0  0  0  0  0  0
  154.3890  137.6103  186.8166 C   0  0  0  0  0  0  0  0  0  0  0  0
  153.6572  138.3526  187.7112 C   0  0  0  0  0  0  0  0  0  0  0  0
  153.5963  138.0729  189.0569 C   0  0  0  0  0  0  0  0  0  0  0  0
  154.3056  136.9803  189.5780 C   0  0  0  0  0  0  0  0  0  0  0  0
  155.0287  136.2575  188.6572 C   0  0  0  0  0  0  0  0  0  0  0  0
  155.0631  136.5687  187.3261 N   0  0  0  0  0  0  0  0  0  0  0  0
  154.2649  136.6824  190.9635 N   0  0  0  0  0  0  0  0  0  0  0  0
  153.8279  137.6994  191.8879 C   0  0  0  0  0  0  0  0  0  0  0  0
  152.5619  137.1561  192.5716 C   0  0  0  0  0  0  0  0  0  0  0  0
  152.8998  135.8572  193.2746 C   0  0  0  0  0  0  0  0  0  0  0  0
  153.4624  134.8409  192.3188 C   0  0  0  0  0  0  0  0  0  0  0  0
  154.6290  135.4015  191.5283 C   0  0  0  0  0  0  0  0  0  0  0  0
  151.7705  135.3117  194.0762 C   0  0  0  0  0  0  0  0  0  0  0  0
  151.8296  133.7937  194.1931 C   0  0  0  0  0  0  0  0  0  0  0  0
  150.4340  135.7036  193.5308 C   0  0  0  0  0  0  0  0  0  0  0  0
  151.8512  135.8007  195.3864 F   0  0  0  0  0  0  0  0  0  0  0  0
 15 16  1  0  0  0
 16 17  2  0  0  0
 17 18  1  0  0  0
 18 14  1  0  0  0
 14  2  1  0  0  0
  2  3  1  0  0  0
  3  4  2  0  0  0
  3  5  1  0  0  0
  5  6  1  0  0  0
  5  7  1  0  0  0
  7  8  1  0  0  0
  8  9  2  0  0  0
  9 10  1  0  0  0
 10  1  1  0  0  0
  1 21  1  0  0  0
 21 22  2  0  0  0
 21 23  1  0  0  0
 23 25  1  0  0  0
 25 26  2  0  0  0
 26 27  1  0  0  0
 27 28  2  0  0  0
 28 29  1  0  0  0
 29 30  2  0  0  0
 28 31  1  0  0  0
 31 32  1  0  0  0
 32 33  1  0  0  0
 33 34  1  0  0  0
 34 35  1  0  0  0
 35 36  1  0  0  0
 34 37  1  0  0  0
 37 38  1  0  0  0
 37 39  1  0  0  0
 37 40  1  0  0  0
 10 11  1  0  0  0
 11 12  1  0  0  0
 12 13  2  0  0  0
 18 19  2  0  0  0
 19 20  1  0  0  0
 20 16  1  0  0  0
 12  2  1  0  0  0
 11  7  2  0  0  0
 30 25  1  0  0  0
 36 31  1  0  0  0
 23 24  1  0  0  0
M  END
> <minimizedAffinity>
-9.70412

> <CNNscore>
0.2512330413

> <CNNaffinity>
6.6088256836

> <CNN_VS>
1.6603553295

> <CNNaffinity_variance>
0.1552143544

$$$$
[H]c1nc(N([H])C(=O)C([H])([H])n2c([H])nc3c2c(=O)n(C([H])([H])c2noc(C([H])([H])[H])c2[H])c(=O)n3C([H])([H])[H])c([H])c([H])c1N1C([H])([H])C([H])([H])C([H])(C(F)(C([H])([H])[H])C([H])([H])[H])C([H])([H])C1([H])[H]


 40 44  0  0  0  0  0  0  0  0999 V2000
  155.5777  138.4416  183.9598 C   0  0  0  0  0  0  0  0  0  0  0  0
  158.4843  141.7648  183.0941 N   0  0  0  0  0  0  0  0  0  0  0  0
  157.8898  142.9253  182.7665 C   0  0  0  0  0  0  0  0  0  0  0  0
  158.6141  143.9081  182.5144 O   0  0  0  0  0  0  0  0  0  0  0  0
  156.5473  143.0293  182.7107 N   0  0  0  0  0  0  0  0  0  0  0  0
  155.9507  144.2929  182.3546 C   0  0  0  0  0  0  0  0  0  0  0  0
  155.8399  141.9260  182.9959 C   0  0  0  0  0  0  0  0  0  0  0  0
  154.5122  141.7449  183.0120 N   0  0  0  0  0  0  0  0  0  0  0  0
  154.2602  140.4754  183.3492 C   0  0  0  0  0  0  0  0  0  0  0  0
  155.4213  139.8064  183.5594 N   0  0  0  0  0  0  0  0  0  0  0  0
  156.3959  140.6997  183.3409 C   0  0  0  0  0  0  0  0  0  0  0  0
  157.7731  140.6478  183.3825 C   0  0  0  0  0  0  0  0  0  0  0  0
  158.3657  139.5699  183.6850 O   0  0  0  0  0  0  0  0  0  0  0  0
  159.9237  141.6458  183.1649 C   0  0  0  0  0  0  0  0  0  0  0  0
  162.8218  142.8724  187.1608 C   0  0  0  0  0  0  0  0  0  0  0  0
  161.6733  142.5355  186.2696 C   0  0  0  0  0  0  0  0  0  0  0  0
  161.6948  142.2473  184.9239 C   0  0  0  0  0  0  0  0  0  0  0  0
  160.3844  141.9973  184.5269 C   0  0  0  0  0  0  0  0  0  0  0  0
  159.6473  142.1473  185.6481 N   0  0  0  0  0  0  0  0  0  0  0  0
  160.4256  142.4585  186.6372 O   0  0  0  0  0  0  0  0  0  0  0  0
  154.7516  138.0390  185.1191 C   0  0  0  0  0  0  0  0  0  0  0  0
  154.6217  138.8143  186.1242 O   0  0  0  0  0  0  0  0  0  0  0  0
  154.0769  136.8208  185.1890 N   0  0  0  0  0  0  0  0  0  0  0  0
  154.1505  136.1389  184.3769 H   0  0  0  0  0  0  0  0  0  0  0  0
  153.2795  136.4186  186.3103 C   0  0  0  0  0  0  0  0  0  0  0  0
  151.9244  136.6380  186.3594 C   0  0  0  0  0  0  0  0  0  0  0  0
  151.1329  136.2567  187.4182 C   0  0  0  0  0  0  0  0  0  0  0  0
  151.7054  135.6077  188.5226 C   0  0  0  0  0  0  0  0  0  0  0  0
  153.0637  135.4032  188.4432 C   0  0  0  0  0  0  0  0  0  0  0  0
  153.8157  135.7978  187.3714 N   0  0  0  0  0  0  0  0  0  0  0  0
  150.9088  135.2172  189.6284 N   0  0  0  0  0  0  0  0  0  0  0  0
  150.9907  133.8597  190.1083 C   0  0  0  0  0  0  0  0  0  0  0  0
  151.5054  133.9363  191.5556 C   0  0  0  0  0  0  0  0  0  0  0  0
  150.5450  134.7719  192.3770 C   0  0  0  0  0  0  0  0  0  0  0  0
  150.3796  136.1515  191.8007 C   0  0  0  0  0  0  0  0  0  0  0  0
  150.0074  136.1036  190.3313 C   0  0  0  0  0  0  0  0  0  0  0  0
  150.8847  134.8037  193.8258 C   0  0  0  0  0  0  0  0  0  0  0  0
  152.3835  134.9438  194.0614 C   0  0  0  0  0  0  0  0  0  0  0  0
  150.3897  133.5986  194.5607 C   0  0  0  0  0  0  0  0  0  0  0  0
  150.2966  135.9293  194.4170 F   0  0  0  0  0  0  0  0  0  0  0  0
 15 16  1  0  0  0
 16 17  2  0  0  0
 17 18  1  0  0  0
 18 14  1  0  0  0
 14  2  1  0  0  0
  2  3  1  0  0  0
  3  4  2  0  0  0
  3  5  1  0  0  0
  5  6  1  0  0  0
  5  7  1  0  0  0
  7  8  1  0  0  0
  8  9  2  0  0  0
  9 10  1  0  0  0
 10  1  1  0  0  0
  1 21  1  0  0  0
 21 22  2  0  0  0
 21 23  1  0  0  0
 23 25  1  0  0  0
 25 26  2  0  0  0
 26 27  1  0  0  0
 27 28  2  0  0  0
 28 29  1  0  0  0
 29 30  2  0  0  0
 28 31  1  0  0  0
 31 32  1  0  0  0
 32 33  1  0  0  0
 33 34  1  0  0  0
 34 35  1  0  0  0
 35 36  1  0  0  0
 34 37  1  0  0  0
 37 38  1  0  0  0
 37 39  1  0  0  0
 37 40  1  0  0  0
 10 11  1  0  0  0
 11 12  1  0  0  0
 12 13  2  0  0  0
 18 19  2  0  0  0
 19 20  1  0  0  0
 20 16  1  0  0  0
 12  2  1  0  0  0
 11  7  2  0  0  0
 30 25  1  0  0  0
 36 31  1  0  0  0
 23 24  1  0  0  0
M  END
> <minimizedAffinity>
-8.06256

> <CNNscore>
0.2439014763

> <CNNaffinity>
6.4516615868

> <CNN_VS>
1.5735697746

> <CNNaffinity_variance>
0.1266775280

$$$$
[H]c1nc(N([H])C(=O)C([H])([H])n2c([H])nc3c2c(=O)n(C([H])([H])c2noc(C([H])([H])[H])c2[H])c(=O)n3C([H])([H])[H])c([H])c([H])c1N1C([H])([H])C([H])([H])C([H])(C(F)(C([H])([H])[H])C([H])([H])[H])C([H])([H])C1([H])[H]


 40 44  0  0  0  0  0  0  0  0999 V2000
  154.3989  139.7350  182.8436 C   0  0  0  0  0  0  0  0  0  0  0  0
  158.3225  141.9360  182.8981 N   0  0  0  0  0  0  0  0  0  0  0  0
  158.1993  143.2570  182.6806 C   0  0  0  0  0  0  0  0  0  0  0  0
  159.2331  143.9537  182.6827 O   0  0  0  0  0  0  0  0  0  0  0  0
  156.9932  143.8184  182.4655 N   0  0  0  0  0  0  0  0  0  0  0  0
  156.9062  145.2394  182.2359 C   0  0  0  0  0  0  0  0  0  0  0  0
  155.9306  143.0000  182.4792 C   0  0  0  0  0  0  0  0  0  0  0  0
  154.6342  143.2827  182.2918 N   0  0  0  0  0  0  0  0  0  0  0  0
  153.9330  142.1480  182.3903 C   0  0  0  0  0  0  0  0  0  0  0  0
  154.7618  141.1048  182.6444 N   0  0  0  0  0  0  0  0  0  0  0  0
  155.9938  141.6289  182.6983 C   0  0  0  0  0  0  0  0  0  0  0  0
  157.2515  141.1057  182.9123 C   0  0  0  0  0  0  0  0  0  0  0  0
  157.4038  139.8651  183.1179 O   0  0  0  0  0  0  0  0  0  0  0  0
  159.6113  141.3259  183.1384 C   0  0  0  0  0  0  0  0  0  0  0  0
  162.5457  142.9198  186.9749 C   0  0  0  0  0  0  0  0  0  0  0  0
  161.4073  142.4192  186.1501 C   0  0  0  0  0  0  0  0  0  0  0  0
  161.3805  142.1697  184.7968 C   0  0  0  0  0  0  0  0  0  0  0  0
  160.1036  141.7167  184.4784 C   0  0  0  0  0  0  0  0  0  0  0  0
  159.4327  141.7173  185.6501 N   0  0  0  0  0  0  0  0  0  0  0  0
  160.2178  142.1293  186.5961 O   0  0  0  0  0  0  0  0  0  0  0  0
  154.2140  139.3441  184.2583 C   0  0  0  0  0  0  0  0  0  0  0  0
  154.0305  140.2301  185.1580 O   0  0  0  0  0  0  0  0  0  0  0  0
  154.2254  138.0188  184.6915 N   0  0  0  0  0  0  0  0  0  0  0  0
  154.3727  137.2415  183.9816 H   0  0  0  0  0  0  0  0  0  0  0  0
  154.0538  137.6300  186.0605 C   0  0  0  0  0  0  0  0  0  0  0  0
  155.1108  137.2449  186.8488 C   0  0  0  0  0  0  0  0  0  0  0  0
  154.9774  136.8739  188.1669 C   0  0  0  0  0  0  0  0  0  0  0  0
  153.7109  136.8771  188.7707 C   0  0  0  0  0  0  0  0  0  0  0  0
  152.6735  137.2670  187.9553 C   0  0  0  0  0  0  0  0  0  0  0  0
  152.8481  137.6289  186.6483 N   0  0  0  0  0  0  0  0  0  0  0  0
  153.5510  136.4872  190.1244 N   0  0  0  0  0  0  0  0  0  0  0  0
  152.2486  136.5892  190.7353 C   0  0  0  0  0  0  0  0  0  0  0  0
  151.8376  135.1615  191.1329 C   0  0  0  0  0  0  0  0  0  0  0  0
  152.8703  134.5988  192.0881 C   0  0  0  0  0  0  0  0  0  0  0  0
  154.2464  134.6032  191.4805 C   0  0  0  0  0  0  0  0  0  0  0  0
  154.6208  135.9747  190.9521 C   0  0  0  0  0  0  0  0  0  0  0  0
  152.5002  133.2648  192.6346 C   0  0  0  0  0  0  0  0  0  0  0  0
  152.0326  132.3075  191.5454 C   0  0  0  0  0  0  0  0  0  0  0  0
  151.4455  133.3472  193.6920 C   0  0  0  0  0  0  0  0  0  0  0  0
  153.6293  132.6684  193.2106 F   0  0  0  0  0  0  0  0  0  0  0  0
 15 16  1  0  0  0
 16 17  2  0  0  0
 17 18  1  0  0  0
 18 14  1  0  0  0
 14  2  1  0  0  0
  2  3  1  0  0  0
  3  4  2  0  0  0
  3  5  1  0  0  0
  5  6  1  0  0  0
  5  7  1  0  0  0
  7  8  1  0  0  0
  8  9  2  0  0  0
  9 10  1  0  0  0
 10  1  1  0  0  0
  1 21  1  0  0  0
 21 22  2  0  0  0
 21 23  1  0  0  0
 23 25  1  0  0  0
 25 26  2  0  0  0
 26 27  1  0  0  0
 27 28  2  0  0  0
 28 29  1  0  0  0
 29 30  2  0  0  0
 28 31  1  0  0  0
 31 32  1  0  0  0
 32 33  1  0  0  0
 33 34  1  0  0  0
 34 35  1  0  0  0
 35 36  1  0  0  0
 34 37  1  0  0  0
 37 38  1  0  0  0
 37 39  1  0  0  0
 37 40  1  0  0  0
 10 11  1  0  0  0
 11 12  1  0  0  0
 12 13  2  0  0  0
 18 19  2  0  0  0
 19 20  1  0  0  0
 20 16  1  0  0  0
 12  2  1  0  0  0
 11  7  2  0  0  0
 30 25  1  0  0  0
 36 31  1  0  0  0
 23 24  1  0  0  0
M  END
> <minimizedAffinity>
-8.06463

> <CNNscore>
0.2313841283

> <CNNaffinity>
6.5614900589

> <CNN_VS>
1.5182247162

> <CNNaffinity_variance>
0.0951082557

$$$$
[H]c1nc(N2C([H])([H])C3([H])C(F)(F)C3([H])C2([H])[H])c([H])c([H])c1-c1nc(N([H])C(=O)[C@@]([H])(n2c([H])nc3c2c(=O)n(C([H])([H])C(=O)C([H])([H])C([H])([H])[H])c(=O)n3C([H])([H])[H])C([H])([H])[H])c([H])c([H])c1[H]


 43 48  0  0  0  0  0  0  0  0999 V2000
  149.9261  137.7732  181.3302 C   0  0  0  0  0  0  0  0  0  0  0  0
  149.9763  137.1095  180.1927 O   0  0  0  0  0  0  0  0  0  0  0  0
  148.7550  137.5928  182.0260 N   0  0  0  0  0  0  0  0  0  0  0  0
  148.0063  136.9122  181.5553 H   0  0  0  0  0  0  0  0  0  0  0  0
  148.2566  138.1345  183.2251 C   0  0  0  0  0  0  0  0  0  0  0  0
  147.5087  139.2702  183.3469 C   0  0  0  0  0  0  0  0  0  0  0  0
  147.0883  139.7366  184.5943 C   0  0  0  0  0  0  0  0  0  0  0  0
  147.4560  139.0068  185.6993 C   0  0  0  0  0  0  0  0  0  0  0  0
  148.2065  137.8597  185.6167 C   0  0  0  0  0  0  0  0  0  0  0  0
  148.5756  137.4697  184.3934 N   0  0  0  0  0  0  0  0  0  0  0  0
  148.5977  137.0833  186.7944 C   0  0  0  0  0  0  0  0  0  0  0  0
  149.8902  136.5955  186.8898 C   0  0  0  0  0  0  0  0  0  0  0  0
  150.2987  135.8534  187.9937 C   0  0  0  0  0  0  0  0  0  0  0  0
  149.4123  135.5963  189.0089 C   0  0  0  0  0  0  0  0  0  0  0  0
  148.1651  136.0735  188.9046 N   0  0  0  0  0  0  0  0  0  0  0  0
  147.7438  136.8098  187.8195 C   0  0  0  0  0  0  0  0  0  0  0  0
  149.8072  134.8315  190.1622 N   0  0  0  0  0  0  0  0  0  0  0  0
  148.9580  134.3260  191.2095 C   0  0  0  0  0  0  0  0  0  0  0  0
  149.7732  134.5109  192.4469 C   0  0  0  0  0  0  0  0  0  0  0  0
  151.2195  134.5880  191.9684 C   0  0  0  0  0  0  0  0  0  0  0  0
  151.1478  134.4377  190.4637 C   0  0  0  0  0  0  0  0  0  0  0  0
  150.5798  135.7395  192.6366 C   0  0  0  0  0  0  0  0  0  0  0  0
  150.1814  136.8503  191.9034 F   0  0  0  0  0  0  0  0  0  0  0  0
  150.9988  135.9570  193.9437 F   0  0  0  0  0  0  0  0  0  0  0  0
  151.1257  138.5462  181.5998 C   0  0  0  0  0  0  0  0  0  0  0  0
  152.0083  138.5323  180.3204 C   0  0  0  0  0  0  0  0  0  0  0  0
  154.7245  139.7169  184.0431 N   0  0  0  0  0  0  0  0  0  0  0  0
  155.1127  138.7728  184.9169 C   0  0  0  0  0  0  0  0  0  0  0  0
  156.1181  138.9757  185.6686 O   0  0  0  0  0  0  0  0  0  0  0  0
  154.4375  137.6035  185.0002 N   0  0  0  0  0  0  0  0  0  0  0  0
  154.8859  136.6058  185.9582 C   0  0  0  0  0  0  0  0  0  0  0  0
  153.3741  137.3719  184.2131 C   0  0  0  0  0  0  0  0  0  0  0  0
  152.5231  136.3211  184.0764 N   0  0  0  0  0  0  0  0  0  0  0  0
  151.6206  136.6114  183.1305 C   0  0  0  0  0  0  0  0  0  0  0  0
  151.8787  137.8450  182.6502 N   0  0  0  0  0  0  0  0  0  0  0  0
  152.9537  138.3295  183.3035 C   0  0  0  0  0  0  0  0  0  0  0  0
  153.6576  139.5120  183.2375 C   0  0  0  0  0  0  0  0  0  0  0  0
  153.2779  140.3832  182.4119 O   0  0  0  0  0  0  0  0  0  0  0  0
  155.4082  140.9943  183.9194 C   0  0  0  0  0  0  0  0  0  0  0  0
  156.5415  140.8469  182.9856 C   0  0  0  0  0  0  0  0  0  0  0  0
  156.2865  141.0648  181.7943 O   0  0  0  0  0  0  0  0  0  0  0  0
  158.5247  139.6681  182.2140 C   0  0  0  0  0  0  0  0  0  0  0  0
  157.9200  140.4675  183.3579 C   0  0  0  0  0  0  0  0  0  0  0  0
 42 43  1  0  0  0
 43 40  1  0  0  0
 40 41  2  0  0  0
 40 39  1  0  0  0
 39 27  1  0  0  0
 27 28  1  0  0  0
 28 29  2  0  0  0
 28 30  1  0  0  0
 30 31  1  0  0  0
 30 32  1  0  0  0
 32 33  1  0  0  0
 33 34  2  0  0  0
 34 35  1  0  0  0
 35 25  1  0  0  0
 25 26  1  0  0  0
 25  1  1  0  0  0
  1  2  2  0  0  0
  1  3  1  0  0  0
  3  5  1  0  0  0
  5  6  2  0  0  0
  6  7  1  0  0  0
  7  8  2  0  0  0
  8  9  1  0  0  0
  9 10  2  0  0  0
  9 11  1  0  0  0
 11 12  2  0  0  0
 12 13  1  0  0  0
 13 14  2  0  0  0
 14 15  1  0  0  0
 15 16  2  0  0  0
 14 17  1  0  0  0
 17 18  1  0  0  0
 18 19  1  0  0  0
 19 20  1  0  0  0
 20 21  1  0  0  0
 20 22  1  0  0  0
 22 23  1  0  0  0
 22 24  1  0  0  0
 35 36  1  0  0  0
 36 37  1  0  0  0
 37 38  2  0  0  0
 37 27  1  0  0  0
 36 32  2  0  0  0
 10  5  1  0  0  0
 16 11  1  0  0  0
 21 17  1  0  0  0
 22 19  1  0  0  0
  3  4  1  0  0  0
M  END
> <minimizedAffinity>
-7.37567

> <CNNscore>
0.4013218284

> <CNNaffinity>
6.5272321701

> <CNN_VS>
2.6195206642

> <CNNaffinity_variance>
0.1092353314

$$$$
[H]c1nc(N2C([H])([H])C3([H])C(F)(F)C3([H])C2([H])[H])c([H])c([H])c1-c1nc(N([H])C(=O)[C@@]([H])(n2c([H])nc3c2c(=O)n(C([H])([H])C(=O)C([H])([H])C([H])([H])[H])c(=O)n3C([H])([H])[H])C([H])([H])[H])c([H])c([H])c1[H]


 43 48  0  0  0  0  0  0  0  0999 V2000
  155.2005  137.2457  190.7374 C   0  0  0  0  0  0  0  0  0  0  0  0
  155.2849  138.5608  190.7529 O   0  0  0  0  0  0  0  0  0  0  0  0
  156.3787  136.6185  190.4110 N   0  0  0  0  0  0  0  0  0  0  0  0
  157.2495  137.2869  190.2104 H   0  0  0  0  0  0  0  0  0  0  0  0
  156.7287  135.2686  190.2232 C   0  0  0  0  0  0  0  0  0  0  0  0
  157.1238  134.3955  191.1957 C   0  0  0  0  0  0  0  0  0  0  0  0
  157.4779  133.0789  190.8939 C   0  0  0  0  0  0  0  0  0  0  0  0
  157.4131  132.6924  189.5766 C   0  0  0  0  0  0  0  0  0  0  0  0
  157.0199  133.5412  188.5712 C   0  0  0  0  0  0  0  0  0  0  0  0
  156.6952  134.7868  188.9288 N   0  0  0  0  0  0  0  0  0  0  0  0
  156.9515  133.1284  187.1684 C   0  0  0  0  0  0  0  0  0  0  0  0
  156.0510  133.7493  186.3193 C   0  0  0  0  0  0  0  0  0  0  0  0
  155.9569  133.3840  184.9799 C   0  0  0  0  0  0  0  0  0  0  0  0
  156.7663  132.3930  184.4845 C   0  0  0  0  0  0  0  0  0  0  0  0
  157.6329  131.8002  185.3161 N   0  0  0  0  0  0  0  0  0  0  0  0
  157.7395  132.1491  186.6443 C   0  0  0  0  0  0  0  0  0  0  0  0
  156.6906  131.9946  183.1037 N   0  0  0  0  0  0  0  0  0  0  0  0
  157.7047  132.1456  182.0927 C   0  0  0  0  0  0  0  0  0  0  0  0
  156.9320  132.5060  180.8667 C   0  0  0  0  0  0  0  0  0  0  0  0
  155.5160  131.9981  181.1197 C   0  0  0  0  0  0  0  0  0  0  0  0
  155.5615  131.3648  182.4940 C   0  0  0  0  0  0  0  0  0  0  0  0
  155.7851  133.4406  180.9513 C   0  0  0  0  0  0  0  0  0  0  0  0
  155.7733  134.2945  182.0472 F   0  0  0  0  0  0  0  0  0  0  0  0
  155.3803  133.9670  179.7305 F   0  0  0  0  0  0  0  0  0  0  0  0
  153.8783  136.7491  191.0753 C   0  0  0  0  0  0  0  0  0  0  0  0
  153.9413  136.1366  192.5025 C   0  0  0  0  0  0  0  0  0  0  0  0
  152.7253  136.6934  186.7210 N   0  0  0  0  0  0  0  0  0  0  0  0
  152.5214  135.4580  186.2335 C   0  0  0  0  0  0  0  0  0  0  0  0
  152.1891  135.3008  185.0161 O   0  0  0  0  0  0  0  0  0  0  0  0
  152.6672  134.3776  187.0344 N   0  0  0  0  0  0  0  0  0  0  0  0
  152.4392  133.0564  186.4717 C   0  0  0  0  0  0  0  0  0  0  0  0
  153.0163  134.5253  188.3229 C   0  0  0  0  0  0  0  0  0  0  0  0
  153.2313  133.6497  189.3398 N   0  0  0  0  0  0  0  0  0  0  0  0
  153.5638  134.3344  190.4417 C   0  0  0  0  0  0  0  0  0  0  0  0
  153.5665  135.6509  190.1486 N   0  0  0  0  0  0  0  0  0  0  0  0
  153.2322  135.7889  188.8500 C   0  0  0  0  0  0  0  0  0  0  0  0
  153.0776  136.8734  188.0144 C   0  0  0  0  0  0  0  0  0  0  0  0
  153.2728  138.0221  188.4908 O   0  0  0  0  0  0  0  0  0  0  0  0
  152.5916  137.8876  185.9020 C   0  0  0  0  0  0  0  0  0  0  0  0
  153.8221  138.0683  185.1075 C   0  0  0  0  0  0  0  0  0  0  0  0
  153.7183  137.8322  183.8970 O   0  0  0  0  0  0  0  0  0  0  0  0
  155.8060  139.3802  184.5965 C   0  0  0  0  0  0  0  0  0  0  0  0
  155.1331  138.4976  185.6365 C   0  0  0  0  0  0  0  0  0  0  0  0
 42 43  1  0  0  0
 43 40  1  0  0  0
 40 41  2  0  0  0
 40 39  1  0  0  0
 39 27  1  0  0  0
 27 28  1  0  0  0
 28 29  2  0  0  0
 28 30  1  0  0  0
 30 31  1  0  0  0
 30 32  1  0  0  0
 32 33  1  0  0  0
 33 34  2  0  0  0
 34 35  1  0  0  0
 35 25  1  0  0  0
 25 26  1  0  0  0
 25  1  1  0  0  0
  1  2  2  0  0  0
  1  3  1  0  0  0
  3  5  1  0  0  0
  5  6  2  0  0  0
  6  7  1  0  0  0
  7  8  2  0  0  0
  8  9  1  0  0  0
  9 10  2  0  0  0
  9 11  1  0  0  0
 11 12  2  0  0  0
 12 13  1  0  0  0
 13 14  2  0  0  0
 14 15  1  0  0  0
 15 16  2  0  0  0
 14 17  1  0  0  0
 17 18  1  0  0  0
 18 19  1  0  0  0
 19 20  1  0  0  0
 20 21  1  0  0  0
 20 22  1  0  0  0
 22 23  1  0  0  0
 22 24  1  0  0  0
 35 36  1  0  0  0
 36 37  1  0  0  0
 37 38  2  0  0  0
 37 27  1  0  0  0
 36 32  2  0  0  0
 10  5  1  0  0  0
 16 11  1  0  0  0
 21 17  1  0  0  0
 22 19  1  0  0  0
  3  4  1  0  0  0
M  END
> <minimizedAffinity>
-5.86807

> <CNNscore>
0.2504739463

> <CNNaffinity>
6.0523314476

> <CNN_VS>
1.5159513950

> <CNNaffinity_variance>
0.4731074870

$$$$
[H]c1nc(N2C([H])([H])C3([H])C(F)(F)C3([H])C2([H])[H])c([H])c([H])c1-c1nc(N([H])C(=O)[C@@]([H])(n2c([H])nc3c2c(=O)n(C([H])([H])C(=O)C([H])([H])C([H])([H])[H])c(=O)n3C([H])([H])[H])C([H])([H])[H])c([H])c([H])c1[H]


 43 48  0  0  0  0  0  0  0  0999 V2000
  151.1632  139.6040  180.0811 C   0  0  0  0  0  0  0  0  0  0  0  0
  150.8612  140.3356  179.0273 O   0  0  0  0  0  0  0  0  0  0  0  0
  152.2244  140.0891  180.8070 N   0  0  0  0  0  0  0  0  0  0  0  0
  152.6874  141.0306  180.4269 H   0  0  0  0  0  0  0  0  0  0  0  0
  152.9090  139.6157  181.9414 C   0  0  0  0  0  0  0  0  0  0  0  0
  152.4560  138.6760  182.8223 C   0  0  0  0  0  0  0  0  0  0  0  0
  153.2081  138.2983  183.9367 C   0  0  0  0  0  0  0  0  0  0  0  0
  154.4263  138.9091  184.1144 C   0  0  0  0  0  0  0  0  0  0  0  0
  154.9156  139.8575  183.2501 C   0  0  0  0  0  0  0  0  0  0  0  0
  154.1455  140.1727  182.2049 N   0  0  0  0  0  0  0  0  0  0  0  0
  156.2133  140.5076  183.4405 C   0  0  0  0  0  0  0  0  0  0  0  0
  157.2818  139.7677  183.9182 C   0  0  0  0  0  0  0  0  0  0  0  0
  158.5303  140.3509  184.1123 C   0  0  0  0  0  0  0  0  0  0  0  0
  158.7138  141.6806  183.8280 C   0  0  0  0  0  0  0  0  0  0  0  0
  157.6723  142.3853  183.3667 N   0  0  0  0  0  0  0  0  0  0  0  0
  156.4300  141.8243  183.1686 C   0  0  0  0  0  0  0  0  0  0  0  0
  159.9938  142.3100  184.0192 N   0  0  0  0  0  0  0  0  0  0  0  0
  161.2853  141.6742  184.0513 C   0  0  0  0  0  0  0  0  0  0  0  0
  162.0178  142.4137  185.1220 C   0  0  0  0  0  0  0  0  0  0  0  0
  161.3077  143.7586  185.2403 C   0  0  0  0  0  0  0  0  0  0  0  0
  160.1960  143.7116  184.2138 C   0  0  0  0  0  0  0  0  0  0  0  0
  161.3233  142.8077  186.3704 C   0  0  0  0  0  0  0  0  0  0  0  0
  160.1877  142.0757  186.6940 F   0  0  0  0  0  0  0  0  0  0  0  0
  162.1707  143.1613  187.4136 F   0  0  0  0  0  0  0  0  0  0  0  0
  150.3012  138.4469  180.2455 C   0  0  0  0  0  0  0  0  0  0  0  0
  149.4444  138.2947  178.9575 C   0  0  0  0  0  0  0  0  0  0  0  0
  149.1807  136.1429  183.9506 N   0  0  0  0  0  0  0  0  0  0  0  0
  148.2753  136.7690  184.7211 C   0  0  0  0  0  0  0  0  0  0  0  0
  147.8711  136.2262  185.7977 O   0  0  0  0  0  0  0  0  0  0  0  0
  147.7894  137.9774  184.3552 N   0  0  0  0  0  0  0  0  0  0  0  0
  146.8116  138.6254  185.2145 C   0  0  0  0  0  0  0  0  0  0  0  0
  148.2043  138.5648  183.2208 C   0  0  0  0  0  0  0  0  0  0  0  0
  147.9019  139.7419  182.6126 N   0  0  0  0  0  0  0  0  0  0  0  0
  148.6109  139.8425  181.4809 C   0  0  0  0  0  0  0  0  0  0  0  0
  149.3732  138.7378  181.3482 N   0  0  0  0  0  0  0  0  0  0  0  0
  149.1373  137.9396  182.4086 C   0  0  0  0  0  0  0  0  0  0  0  0
  149.6171  136.7096  182.8027 C   0  0  0  0  0  0  0  0  0  0  0  0
  150.4644  136.1396  182.0666 O   0  0  0  0  0  0  0  0  0  0  0  0
  149.7423  134.8483  184.3016 C   0  0  0  0  0  0  0  0  0  0  0  0
  150.9934  135.0534  185.0570 C   0  0  0  0  0  0  0  0  0  0  0  0
  152.0376  134.9695  184.3981 O   0  0  0  0  0  0  0  0  0  0  0  0
  151.2598  136.8432  186.6830 C   0  0  0  0  0  0  0  0  0  0  0  0
  151.0884  135.3427  186.5028 C   0  0  0  0  0  0  0  0  0  0  0  0
 42 43  1  0  0  0
 43 40  1  0  0  0
 40 41  2  0  0  0
 40 39  1  0  0  0
 39 27  1  0  0  0
 27 28  1  0  0  0
 28 29  2  0  0  0
 28 30  1  0  0  0
 30 31  1  0  0  0
 30 32  1  0  0  0
 32 33  1  0  0  0
 33 34  2  0  0  0
 34 35  1  0  0  0
 35 25  1  0  0  0
 25 26  1  0  0  0
 25  1  1  0  0  0
  1  2  2  0  0  0
  1  3  1  0  0  0
  3  5  1  0  0  0
  5  6  2  0  0  0
  6  7  1  0  0  0
  7  8  2  0  0  0
  8  9  1  0  0  0
  9 10  2  0  0  0
  9 11  1  0  0  0
 11 12  2  0  0  0
 12 13  1  0  0  0
 13 14  2  0  0  0
 14 15  1  0  0  0
 15 16  2  0  0  0
 14 17  1  0  0  0
 17 18  1  0  0  0
 18 19  1  0  0  0
 19 20  1  0  0  0
 20 21  1  0  0  0
 20 22  1  0  0  0
 22 23  1  0  0  0
 22 24  1  0  0  0
 35 36  1  0  0  0
 36 37  1  0  0  0
 37 38  2  0  0  0
 37 27  1  0  0  0
 36 32  2  0  0  0
 10  5  1  0  0  0
 16 11  1  0  0  0
 21 17  1  0  0  0
 22 19  1  0  0  0
  3  4  1  0  0  0
M  END
> <minimizedAffinity>
-9.47275

> <CNNscore>
0.2367006987

> <CNNaffinity>
6.8532476425

> <CNN_VS>
1.6221685410

> <CNNaffinity_variance>
0.0978531390

$$$$
[H]c1nc(N2C([H])([H])C3([H])C(F)(F)C3([H])C2([H])[H])c([H])c([H])c1-c1nc(N([H])C(=O)[C@@]([H])(n2c([H])nc3c2c(=O)n(C([H])([H])C(=O)C([H])([H])C([H])([H])[H])c(=O)n3C([H])([H])[H])C([H])([H])[H])c([H])c([H])c1[H]


 43 48  0  0  0  0  0  0  0  0999 V2000
  154.9253  136.2830  189.0049 C   0  0  0  0  0  0  0  0  0  0  0  0
  155.9903  136.8061  189.5785 O   0  0  0  0  0  0  0  0  0  0  0  0
  153.7844  136.3756  189.7651 N   0  0  0  0  0  0  0  0  0  0  0  0
  153.8952  136.8805  190.7540 H   0  0  0  0  0  0  0  0  0  0  0  0
  152.4675  135.9154  189.5815 C   0  0  0  0  0  0  0  0  0  0  0  0
  151.7894  135.0628  190.4045 C   0  0  0  0  0  0  0  0  0  0  0  0
  150.4894  134.6455  190.1114 C   0  0  0  0  0  0  0  0  0  0  0  0
  149.9149  135.1273  188.9597 C   0  0  0  0  0  0  0  0  0  0  0  0
  150.5645  135.9865  188.1078 C   0  0  0  0  0  0  0  0  0  0  0  0
  151.8058  136.3454  188.4474 N   0  0  0  0  0  0  0  0  0  0  0  0
  149.9516  136.4988  186.8812 C   0  0  0  0  0  0  0  0  0  0  0  0
  148.6354  136.9283  186.9058 C   0  0  0  0  0  0  0  0  0  0  0  0
  148.0187  137.4213  185.7600 C   0  0  0  0  0  0  0  0  0  0  0  0
  148.7194  137.4863  184.5822 C   0  0  0  0  0  0  0  0  0  0  0  0
  149.9917  137.0677  184.5715 N   0  0  0  0  0  0  0  0  0  0  0  0
  150.6178  136.5770  185.6960 C   0  0  0  0  0  0  0  0  0  0  0  0
  148.1071  137.9914  183.3818 N   0  0  0  0  0  0  0  0  0  0  0  0
  147.8530  137.2729  182.1601 C   0  0  0  0  0  0  0  0  0  0  0  0
  148.1470  138.2744  181.0923 C   0  0  0  0  0  0  0  0  0  0  0  0
  148.0100  139.6352  181.7679 C   0  0  0  0  0  0  0  0  0  0  0  0
  147.6373  139.3296  183.2030 C   0  0  0  0  0  0  0  0  0  0  0  0
  149.3068  139.1879  181.2202 C   0  0  0  0  0  0  0  0  0  0  0  0
  150.3245  138.7671  182.0672 F   0  0  0  0  0  0  0  0  0  0  0  0
  149.6818  139.8115  180.0361 F   0  0  0  0  0  0  0  0  0  0  0  0
  155.1932  135.7279  187.6899 C   0  0  0  0  0  0  0  0  0  0  0  0
  156.7250  135.4948  187.5657 C   0  0  0  0  0  0  0  0  0  0  0  0
  153.3539  135.4421  183.5878 N   0  0  0  0  0  0  0  0  0  0  0  0
  153.1805  136.6335  182.9910 C   0  0  0  0  0  0  0  0  0  0  0  0
  152.6710  136.6945  181.8275 O   0  0  0  0  0  0  0  0  0  0  0  0
  153.5476  137.7715  183.6235 N   0  0  0  0  0  0  0  0  0  0  0  0
  153.3439  139.0424  182.9471 C   0  0  0  0  0  0  0  0  0  0  0  0
  154.0884  137.7254  184.8522 C   0  0  0  0  0  0  0  0  0  0  0  0
  154.5416  138.6766  185.7106 N   0  0  0  0  0  0  0  0  0  0  0  0
  154.9895  138.0814  186.8236 C   0  0  0  0  0  0  0  0  0  0  0  0
  154.8307  136.7482  186.6952 N   0  0  0  0  0  0  0  0  0  0  0  0
  154.2779  136.5092  185.4892 C   0  0  0  0  0  0  0  0  0  0  0  0
  153.8961  135.3643  184.8245 C   0  0  0  0  0  0  0  0  0  0  0  0
  154.0674  134.2585  185.4009 O   0  0  0  0  0  0  0  0  0  0  0  0
  152.9684  134.1898  182.9572 C   0  0  0  0  0  0  0  0  0  0  0  0
  153.9322  133.8722  181.8856 C   0  0  0  0  0  0  0  0  0  0  0  0
  153.4519  133.7484  180.7517 O   0  0  0  0  0  0  0  0  0  0  0  0
  156.0407  133.6748  180.6884 C   0  0  0  0  0  0  0  0  0  0  0  0
  155.3883  133.6948  182.0622 C   0  0  0  0  0  0  0  0  0  0  0  0
 42 43  1  0  0  0
 43 40  1  0  0  0
 40 41  2  0  0  0
 40 39  1  0  0  0
 39 27  1  0  0  0
 27 28  1  0  0  0
 28 29  2  0  0  0
 28 30  1  0  0  0
 30 31  1  0  0  0
 30 32  1  0  0  0
 32 33  1  0  0  0
 33 34  2  0  0  0
 34 35  1  0  0  0
 35 25  1  0  0  0
 25 26  1  0  0  0
 25  1  1  0  0  0
  1  2  2  0  0  0
  1  3  1  0  0  0
  3  5  1  0  0  0
  5  6  2  0  0  0
  6  7  1  0  0  0
  7  8  2  0  0  0
  8  9  1  0  0  0
  9 10  2  0  0  0
  9 11  1  0  0  0
 11 12  2  0  0  0
 12 13  1  0  0  0
 13 14  2  0  0  0
 14 15  1  0  0  0
 15 16  2  0  0  0
 14 17  1  0  0  0
 17 18  1  0  0  0
 18 19  1  0  0  0
 19 20  1  0  0  0
 20 21  1  0  0  0
 20 22  1  0  0  0
 22 23  1  0  0  0
 22 24  1  0  0  0
 35 36  1  0  0  0
 36 37  1  0  0  0
 37 38  2  0  0  0
 37 27  1  0  0  0
 36 32  2  0  0  0
 10  5  1  0  0  0
 16 11  1  0  0  0
 21 17  1  0  0  0
 22 19  1  0  0  0
  3  4  1  0  0  0
M  END
> <minimizedAffinity>
-6.01280

> <CNNscore>
0.2317709029

> <CNNaffinity>
6.1962690353

> <CNN_VS>
1.4361149073

> <CNNaffinity_variance>
0.2958812714

$$$$
[H]c1nc(N2C([H])([H])C3([H])C(F)(F)C3([H])C2([H])[H])c([H])c([H])c1-c1nc(N([H])C(=O)[C@@]([H])(n2c([H])nc3c2c(=O)n(C([H])([H])C(=O)C([H])([H])C([H])([H])[H])c(=O)n3C([H])([H])[H])C([H])([H])[H])c([H])c([H])c1[H]


 43 48  0  0  0  0  0  0  0  0999 V2000
  153.6465  136.2622  184.2292 C   0  0  0  0  0  0  0  0  0  0  0  0
  154.4300  135.6397  183.3716 O   0  0  0  0  0  0  0  0  0  0  0  0
  152.3673  135.7625  184.2750 N   0  0  0  0  0  0  0  0  0  0  0  0
  152.1541  134.9009  183.5986 H   0  0  0  0  0  0  0  0  0  0  0  0
  151.2118  136.1431  184.9820 C   0  0  0  0  0  0  0  0  0  0  0  0
  150.1203  136.7767  184.4611 C   0  0  0  0  0  0  0  0  0  0  0  0
  149.0344  137.1363  185.2620 C   0  0  0  0  0  0  0  0  0  0  0  0
  149.1047  136.8271  186.5993 C   0  0  0  0  0  0  0  0  0  0  0  0
  150.1847  136.1902  187.1593 C   0  0  0  0  0  0  0  0  0  0  0  0
  151.1893  135.8746  186.3370 N   0  0  0  0  0  0  0  0  0  0  0  0
  150.2586  135.8615  188.5839 C   0  0  0  0  0  0  0  0  0  0  0  0
  149.1070  135.4911  189.2577 C   0  0  0  0  0  0  0  0  0  0  0  0
  149.1378  135.1718  190.6118 C   0  0  0  0  0  0  0  0  0  0  0  0
  150.3249  135.2223  191.2979 C   0  0  0  0  0  0  0  0  0  0  0  0
  151.4316  135.5821  190.6347 N   0  0  0  0  0  0  0  0  0  0  0  0
  151.4195  135.9013  189.2948 C   0  0  0  0  0  0  0  0  0  0  0  0
  150.3863  134.8975  192.6985 N   0  0  0  0  0  0  0  0  0  0  0  0
  151.2668  135.4600  193.6893 C   0  0  0  0  0  0  0  0  0  0  0  0
  151.6220  134.2934  194.5510 C   0  0  0  0  0  0  0  0  0  0  0  0
  150.5031  133.2790  194.3365 C   0  0  0  0  0  0  0  0  0  0  0  0
  149.5572  133.9343  193.3527 C   0  0  0  0  0  0  0  0  0  0  0  0
  151.8929  132.9686  193.9447 C   0  0  0  0  0  0  0  0  0  0  0  0
  152.2685  132.9750  192.6071 F   0  0  0  0  0  0  0  0  0  0  0  0
  152.5456  132.0739  194.7843 F   0  0  0  0  0  0  0  0  0  0  0  0
  154.3123  137.3382  184.9420 C   0  0  0  0  0  0  0  0  0  0  0  0
  153.4990  137.6406  186.2316 C   0  0  0  0  0  0  0  0  0  0  0  0
  157.0777  140.8598  184.4491 N   0  0  0  0  0  0  0  0  0  0  0  0
  156.6429  141.7654  183.5568 C   0  0  0  0  0  0  0  0  0  0  0  0
  157.3298  142.8098  183.3233 O   0  0  0  0  0  0  0  0  0  0  0  0
  155.4738  141.5713  182.9045 N   0  0  0  0  0  0  0  0  0  0  0  0
  155.0357  142.5723  181.9451 C   0  0  0  0  0  0  0  0  0  0  0  0
  154.7349  140.4745  183.1397 C   0  0  0  0  0  0  0  0  0  0  0  0
  153.5509  140.0219  182.6496 N   0  0  0  0  0  0  0  0  0  0  0  0
  153.2572  138.8519  183.2312 C   0  0  0  0  0  0  0  0  0  0  0  0
  154.2428  138.5397  184.0973 N   0  0  0  0  0  0  0  0  0  0  0  0
  155.1613  139.5256  184.0555 C   0  0  0  0  0  0  0  0  0  0  0  0
  156.3551  139.7459  184.7070 C   0  0  0  0  0  0  0  0  0  0  0  0
  156.7444  138.8856  185.5394 O   0  0  0  0  0  0  0  0  0  0  0  0
  158.3307  141.0144  185.1707 C   0  0  0  0  0  0  0  0  0  0  0  0
  159.4522  140.7082  184.2616 C   0  0  0  0  0  0  0  0  0  0  0  0
  159.3911  139.6154  183.6837 O   0  0  0  0  0  0  0  0  0  0  0  0
  160.5871  142.7286  185.0017 C   0  0  0  0  0  0  0  0  0  0  0  0
  160.6115  141.5856  183.9986 C   0  0  0  0  0  0  0  0  0  0  0  0
 42 43  1  0  0  0
 43 40  1  0  0  0
 40 41  2  0  0  0
 40 39  1  0  0  0
 39 27  1  0  0  0
 27 28  1  0  0  0
 28 29  2  0  0  0
 28 30  1  0  0  0
 30 31  1  0  0  0
 30 32  1  0  0  0
 32 33  1  0  0  0
 33 34  2  0  0  0
 34 35  1  0  0  0
 35 25  1  0  0  0
 25 26  1  0  0  0
 25  1  1  0  0  0
  1  2  2  0  0  0
  1  3  1  0  0  0
  3  5  1  0  0  0
  5  6  2  0  0  0
  6  7  1  0  0  0
  7  8  2  0  0  0
  8  9  1  0  0  0
  9 10  2  0  0  0
  9 11  1  0  0  0
 11 12  2  0  0  0
 12 13  1  0  0  0
 13 14  2  0  0  0
 14 15  1  0  0  0
 15 16  2  0  0  0
 14 17  1  0  0  0
 17 18  1  0  0  0
 18 19  1  0  0  0
 19 20  1  0  0  0
 20 21  1  0  0  0
 20 22  1  0  0  0
 22 23  1  0  0  0
 22 24  1  0  0  0
 35 36  1  0  0  0
 36 37  1  0  0  0
 37 38  2  0  0  0
 37 27  1  0  0  0
 36 32  2  0  0  0
 10  5  1  0  0  0
 16 11  1  0  0  0
 21 17  1  0  0  0
 22 19  1  0  0  0
  3  4  1  0  0  0
M  END
> <minimizedAffinity>
-7.16059

> <CNNscore>
0.2251733094

> <CNNaffinity>
6.2933926582

> <CNN_VS>
1.4171040058

> <CNNaffinity_variance>
0.0964839384

$$$$
[H]c1nc(N2C([H])([H])C3([H])C(F)(F)C3([H])C2([H])[H])c([H])c([H])c1-c1nc(N([H])C(=O)[C@@]([H])(n2c([H])nc3c2c(=O)n(C([H])([H])C(=O)C([H])([H])C([H])([H])[H])c(=O)n3C([H])([H])[H])C([H])([H])[H])c([H])c([H])c1[H]


 43 48  0  0  0  0  0  0  0  0999 V2000
  153.1014  136.6982  185.2814 C   0  0  0  0  0  0  0  0  0  0  0  0
  152.3631  135.8824  186.0068 O   0  0  0  0  0  0  0  0  0  0  0  0
  152.3703  137.5606  184.5003 N   0  0  0  0  0  0  0  0  0  0  0  0
  151.2608  137.4719  184.5802 H   0  0  0  0  0  0  0  0  0  0  0  0
  152.7287  138.5368  183.5525 C   0  0  0  0  0  0  0  0  0  0  0  0
  151.9798  138.9343  182.4822 C   0  0  0  0  0  0  0  0  0  0  0  0
  152.4456  139.8956  181.5827 C   0  0  0  0  0  0  0  0  0  0  0  0
  153.6903  140.4296  181.8158 C   0  0  0  0  0  0  0  0  0  0  0  0
  154.4721  140.0559  182.8811 C   0  0  0  0  0  0  0  0  0  0  0  0
  153.9666  139.1315  183.7027 N   0  0  0  0  0  0  0  0  0  0  0  0
  155.7979  140.6253  183.1283 C   0  0  0  0  0  0  0  0  0  0  0  0
  156.7283  139.8961  183.8493 C   0  0  0  0  0  0  0  0  0  0  0  0
  157.9984  140.4041  184.1045 C   0  0  0  0  0  0  0  0  0  0  0  0
  158.3424  141.6475  183.6373 C   0  0  0  0  0  0  0  0  0  0  0  0
  157.4334  142.3427  182.9413 N   0  0  0  0  0  0  0  0  0  0  0  0
  156.1720  141.8554  182.6794 C   0  0  0  0  0  0  0  0  0  0  0  0
  159.6485  142.1980  183.8862 N   0  0  0  0  0  0  0  0  0  0  0  0
  160.8903  141.4806  184.0152 C   0  0  0  0  0  0  0  0  0  0  0  0
  161.6075  142.2066  185.1053 C   0  0  0  0  0  0  0  0  0  0  0  0
  160.9838  143.5983  185.1402 C   0  0  0  0  0  0  0  0  0  0  0  0
  159.9329  143.5892  184.0505 C   0  0  0  0  0  0  0  0  0  0  0  0
  160.8697  142.6873  186.2973 C   0  0  0  0  0  0  0  0  0  0  0  0
  159.6705  142.0425  186.5737 F   0  0  0  0  0  0  0  0  0  0  0  0
  161.6769  143.0199  187.3785 F   0  0  0  0  0  0  0  0  0  0  0  0
  154.5283  136.5083  185.4731 C   0  0  0  0  0  0  0  0  0  0  0  0
  154.8248  134.9832  185.4229 C   0  0  0  0  0  0  0  0  0  0  0  0
  156.5988  134.4965  188.9312 N   0  0  0  0  0  0  0  0  0  0  0  0
  156.7059  135.2745  190.0214 C   0  0  0  0  0  0  0  0  0  0  0  0
  157.2695  134.8273  191.0699 O   0  0  0  0  0  0  0  0  0  0  0  0
  156.2146  136.5349  190.0092 N   0  0  0  0  0  0  0  0  0  0  0  0
  156.3496  137.3479  191.2070 C   0  0  0  0  0  0  0  0  0  0  0  0
  155.6152  137.0231  188.9108 C   0  0  0  0  0  0  0  0  0  0  0  0
  155.0415  138.2182  188.6116 N   0  0  0  0  0  0  0  0  0  0  0  0
  154.5854  138.1798  187.3530 C   0  0  0  0  0  0  0  0  0  0  0  0
  154.8586  136.9668  186.8306 N   0  0  0  0  0  0  0  0  0  0  0  0
  155.4919  136.2406  187.7734 C   0  0  0  0  0  0  0  0  0  0  0  0
  156.0002  134.9606  187.8106 C   0  0  0  0  0  0  0  0  0  0  0  0
  155.8892  134.2479  186.7789 O   0  0  0  0  0  0  0  0  0  0  0  0
  157.1176  133.1387  188.8873 C   0  0  0  0  0  0  0  0  0  0  0  0
  158.5844  133.1872  188.7315 C   0  0  0  0  0  0  0  0  0  0  0  0
  159.2402  132.7860  189.7014 O   0  0  0  0  0  0  0  0  0  0  0  0
  160.0915  134.9140  187.9163 C   0  0  0  0  0  0  0  0  0  0  0  0
  159.3077  133.6673  187.5360 C   0  0  0  0  0  0  0  0  0  0  0  0
 42 43  1  0  0  0
 43 40  1  0  0  0
 40 41  2  0  0  0
 40 39  1  0  0  0
 39 27  1  0  0  0
 27 28  1  0  0  0
 28 29  2  0  0  0
 28 30  1  0  0  0
 30 31  1  0  0  0
 30 32  1  0  0  0
 32 33  1  0  0  0
 33 34  2  0  0  0
 34 35  1  0  0  0
 35 25  1  0  0  0
 25 26  1  0  0  0
 25  1  1  0  0  0
  1  2  2  0  0  0
  1  3  1  0  0  0
  3  5  1  0  0  0
  5  6  2  0  0  0
  6  7  1  0  0  0
  7  8  2  0  0  0
  8  9  1  0  0  0
  9 10  2  0  0  0
  9 11  1  0  0  0
 11 12  2  0  0  0
 12 13  1  0  0  0
 13 14  2  0  0  0
 14 15  1  0  0  0
 15 16  2  0  0  0
 14 17  1  0  0  0
 17 18  1  0  0  0
 18 19  1  0  0  0
 19 20  1  0  0  0
 20 21  1  0  0  0
 20 22  1  0  0  0
 22 23  1  0  0  0
 22 24  1  0  0  0
 35 36  1  0  0  0
 36 37  1  0  0  0
 37 38  2  0  0  0
 37 27  1  0  0  0
 36 32  2  0  0  0
 10  5  1  0  0  0
 16 11  1  0  0  0
 21 17  1  0  0  0
 22 19  1  0  0  0
  3  4  1  0  0  0
M  END
> <minimizedAffinity>
-9.44803

> <CNNscore>
0.2243737727

> <CNNaffinity>
7.0874710083

> <CNN_VS>
1.5902426243

> <CNNaffinity_variance>
0.2182387859

$$$$
[H]c1nc(N2C([H])([H])C3([H])C(F)(F)C3([H])C2([H])[H])c([H])c([H])c1-c1nc(N([H])C(=O)[C@@]([H])(n2c([H])nc3c2c(=O)n(C([H])([H])C(=O)C([H])([H])C([H])([H])[H])c(=O)n3C([H])([H])[H])C([H])([H])[H])c([H])c([H])c1[H]


 43 48  0  0  0  0  0  0  0  0999 V2000
  153.5690  137.1783  188.3180 C   0  0  0  0  0  0  0  0  0  0  0  0
  152.8467  136.9778  189.4020 O   0  0  0  0  0  0  0  0  0  0  0  0
  152.8663  137.7414  187.2800 N   0  0  0  0  0  0  0  0  0  0  0  0
  151.7914  137.9637  187.4807 H   0  0  0  0  0  0  0  0  0  0  0  0
  153.2076  138.0696  185.9550 C   0  0  0  0  0  0  0  0  0  0  0  0
  152.5012  137.7375  184.8348 C   0  0  0  0  0  0  0  0  0  0  0  0
  152.9474  138.0907  183.5596 C   0  0  0  0  0  0  0  0  0  0  0  0
  154.1283  138.7883  183.4733 C   0  0  0  0  0  0  0  0  0  0  0  0
  154.8660  139.1409  184.5766 C   0  0  0  0  0  0  0  0  0  0  0  0
  154.3824  138.7716  185.7660 N   0  0  0  0  0  0  0  0  0  0  0  0
  156.1239  139.8838  184.4834 C   0  0  0  0  0  0  0  0  0  0  0  0
  156.1654  141.0641  183.7605 C   0  0  0  0  0  0  0  0  0  0  0  0
  157.3426  141.7978  183.6492 C   0  0  0  0  0  0  0  0  0  0  0  0
  158.4855  141.3510  184.2629 C   0  0  0  0  0  0  0  0  0  0  0  0
  158.4322  140.2079  184.9590 N   0  0  0  0  0  0  0  0  0  0  0  0
  157.2759  139.4693  185.0797 C   0  0  0  0  0  0  0  0  0  0  0  0
  159.7170  142.0891  184.1646 N   0  0  0  0  0  0  0  0  0  0  0  0
  161.0508  141.5560  184.0627 C   0  0  0  0  0  0  0  0  0  0  0  0
  161.8678  142.4827  184.9014 C   0  0  0  0  0  0  0  0  0  0  0  0
  161.0648  143.7779  184.9694 C   0  0  0  0  0  0  0  0  0  0  0  0
  159.8183  143.5148  184.1515 C   0  0  0  0  0  0  0  0  0  0  0  0
  161.3392  142.9913  186.1890 C   0  0  0  0  0  0  0  0  0  0  0  0
  160.3376  142.2313  186.7803 F   0  0  0  0  0  0  0  0  0  0  0  0
  162.3002  143.5409  187.0291 F   0  0  0  0  0  0  0  0  0  0  0  0
  154.9532  136.7636  188.4631 C   0  0  0  0  0  0  0  0  0  0  0  0
  155.8613  137.9372  188.0004 C   0  0  0  0  0  0  0  0  0  0  0  0
  158.2130  133.6669  188.1875 N   0  0  0  0  0  0  0  0  0  0  0  0
  158.0521  132.8044  187.1698 C   0  0  0  0  0  0  0  0  0  0  0  0
  158.9037  131.8797  186.9782 O   0  0  0  0  0  0  0  0  0  0  0  0
  156.9858  132.9163  186.3449 N   0  0  0  0  0  0  0  0  0  0  0  0
  156.8441  131.9644  185.2549 C   0  0  0  0  0  0  0  0  0  0  0  0
  156.0773  133.8878  186.5318 C   0  0  0  0  0  0  0  0  0  0  0  0
  154.9359  134.2381  185.8826 N   0  0  0  0  0  0  0  0  0  0  0  0
  154.3980  135.3032  186.4907 C   0  0  0  0  0  0  0  0  0  0  0  0
  155.1823  135.6488  187.5321 N   0  0  0  0  0  0  0  0  0  0  0  0
  156.2206  134.7900  187.5741 C   0  0  0  0  0  0  0  0  0  0  0  0
  157.3147  134.6554  188.4005 C   0  0  0  0  0  0  0  0  0  0  0  0
  157.4472  135.4738  189.3477 O   0  0  0  0  0  0  0  0  0  0  0  0
  159.3350  133.5861  189.1090 C   0  0  0  0  0  0  0  0  0  0  0  0
  159.1200  132.4560  190.0335 C   0  0  0  0  0  0  0  0  0  0  0  0
  160.0622  131.6600  190.1356 O   0  0  0  0  0  0  0  0  0  0  0  0
  158.2650  132.2234  192.2991 C   0  0  0  0  0  0  0  0  0  0  0  0
  157.8959  132.2111  190.8237 C   0  0  0  0  0  0  0  0  0  0  0  0
 42 43  1  0  0  0
 43 40  1  0  0  0
 40 41  2  0  0  0
 40 39  1  0  0  0
 39 27  1  0  0  0
 27 28  1  0  0  0
 28 29  2  0  0  0
 28 30  1  0  0  0
 30 31  1  0  0  0
 30 32  1  0  0  0
 32 33  1  0  0  0
 33 34  2  0  0  0
 34 35  1  0  0  0
 35 25  1  0  0  0
 25 26  1  0  0  0
 25  1  1  0  0  0
  1  2  2  0  0  0
  1  3  1  0  0  0
  3  5  1  0  0  0
  5  6  2  0  0  0
  6  7  1  0  0  0
  7  8  2  0  0  0
  8  9  1  0  0  0
  9 10  2  0  0  0
  9 11  1  0  0  0
 11 12  2  0  0  0
 12 13  1  0  0  0
 13 14  2  0  0  0
 14 15  1  0  0  0
 15 16  2  0  0  0
 14 17  1  0  0  0
 17 18  1  0  0  0
 18 19  1  0  0  0
 19 20  1  0  0  0
 20 21  1  0  0  0
 20 22  1  0  0  0
 22 23  1  0  0  0
 22 24  1  0  0  0
 35 36  1  0  0  0
 36 37  1  0  0  0
 37 38  2  0  0  0
 37 27  1  0  0  0
 36 32  2  0  0  0
 10  5  1  0  0  0
 16 11  1  0  0  0
 21 17  1  0  0  0
 22 19  1  0  0  0
  3  4  1  0  0  0
M  END
> <minimizedAffinity>
-8.61985

> <CNNscore>
0.2188874781

> <CNNaffinity>
6.8034195900

> <CNN_VS>
1.4891833067

> <CNNaffinity_variance>
0.3442753255

$$$$
[H]c1nc(N2C([H])([H])C3([H])C(F)(F)C3([H])C2([H])[H])c([H])c([H])c1-c1nc(N([H])C(=O)[C@@]([H])(n2c([H])nc3c2c(=O)n(C([H])([H])C(=O)C([H])([H])C([H])([H])[H])c(=O)n3C([H])([H])[H])C([H])([H])[H])c([H])c([H])c1[H]


 43 48  0  0  0  0  0  0  0  0999 V2000
  154.0212  137.6736  188.2777 C   0  0  0  0  0  0  0  0  0  0  0  0
  154.5467  138.6376  189.0068 O   0  0  0  0  0  0  0  0  0  0  0  0
  152.7327  137.3515  188.6304 N   0  0  0  0  0  0  0  0  0  0  0  0
  152.2937  137.9403  189.4705 H   0  0  0  0  0  0  0  0  0  0  0  0
  151.8281  136.3741  188.1764 C   0  0  0  0  0  0  0  0  0  0  0  0
  151.6019  135.1562  188.7507 C   0  0  0  0  0  0  0  0  0  0  0  0
  150.6984  134.2458  188.1986 C   0  0  0  0  0  0  0  0  0  0  0  0
  150.0419  134.6226  187.0515 C   0  0  0  0  0  0  0  0  0  0  0  0
  150.2422  135.8385  186.4455 C   0  0  0  0  0  0  0  0  0  0  0  0
  151.1201  136.6618  187.0254 N   0  0  0  0  0  0  0  0  0  0  0  0
  149.5424  136.2387  185.2235 C   0  0  0  0  0  0  0  0  0  0  0  0
  148.6766  137.3187  185.2575 C   0  0  0  0  0  0  0  0  0  0  0  0
  147.9936  137.7286  184.1165 C   0  0  0  0  0  0  0  0  0  0  0  0
  148.1755  137.0566  182.9342 C   0  0  0  0  0  0  0  0  0  0  0  0
  149.0156  136.0136  182.9145 N   0  0  0  0  0  0  0  0  0  0  0  0
  149.6998  135.5944  184.0341 C   0  0  0  0  0  0  0  0  0  0  0  0
  147.4823  137.4582  181.7387 N   0  0  0  0  0  0  0  0  0  0  0  0
  146.9784  136.6075  180.6919 C   0  0  0  0  0  0  0  0  0  0  0  0
  147.2581  137.3778  179.4437 C   0  0  0  0  0  0  0  0  0  0  0  0
  147.3900  138.8310  179.8886 C   0  0  0  0  0  0  0  0  0  0  0  0
  147.1721  138.8083  181.3865 C   0  0  0  0  0  0  0  0  0  0  0  0
  148.5341  138.1153  179.2881 C   0  0  0  0  0  0  0  0  0  0  0  0
  149.5903  137.6810  180.0792 F   0  0  0  0  0  0  0  0  0  0  0  0
  148.8287  138.4866  177.9816 F   0  0  0  0  0  0  0  0  0  0  0  0
  154.9211  137.1676  187.2564 C   0  0  0  0  0  0  0  0  0  0  0  0
  156.2235  138.0152  187.2957 C   0  0  0  0  0  0  0  0  0  0  0  0
  153.7369  134.3975  183.9073 N   0  0  0  0  0  0  0  0  0  0  0  0
  153.1752  135.0264  182.8612 C   0  0  0  0  0  0  0  0  0  0  0  0
  152.7957  134.3602  181.8467 O   0  0  0  0  0  0  0  0  0  0  0  0
  153.0122  136.3691  182.8817 N   0  0  0  0  0  0  0  0  0  0  0  0
  152.3996  137.0151  181.7320 C   0  0  0  0  0  0  0  0  0  0  0  0
  153.4084  137.0887  183.9444 C   0  0  0  0  0  0  0  0  0  0  0  0
  153.3749  138.4145  184.2411 N   0  0  0  0  0  0  0  0  0  0  0  0
  153.9088  138.6031  185.4548 C   0  0  0  0  0  0  0  0  0  0  0  0
  154.2901  137.4081  185.9503 N   0  0  0  0  0  0  0  0  0  0  0  0
  153.9907  136.4638  185.0360 C   0  0  0  0  0  0  0  0  0  0  0  0
  154.1459  135.0955  184.9913 C   0  0  0  0  0  0  0  0  0  0  0  0
  154.6747  134.5257  185.9814 O   0  0  0  0  0  0  0  0  0  0  0  0
  153.9270  132.9562  183.9413 C   0  0  0  0  0  0  0  0  0  0  0  0
  152.7896  132.3357  184.6481 C   0  0  0  0  0  0  0  0  0  0  0  0
  151.6950  132.8927  184.4952 O   0  0  0  0  0  0  0  0  0  0  0  0
  153.4692  131.5258  186.8390 C   0  0  0  0  0  0  0  0  0  0  0  0
  152.8599  131.1322  185.5022 C   0  0  0  0  0  0  0  0  0  0  0  0
 42 43  1  0  0  0
 43 40  1  0  0  0
 40 41  2  0  0  0
 40 39  1  0  0  0
 39 27  1  0  0  0
 27 28  1  0  0  0
 28 29  2  0  0  0
 28 30  1  0  0  0
 30 31  1  0  0  0
 30 32  1  0  0  0
 32 33  1  0  0  0
 33 34  2  0  0  0
 34 35  1  0  0  0
 35 25  1  0  0  0
 25 26  1  0  0  0
 25  1  1  0  0  0
  1  2  2  0  0  0
  1  3  1  0  0  0
  3  5  1  0  0  0
  5  6  2  0  0  0
  6  7  1  0  0  0
  7  8  2  0  0  0
  8  9  1  0  0  0
  9 10  2  0  0  0
  9 11  1  0  0  0
 11 12  2  0  0  0
 12 13  1  0  0  0
 13 14  2  0  0  0
 14 15  1  0  0  0
 15 16  2  0  0  0
 14 17  1  0  0  0
 17 18  1  0  0  0
 18 19  1  0  0  0
 19 20  1  0  0  0
 20 21  1  0  0  0
 20 22  1  0  0  0
 22 23  1  0  0  0
 22 24  1  0  0  0
 35 36  1  0  0  0
 36 37  1  0  0  0
 37 38  2  0  0  0
 37 27  1  0  0  0
 36 32  2  0  0  0
 10  5  1  0  0  0
 16 11  1  0  0  0
 21 17  1  0  0  0
 22 19  1  0  0  0
  3  4  1  0  0  0
M  END
> <minimizedAffinity>
-4.85400

> <CNNscore>
0.2178449631

> <CNNaffinity>
5.9116010666

> <CNN_VS>
1.2878124714

> <CNNaffinity_variance>
0.3414796293

$$$$
[H]c1nc(N2C([H])([H])C3([H])C(F)(F)C3([H])C2([H])[H])c([H])c([H])c1-c1nc(N([H])C(=O)[C@@]([H])(n2c([H])nc3c2c(=O)n(C([H])([H])C(=O)C([H])([H])C([H])([H])[H])c(=O)n3C([H])([H])[H])C([H])([H])[H])c([H])c([H])c1[H]


 43 48  0  0  0  0  0  0  0  0999 V2000
  153.2908  137.0406  191.1971 C   0  0  0  0  0  0  0  0  0  0  0  0
  153.2045  137.8114  192.2626 O   0  0  0  0  0  0  0  0  0  0  0  0
  152.1509  136.3165  190.9429 N   0  0  0  0  0  0  0  0  0  0  0  0
  151.3038  136.4727  191.6523 H   0  0  0  0  0  0  0  0  0  0  0  0
  151.8221  135.3511  189.9737 C   0  0  0  0  0  0  0  0  0  0  0  0
  151.8987  133.9965  190.1268 C   0  0  0  0  0  0  0  0  0  0  0  0
  151.5740  133.1251  189.0850 C   0  0  0  0  0  0  0  0  0  0  0  0
  151.1720  133.6834  187.8953 C   0  0  0  0  0  0  0  0  0  0  0  0
  151.0818  135.0402  187.7036 C   0  0  0  0  0  0  0  0  0  0  0  0
  151.4073  135.8168  188.7408 N   0  0  0  0  0  0  0  0  0  0  0  0
  150.6537  135.6338  186.4358 C   0  0  0  0  0  0  0  0  0  0  0  0
  150.9327  134.9780  185.2485 C   0  0  0  0  0  0  0  0  0  0  0  0
  150.5420  135.5111  184.0240 C   0  0  0  0  0  0  0  0  0  0  0  0
  149.8687  136.7059  183.9837 C   0  0  0  0  0  0  0  0  0  0  0  0
  149.6050  137.3303  185.1390 N   0  0  0  0  0  0  0  0  0  0  0  0
  149.9842  136.8172  186.3597 C   0  0  0  0  0  0  0  0  0  0  0  0
  149.4526  137.2808  182.7317 N   0  0  0  0  0  0  0  0  0  0  0  0
  149.8069  136.8421  181.4068 C   0  0  0  0  0  0  0  0  0  0  0  0
  149.9861  138.1156  180.6479 C   0  0  0  0  0  0  0  0  0  0  0  0
  149.1921  139.1617  181.4239 C   0  0  0  0  0  0  0  0  0  0  0  0
  148.5935  138.4153  182.5970 C   0  0  0  0  0  0  0  0  0  0  0  0
  150.6575  139.2762  181.2790 C   0  0  0  0  0  0  0  0  0  0  0  0
  151.4981  138.9883  182.3471 F   0  0  0  0  0  0  0  0  0  0  0  0
  151.0768  140.2545  180.3855 F   0  0  0  0  0  0  0  0  0  0  0  0
  154.5735  137.1320  190.5223 C   0  0  0  0  0  0  0  0  0  0  0  0
  155.3295  138.3682  191.0847 C   0  0  0  0  0  0  0  0  0  0  0  0
  154.9796  134.5790  186.8331 N   0  0  0  0  0  0  0  0  0  0  0  0
  154.6279  135.2099  185.7001 C   0  0  0  0  0  0  0  0  0  0  0  0
  154.6968  134.6020  184.5852 O   0  0  0  0  0  0  0  0  0  0  0  0
  154.2006  136.4927  185.7398 N   0  0  0  0  0  0  0  0  0  0  0  0
  153.8274  137.1426  184.4937 C   0  0  0  0  0  0  0  0  0  0  0  0
  154.1228  137.1504  186.9084 C   0  0  0  0  0  0  0  0  0  0  0  0
  153.7409  138.4093  187.2493 N   0  0  0  0  0  0  0  0  0  0  0  0
  153.8550  138.5552  188.5757 C   0  0  0  0  0  0  0  0  0  0  0  0
  154.3091  137.3988  189.1007 N   0  0  0  0  0  0  0  0  0  0  0  0
  154.4800  136.5221  188.0911 C   0  0  0  0  0  0  0  0  0  0  0  0
  154.9120  135.2155  188.0246 C   0  0  0  0  0  0  0  0  0  0  0  0
  155.2372  134.6429  189.0974 O   0  0  0  0  0  0  0  0  0  0  0  0
  155.4364  133.1985  186.8483 C   0  0  0  0  0  0  0  0  0  0  0  0
  156.8618  133.1574  186.4681 C   0  0  0  0  0  0  0  0  0  0  0  0
  157.1243  132.5210  185.4396 O   0  0  0  0  0  0  0  0  0  0  0  0
  159.0264  132.7496  187.5007 C   0  0  0  0  0  0  0  0  0  0  0  0
  157.9683  133.8015  187.2054 C   0  0  0  0  0  0  0  0  0  0  0  0
 42 43  1  0  0  0
 43 40  1  0  0  0
 40 41  2  0  0  0
 40 39  1  0  0  0
 39 27  1  0  0  0
 27 28  1  0  0  0
 28 29  2  0  0  0
 28 30  1  0  0  0
 30 31  1  0  0  0
 30 32  1  0  0  0
 32 33  1  0  0  0
 33 34  2  0  0  0
 34 35  1  0  0  0
 35 25  1  0  0  0
 25 26  1  0  0  0
 25  1  1  0  0  0
  1  2  2  0  0  0
  1  3  1  0  0  0
  3  5  1  0  0  0
  5  6  2  0  0  0
  6  7  1  0  0  0
  7  8  2  0  0  0
  8  9  1  0  0  0
  9 10  2  0  0  0
  9 11  1  0  0  0
 11 12  2  0  0  0
 12 13  1  0  0  0
 13 14  2  0  0  0
 14 15  1  0  0  0
 15 16  2  0  0  0
 14 17  1  0  0  0
 17 18  1  0  0  0
 18 19  1  0  0  0
 19 20  1  0  0  0
 20 21  1  0  0  0
 20 22  1  0  0  0
 22 23  1  0  0  0
 22 24  1  0  0  0
 35 36  1  0  0  0
 36 37  1  0  0  0
 37 38  2  0  0  0
 37 27  1  0  0  0
 36 32  2  0  0  0
 10  5  1  0  0  0
 16 11  1  0  0  0
 21 17  1  0  0  0
 22 19  1  0  0  0
  3  4  1  0  0  0
M  END
> <minimizedAffinity>
-5.65648

> <CNNscore>
0.2020585835

> <CNNaffinity>
5.9690403938

> <CNN_VS>
1.2060958147

> <CNNaffinity_variance>
0.3592705429

$$$$
[H]c1sc(N([H])C(=O)C([H])([H])c2c([H])c([H])c([H])c3c2c(=O)n(C([H])([H])[H])c(=O)n3C([H])([H])[H])nc1-c1c([H])c([H])c([H])c(Cl)c1F


 32 35  0  0  0  0  0  0  0  0999 V2000
  154.0159  138.0101  186.5945 C   0  0  0  0  0  0  0  0  0  0  0  0
  153.4935  139.1771  186.7051 O   0  0  0  0  0  0  0  0  0  0  0  0
  155.1658  137.8448  185.7806 N   0  0  0  0  0  0  0  0  0  0  0  0
  155.6110  136.9298  185.6665 H   0  0  0  0  0  0  0  0  0  0  0  0
  155.7047  139.0026  185.1148 C   0  0  0  0  0  0  0  0  0  0  0  0
  156.8974  139.5000  185.1497 N   0  0  0  0  0  0  0  0  0  0  0  0
  157.2210  140.5702  184.4806 C   0  0  0  0  0  0  0  0  0  0  0  0
  156.2320  141.1489  183.7321 C   0  0  0  0  0  0  0  0  0  0  0  0
  154.9000  140.0814  184.0645 S   0  0  0  0  0  0  0  0  0  0  0  0
  158.5980  141.1100  184.5411 C   0  0  0  0  0  0  0  0  0  0  0  0
  159.3969  141.0035  183.4261 C   0  0  0  0  0  0  0  0  0  0  0  0
  160.7052  141.4616  183.3519 C   0  0  0  0  0  0  0  0  0  0  0  0
  161.2342  142.0585  184.4617 C   0  0  0  0  0  0  0  0  0  0  0  0
  160.4715  142.1823  185.5875 C   0  0  0  0  0  0  0  0  0  0  0  0
  161.1127  142.9340  187.0114 Cl  0  0  0  0  0  0  0  0  0  0  0  0
  159.1455  141.7074  185.6338 C   0  0  0  0  0  0  0  0  0  0  0  0
  158.4462  141.8564  186.7789 F   0  0  0  0  0  0  0  0  0  0  0  0
  153.4180  136.8535  187.3130 C   0  0  0  0  0  0  0  0  0  0  0  0
  152.1235  136.9603  193.3694 C   0  0  0  0  0  0  0  0  0  0  0  0
  151.8509  136.6284  191.9875 N   0  0  0  0  0  0  0  0  0  0  0  0
  152.7588  136.9796  191.0527 C   0  0  0  0  0  0  0  0  0  0  0  0
  153.9199  137.6308  191.4538 C   0  0  0  0  0  0  0  0  0  0  0  0
  154.8931  138.0062  190.5589 C   0  0  0  0  0  0  0  0  0  0  0  0
  154.7093  137.7289  189.2299 C   0  0  0  0  0  0  0  0  0  0  0  0
  153.5533  137.0706  188.7527 C   0  0  0  0  0  0  0  0  0  0  0  0
  152.5976  136.7070  189.6814 C   0  0  0  0  0  0  0  0  0  0  0  0
  151.4434  136.0457  189.3088 C   0  0  0  0  0  0  0  0  0  0  0  0
  151.2288  135.7672  188.1278 O   0  0  0  0  0  0  0  0  0  0  0  0
  150.5539  135.7089  190.2760 N   0  0  0  0  0  0  0  0  0  0  0  0
  149.3537  135.0154  189.8355 C   0  0  0  0  0  0  0  0  0  0  0  0
  150.7469  135.9889  191.5734 C   0  0  0  0  0  0  0  0  0  0  0  0
  149.8693  135.6431  192.4262 O   0  0  0  0  0  0  0  0  0  0  0  0
 19 20  1  0  0  0
 20 21  1  0  0  0
 21 22  2  0  0  0
 22 23  1  0  0  0
 23 24  2  0  0  0
 24 25  1  0  0  0
 25 18  1  0  0  0
 18  1  1  0  0  0
  1  2  2  0  0  0
  1  3  1  0  0  0
  3  5  1  0  0  0
  5  6  2  0  0  0
  6  7  1  0  0  0
  7  8  2  0  0  0
  8  9  1  0  0  0
  7 10  1  0  0  0
 10 11  2  0  0  0
 11 12  1  0  0  0
 12 13  2  0  0  0
 13 14  1  0  0  0
 14 15  1  0  0  0
 14 16  2  0  0  0
 16 17  1  0  0  0
 25 26  2  0  0  0
 26 27  1  0  0  0
 27 28  2  0  0  0
 27 29  1  0  0  0
 29 30  1  0  0  0
 29 31  1  0  0  0
 31 32  2  0  0  0
 31 20  1  0  0  0
 26 21  1  0  0  0
  9  5  1  0  0  0
 16 10  1  0  0  0
  3  4  1  0  0  0
M  END
> <minimizedAffinity>
-8.54500

> <CNNscore>
0.4978160858

> <CNNaffinity>
6.3448238373

> <CNN_VS>
3.1585552692

> <CNNaffinity_variance>
0.0763444826

$$$$
[H]c1sc(N([H])C(=O)C([H])([H])c2c([H])c([H])c([H])c3c2c(=O)n(C([H])([H])[H])c(=O)n3C([H])([H])[H])nc1-c1c([H])c([H])c([H])c(Cl)c1F


 32 35  0  0  0  0  0  0  0  0999 V2000
  153.3145  136.7988  186.4384 C   0  0  0  0  0  0  0  0  0  0  0  0
  152.3591  137.6479  186.5544 O   0  0  0  0  0  0  0  0  0  0  0  0
  154.1903  136.8952  185.3268 N   0  0  0  0  0  0  0  0  0  0  0  0
  154.9635  136.2365  185.1987 H   0  0  0  0  0  0  0  0  0  0  0  0
  153.9721  137.9530  184.3739 C   0  0  0  0  0  0  0  0  0  0  0  0
  153.0606  138.0770  183.4656 N   0  0  0  0  0  0  0  0  0  0  0  0
  153.0083  139.1104  182.6738 C   0  0  0  0  0  0  0  0  0  0  0  0
  153.9709  140.0675  182.8491 C   0  0  0  0  0  0  0  0  0  0  0  0
  154.8820  139.3818  184.1620 S   0  0  0  0  0  0  0  0  0  0  0  0
  151.9478  139.2210  181.6471 C   0  0  0  0  0  0  0  0  0  0  0  0
  152.2663  139.7729  180.4279 C   0  0  0  0  0  0  0  0  0  0  0  0
  151.3672  139.9400  179.3834 C   0  0  0  0  0  0  0  0  0  0  0  0
  150.0792  139.5278  179.5807 C   0  0  0  0  0  0  0  0  0  0  0  0
  149.7254  138.9750  180.7781 C   0  0  0  0  0  0  0  0  0  0  0  0
  148.1004  138.4426  181.0602 Cl  0  0  0  0  0  0  0  0  0  0  0  0
  150.6602  138.8181  181.8210 C   0  0  0  0  0  0  0  0  0  0  0  0
  150.2454  138.2685  182.9822 F   0  0  0  0  0  0  0  0  0  0  0  0
  153.4936  135.7326  187.4594 C   0  0  0  0  0  0  0  0  0  0  0  0
  152.1457  137.5760  193.2173 C   0  0  0  0  0  0  0  0  0  0  0  0
  151.8855  136.8592  191.9874 N   0  0  0  0  0  0  0  0  0  0  0  0
  152.8014  136.9289  190.9986 C   0  0  0  0  0  0  0  0  0  0  0  0
  153.9586  137.6716  191.2046 C   0  0  0  0  0  0  0  0  0  0  0  0
  154.9393  137.7762  190.2476 C   0  0  0  0  0  0  0  0  0  0  0  0
  154.7675  137.1271  189.0535 C   0  0  0  0  0  0  0  0  0  0  0  0
  153.6160  136.3557  188.7766 C   0  0  0  0  0  0  0  0  0  0  0  0
  152.6524  136.2722  189.7627 C   0  0  0  0  0  0  0  0  0  0  0  0
  151.5019  135.5282  189.5869 C   0  0  0  0  0  0  0  0  0  0  0  0
  151.2978  134.9205  188.5345 O   0  0  0  0  0  0  0  0  0  0  0  0
  150.6040  135.4816  190.6028 N   0  0  0  0  0  0  0  0  0  0  0  0
  149.4082  134.6869  190.3709 C   0  0  0  0  0  0  0  0  0  0  0  0
  150.7854  136.1242  191.7660 C   0  0  0  0  0  0  0  0  0  0  0  0
  149.9006  136.0361  192.6750 O   0  0  0  0  0  0  0  0  0  0  0  0
 19 20  1  0  0  0
 20 21  1  0  0  0
 21 22  2  0  0  0
 22 23  1  0  0  0
 23 24  2  0  0  0
 24 25  1  0  0  0
 25 18  1  0  0  0
 18  1  1  0  0  0
  1  2  2  0  0  0
  1  3  1  0  0  0
  3  5  1  0  0  0
  5  6  2  0  0  0
  6  7  1  0  0  0
  7  8  2  0  0  0
  8  9  1  0  0  0
  7 10  1  0  0  0
 10 11  2  0  0  0
 11 12  1  0  0  0
 12 13  2  0  0  0
 13 14  1  0  0  0
 14 15  1  0  0  0
 14 16  2  0  0  0
 16 17  1  0  0  0
 25 26  2  0  0  0
 26 27  1  0  0  0
 27 28  2  0  0  0
 27 29  1  0  0  0
 29 30  1  0  0  0
 29 31  1  0  0  0
 31 32  2  0  0  0
 31 20  1  0  0  0
 26 21  1  0  0  0
  9  5  1  0  0  0
 16 10  1  0  0  0
  3  4  1  0  0  0
M  END
> <minimizedAffinity>
-7.51640

> <CNNscore>
0.4463475943

> <CNNaffinity>
5.8018188477

> <CNN_VS>
2.5896279812

> <CNNaffinity_variance>
0.1569761485

$$$$
[H]c1sc(N([H])C(=O)C([H])([H])c2c([H])c([H])c([H])c3c2c(=O)n(C([H])([H])[H])c(=O)n3C([H])([H])[H])nc1-c1c([H])c([H])c([H])c(Cl)c1F


 32 35  0  0  0  0  0  0  0  0999 V2000
  154.5362  138.6251  185.6984 C   0  0  0  0  0  0  0  0  0  0  0  0
  153.9481  139.5729  185.0636 O   0  0  0  0  0  0  0  0  0  0  0  0
  155.9524  138.5506  185.6673 N   0  0  0  0  0  0  0  0  0  0  0  0
  156.4580  137.8092  186.1603 H   0  0  0  0  0  0  0  0  0  0  0  0
  156.6739  139.5524  184.9256 C   0  0  0  0  0  0  0  0  0  0  0  0
  157.8479  140.0527  185.1316 N   0  0  0  0  0  0  0  0  0  0  0  0
  158.3569  140.9668  184.3551 C   0  0  0  0  0  0  0  0  0  0  0  0
  157.5852  141.3769  183.3017 C   0  0  0  0  0  0  0  0  0  0  0  0
  156.1698  140.3921  183.5273 S   0  0  0  0  0  0  0  0  0  0  0  0
  159.7065  141.5146  184.6191 C   0  0  0  0  0  0  0  0  0  0  0  0
  160.6962  141.3058  183.6866 C   0  0  0  0  0  0  0  0  0  0  0  0
  162.0021  141.7592  183.8136 C   0  0  0  0  0  0  0  0  0  0  0  0
  162.3251  142.4606  184.9413 C   0  0  0  0  0  0  0  0  0  0  0  0
  161.3692  142.6878  185.8895 C   0  0  0  0  0  0  0  0  0  0  0  0
  161.7466  143.5733  187.3307 Cl  0  0  0  0  0  0  0  0  0  0  0  0
  160.0509  142.2148  185.7334 C   0  0  0  0  0  0  0  0  0  0  0  0
  159.1541  142.4693  186.7098 F   0  0  0  0  0  0  0  0  0  0  0  0
  153.7368  137.6239  186.4533 C   0  0  0  0  0  0  0  0  0  0  0  0
  156.6202  135.3205  191.4279 C   0  0  0  0  0  0  0  0  0  0  0  0
  156.1954  135.2971  190.0448 N   0  0  0  0  0  0  0  0  0  0  0  0
  155.4733  136.3376  189.5783 C   0  0  0  0  0  0  0  0  0  0  0  0
  155.1792  137.3911  190.4367 C   0  0  0  0  0  0  0  0  0  0  0  0
  154.4600  138.4881  190.0269 C   0  0  0  0  0  0  0  0  0  0  0  0
  154.0198  138.5415  188.7306 C   0  0  0  0  0  0  0  0  0  0  0  0
  154.2819  137.5061  187.8050 C   0  0  0  0  0  0  0  0  0  0  0  0
  155.0089  136.4202  188.2522 C   0  0  0  0  0  0  0  0  0  0  0  0
  155.3264  135.3690  187.4141 C   0  0  0  0  0  0  0  0  0  0  0  0
  154.9600  135.3670  186.2375 O   0  0  0  0  0  0  0  0  0  0  0  0
  156.0535  134.3407  187.9183 N   0  0  0  0  0  0  0  0  0  0  0  0
  156.3621  133.2569  186.9987 C   0  0  0  0  0  0  0  0  0  0  0  0
  156.4760  134.3017  189.1906 C   0  0  0  0  0  0  0  0  0  0  0  0
  157.1540  133.3049  189.5953 O   0  0  0  0  0  0  0  0  0  0  0  0
 19 20  1  0  0  0
 20 21  1  0  0  0
 21 22  2  0  0  0
 22 23  1  0  0  0
 23 24  2  0  0  0
 24 25  1  0  0  0
 25 18  1  0  0  0
 18  1  1  0  0  0
  1  2  2  0  0  0
  1  3  1  0  0  0
  3  5  1  0  0  0
  5  6  2  0  0  0
  6  7  1  0  0  0
  7  8  2  0  0  0
  8  9  1  0  0  0
  7 10  1  0  0  0
 10 11  2  0  0  0
 11 12  1  0  0  0
 12 13  2  0  0  0
 13 14  1  0  0  0
 14 15  1  0  0  0
 14 16  2  0  0  0
 16 17  1  0  0  0
 25 26  2  0  0  0
 26 27  1  0  0  0
 27 28  2  0  0  0
 27 29  1  0  0  0
 29 30  1  0  0  0
 29 31  1  0  0  0
 31 32  2  0  0  0
 31 20  1  0  0  0
 26 21  1  0  0  0
  9  5  1  0  0  0
 16 10  1  0  0  0
  3  4  1  0  0  0
M  END
> <minimizedAffinity>
-8.70697

> <CNNscore>
0.4071027637

> <CNNaffinity>
6.6244344711

> <CNN_VS>
2.6968255043

> <CNNaffinity_variance>
0.0783241019

$$$$
[H]c1sc(N([H])C(=O)C([H])([H])c2c([H])c([H])c([H])c3c2c(=O)n(C([H])([H])[H])c(=O)n3C([H])([H])[H])nc1-c1c([H])c([H])c([H])c(Cl)c1F


 32 35  0  0  0  0  0  0  0  0999 V2000
  154.9176  141.6295  182.2791 C   0  0  0  0  0  0  0  0  0  0  0  0
  155.2590  142.8060  182.6619 O   0  0  0  0  0  0  0  0  0  0  0  0
  155.9276  140.6615  182.0448 N   0  0  0  0  0  0  0  0  0  0  0  0
  155.6955  139.7126  181.7381 H   0  0  0  0  0  0  0  0  0  0  0  0
  157.3009  141.0413  182.2546 C   0  0  0  0  0  0  0  0  0  0  0  0
  157.9210  141.3429  183.3481 N   0  0  0  0  0  0  0  0  0  0  0  0
  159.1816  141.6719  183.3609 C   0  0  0  0  0  0  0  0  0  0  0  0
  159.8255  141.6836  182.1532 C   0  0  0  0  0  0  0  0  0  0  0  0
  158.5350  141.2115  181.0874 S   0  0  0  0  0  0  0  0  0  0  0  0
  159.8606  142.0077  184.6327 C   0  0  0  0  0  0  0  0  0  0  0  0
  159.0895  142.2910  185.7363 C   0  0  0  0  0  0  0  0  0  0  0  0
  159.5984  142.6256  186.9838 C   0  0  0  0  0  0  0  0  0  0  0  0
  160.9569  142.6765  187.1239 C   0  0  0  0  0  0  0  0  0  0  0  0
  161.7550  142.4015  186.0507 C   0  0  0  0  0  0  0  0  0  0  0  0
  163.4811  142.4576  186.1954 Cl  0  0  0  0  0  0  0  0  0  0  0  0
  161.2099  142.0646  184.7955 C   0  0  0  0  0  0  0  0  0  0  0  0
  162.0537  141.8084  183.7733 F   0  0  0  0  0  0  0  0  0  0  0  0
  153.4816  141.2945  182.0869 C   0  0  0  0  0  0  0  0  0  0  0  0
  150.9752  135.7231  183.1092 C   0  0  0  0  0  0  0  0  0  0  0  0
  151.1421  136.9583  182.3740 N   0  0  0  0  0  0  0  0  0  0  0  0
  152.0395  137.8583  182.8281 C   0  0  0  0  0  0  0  0  0  0  0  0
  152.7737  137.5590  183.9703 C   0  0  0  0  0  0  0  0  0  0  0  0
  153.7130  138.4220  184.4818 C   0  0  0  0  0  0  0  0  0  0  0  0
  153.9297  139.6147  183.8435 C   0  0  0  0  0  0  0  0  0  0  0  0
  153.2189  139.9834  182.6789 C   0  0  0  0  0  0  0  0  0  0  0  0
  152.2840  139.0903  182.1930 C   0  0  0  0  0  0  0  0  0  0  0  0
  151.5537  139.3589  181.0516 C   0  0  0  0  0  0  0  0  0  0  0  0
  151.7112  140.4143  180.4353 O   0  0  0  0  0  0  0  0  0  0  0  0
  150.6609  138.4307  180.6255 N   0  0  0  0  0  0  0  0  0  0  0  0
  149.9151  138.7585  179.4206 C   0  0  0  0  0  0  0  0  0  0  0  0
  150.4584  137.2678  181.2623 C   0  0  0  0  0  0  0  0  0  0  0  0
  149.6042  136.4439  180.8056 O   0  0  0  0  0  0  0  0  0  0  0  0
 19 20  1  0  0  0
 20 21  1  0  0  0
 21 22  2  0  0  0
 22 23  1  0  0  0
 23 24  2  0  0  0
 24 25  1  0  0  0
 25 18  1  0  0  0
 18  1  1  0  0  0
  1  2  2  0  0  0
  1  3  1  0  0  0
  3  5  1  0  0  0
  5  6  2  0  0  0
  6  7  1  0  0  0
  7  8  2  0  0  0
  8  9  1  0  0  0
  7 10  1  0  0  0
 10 11  2  0  0  0
 11 12  1  0  0  0
 12 13  2  0  0  0
 13 14  1  0  0  0
 14 15  1  0  0  0
 14 16  2  0  0  0
 16 17  1  0  0  0
 25 26  2  0  0  0
 26 27  1  0  0  0
 27 28  2  0  0  0
 27 29  1  0  0  0
 29 30  1  0  0  0
 29 31  1  0  0  0
 31 32  2  0  0  0
 31 20  1  0  0  0
 26 21  1  0  0  0
  9  5  1  0  0  0
 16 10  1  0  0  0
  3  4  1  0  0  0
M  END
> <minimizedAffinity>
-9.75372

> <CNNscore>
0.3630389571

> <CNNaffinity>
6.6042947769

> <CNN_VS>
2.3976163864

> <CNNaffinity_variance>
0.0716762990

$$$$
[H]c1sc(N([H])C(=O)C([H])([H])c2c([H])c([H])c([H])c3c2c(=O)n(C([H])([H])[H])c(=O)n3C([H])([H])[H])nc1-c1c([H])c([H])c([H])c(Cl)c1F


 32 35  0  0  0  0  0  0  0  0999 V2000
  152.4364  139.1747  181.1543 C   0  0  0  0  0  0  0  0  0  0  0  0
  152.7013  139.9185  180.1425 O   0  0  0  0  0  0  0  0  0  0  0  0
  153.0734  139.4444  182.3926 N   0  0  0  0  0  0  0  0  0  0  0  0
  152.8890  138.8735  183.2223 H   0  0  0  0  0  0  0  0  0  0  0  0
  153.9906  140.5527  182.4630 C   0  0  0  0  0  0  0  0  0  0  0  0
  155.2744  140.5592  182.6140 N   0  0  0  0  0  0  0  0  0  0  0  0
  155.9603  141.6660  182.6608 C   0  0  0  0  0  0  0  0  0  0  0  0
  155.2534  142.8320  182.5413 C   0  0  0  0  0  0  0  0  0  0  0  0
  153.6349  142.2197  182.3694 S   0  0  0  0  0  0  0  0  0  0  0  0
  157.4304  141.6358  182.8311 C   0  0  0  0  0  0  0  0  0  0  0  0
  158.2173  141.4132  181.7247 C   0  0  0  0  0  0  0  0  0  0  0  0
  159.6041  141.3548  181.7473 C   0  0  0  0  0  0  0  0  0  0  0  0
  160.2287  141.5307  182.9501 C   0  0  0  0  0  0  0  0  0  0  0  0
  159.4809  141.7538  184.0706 C   0  0  0  0  0  0  0  0  0  0  0  0
  160.2423  141.9804  185.6109 Cl  0  0  0  0  0  0  0  0  0  0  0  0
  158.0736  141.8078  184.0173 C   0  0  0  0  0  0  0  0  0  0  0  0
  157.3924  142.0274  185.1619 F   0  0  0  0  0  0  0  0  0  0  0  0
  151.4741  138.0488  181.0215 C   0  0  0  0  0  0  0  0  0  0  0  0
  146.8185  138.3400  185.0968 C   0  0  0  0  0  0  0  0  0  0  0  0
  148.1185  137.9006  184.6376 N   0  0  0  0  0  0  0  0  0  0  0  0
  148.5506  138.3271  183.4322 C   0  0  0  0  0  0  0  0  0  0  0  0
  147.7397  139.1779  182.6894 C   0  0  0  0  0  0  0  0  0  0  0  0
  148.1205  139.6614  181.4606 C   0  0  0  0  0  0  0  0  0  0  0  0
  149.3383  139.2906  180.9544 C   0  0  0  0  0  0  0  0  0  0  0  0
  150.2121  138.4287  181.6551 C   0  0  0  0  0  0  0  0  0  0  0  0
  149.7965  137.9638  182.8875 C   0  0  0  0  0  0  0  0  0  0  0  0
  150.5910  137.1302  183.6504 C   0  0  0  0  0  0  0  0  0  0  0  0
  151.6974  136.7686  183.2460 O   0  0  0  0  0  0  0  0  0  0  0  0
  150.1234  136.7218  184.8566 N   0  0  0  0  0  0  0  0  0  0  0  0
  150.9945  135.8445  185.6228 C   0  0  0  0  0  0  0  0  0  0  0  0
  148.9276  137.0920  185.3382 C   0  0  0  0  0  0  0  0  0  0  0  0
  148.5533  136.6700  186.4779 O   0  0  0  0  0  0  0  0  0  0  0  0
 19 20  1  0  0  0
 20 21  1  0  0  0
 21 22  2  0  0  0
 22 23  1  0  0  0
 23 24  2  0  0  0
 24 25  1  0  0  0
 25 18  1  0  0  0
 18  1  1  0  0  0
  1  2  2  0  0  0
  1  3  1  0  0  0
  3  5  1  0  0  0
  5  6  2  0  0  0
  6  7  1  0  0  0
  7  8  2  0  0  0
  8  9  1  0  0  0
  7 10  1  0  0  0
 10 11  2  0  0  0
 11 12  1  0  0  0
 12 13  2  0  0  0
 13 14  1  0  0  0
 14 15  1  0  0  0
 14 16  2  0  0  0
 16 17  1  0  0  0
 25 26  2  0  0  0
 26 27  1  0  0  0
 27 28  2  0  0  0
 27 29  1  0  0  0
 29 30  1  0  0  0
 29 31  1  0  0  0
 31 32  2  0  0  0
 31 20  1  0  0  0
 26 21  1  0  0  0
  9  5  1  0  0  0
 16 10  1  0  0  0
  3  4  1  0  0  0
M  END
> <minimizedAffinity>
-8.15721

> <CNNscore>
0.3613204658

> <CNNaffinity>
6.4249129295

> <CNN_VS>
2.3214526176

> <CNNaffinity_variance>
0.0532050021

$$$$
[H]c1sc(N([H])C(=O)C([H])([H])c2c([H])c([H])c([H])c3c2c(=O)n(C([H])([H])[H])c(=O)n3C([H])([H])[H])nc1-c1c([H])c([H])c([H])c(Cl)c1F


 32 35  0  0  0  0  0  0  0  0999 V2000
  153.8695  137.6490  186.6309 C   0  0  0  0  0  0  0  0  0  0  0  0
  153.2771  138.7632  186.8651 O   0  0  0  0  0  0  0  0  0  0  0  0
  154.7969  137.5741  185.5602 N   0  0  0  0  0  0  0  0  0  0  0  0
  155.2889  136.7033  185.3412 H   0  0  0  0  0  0  0  0  0  0  0  0
  155.0400  138.7611  184.7815 C   0  0  0  0  0  0  0  0  0  0  0  0
  156.0860  139.5189  184.7282 N   0  0  0  0  0  0  0  0  0  0  0  0
  156.1399  140.5714  183.9621 C   0  0  0  0  0  0  0  0  0  0  0  0
  155.0289  140.8405  183.2094 C   0  0  0  0  0  0  0  0  0  0  0  0
  153.9867  139.5306  183.6804 S   0  0  0  0  0  0  0  0  0  0  0  0
  157.3559  141.4146  183.9234 C   0  0  0  0  0  0  0  0  0  0  0  0
  158.2883  141.2725  184.9250 C   0  0  0  0  0  0  0  0  0  0  0  0
  159.4654  142.0034  185.0104 C   0  0  0  0  0  0  0  0  0  0  0  0
  159.7139  142.9257  184.0330 C   0  0  0  0  0  0  0  0  0  0  0  0
  158.8116  143.0951  183.0223 C   0  0  0  0  0  0  0  0  0  0  0  0
  159.0969  144.2564  181.7680 Cl  0  0  0  0  0  0  0  0  0  0  0  0
  157.6241  142.3385  182.9616 C   0  0  0  0  0  0  0  0  0  0  0  0
  156.7710  142.5575  181.9385 F   0  0  0  0  0  0  0  0  0  0  0  0
  153.5822  136.4589  187.4750 C   0  0  0  0  0  0  0  0  0  0  0  0
  152.0901  137.3506  193.4203 C   0  0  0  0  0  0  0  0  0  0  0  0
  151.8501  136.8643  192.0787 N   0  0  0  0  0  0  0  0  0  0  0  0
  152.8034  137.0637  191.1443 C   0  0  0  0  0  0  0  0  0  0  0  0
  153.9775  137.7130  191.5090 C   0  0  0  0  0  0  0  0  0  0  0  0
  154.9956  137.9388  190.6139 C   0  0  0  0  0  0  0  0  0  0  0  0
  154.8449  137.5095  189.3217 C   0  0  0  0  0  0  0  0  0  0  0  0
  153.6782  136.8438  188.8825 C   0  0  0  0  0  0  0  0  0  0  0  0
  152.6769  136.6331  189.8103 C   0  0  0  0  0  0  0  0  0  0  0  0
  151.5083  135.9771  189.4754 C   0  0  0  0  0  0  0  0  0  0  0  0
  151.3217  135.5658  188.3289 O   0  0  0  0  0  0  0  0  0  0  0  0
  150.5729  135.7951  190.4409 N   0  0  0  0  0  0  0  0  0  0  0  0
  149.3593  135.1005  190.0405 C   0  0  0  0  0  0  0  0  0  0  0  0
  150.7340  136.2228  191.7018 C   0  0  0  0  0  0  0  0  0  0  0  0
  149.8140  136.0175  192.5553 O   0  0  0  0  0  0  0  0  0  0  0  0
 19 20  1  0  0  0
 20 21  1  0  0  0
 21 22  2  0  0  0
 22 23  1  0  0  0
 23 24  2  0  0  0
 24 25  1  0  0  0
 25 18  1  0  0  0
 18  1  1  0  0  0
  1  2  2  0  0  0
  1  3  1  0  0  0
  3  5  1  0  0  0
  5  6  2  0  0  0
  6  7  1  0  0  0
  7  8  2  0  0  0
  8  9  1  0  0  0
  7 10  1  0  0  0
 10 11  2  0  0  0
 11 12  1  0  0  0
 12 13  2  0  0  0
 13 14  1  0  0  0
 14 15  1  0  0  0
 14 16  2  0  0  0
 16 17  1  0  0  0
 25 26  2  0  0  0
 26 27  1  0  0  0
 27 28  2  0  0  0
 27 29  1  0  0  0
 29 30  1  0  0  0
 29 31  1  0  0  0
 31 32  2  0  0  0
 31 20  1  0  0  0
 26 21  1  0  0  0
  9  5  1  0  0  0
 16 10  1  0  0  0
  3  4  1  0  0  0
M  END
> <minimizedAffinity>
-8.36254

> <CNNscore>
0.3610126972

> <CNNaffinity>
6.0371451378

> <CNN_VS>
2.1794860363

> <CNNaffinity_variance>
0.1181638688

$$$$
[H]c1sc(N([H])C(=O)C([H])([H])c2c([H])c([H])c([H])c3c2c(=O)n(C([H])([H])[H])c(=O)n3C([H])([H])[H])nc1-c1c([H])c([H])c([H])c(Cl)c1F


 32 35  0  0  0  0  0  0  0  0999 V2000
  152.7143  138.4346  182.8764 C   0  0  0  0  0  0  0  0  0  0  0  0
  153.5666  137.4988  182.6643 O   0  0  0  0  0  0  0  0  0  0  0  0
  153.1842  139.7388  183.1766 N   0  0  0  0  0  0  0  0  0  0  0  0
  152.5359  140.5115  183.3526 H   0  0  0  0  0  0  0  0  0  0  0  0
  154.6067  139.9593  183.2241 C   0  0  0  0  0  0  0  0  0  0  0  0
  155.3577  140.6970  182.4739 N   0  0  0  0  0  0  0  0  0  0  0  0
  156.6454  140.7822  182.6539 C   0  0  0  0  0  0  0  0  0  0  0  0
  157.1714  140.0487  183.6827 C   0  0  0  0  0  0  0  0  0  0  0  0
  155.7393  139.2878  184.3106 S   0  0  0  0  0  0  0  0  0  0  0  0
  157.4744  141.6402  181.7776 C   0  0  0  0  0  0  0  0  0  0  0  0
  157.8495  141.1561  180.5457 C   0  0  0  0  0  0  0  0  0  0  0  0
  158.6286  141.8537  179.6328 C   0  0  0  0  0  0  0  0  0  0  0  0
  159.0506  143.1058  179.9823 C   0  0  0  0  0  0  0  0  0  0  0  0
  158.6982  143.6201  181.1971 C   0  0  0  0  0  0  0  0  0  0  0  0
  159.2172  145.2044  181.6705 Cl  0  0  0  0  0  0  0  0  0  0  0  0
  157.9059  142.8882  182.1042 C   0  0  0  0  0  0  0  0  0  0  0  0
  157.5962  143.4519  183.2911 F   0  0  0  0  0  0  0  0  0  0  0  0
  151.2570  138.1469  182.8059 C   0  0  0  0  0  0  0  0  0  0  0  0
  148.0193  138.1609  177.5253 C   0  0  0  0  0  0  0  0  0  0  0  0
  148.3568  137.6642  178.8419 N   0  0  0  0  0  0  0  0  0  0  0  0
  149.3437  138.2801  179.5260 C   0  0  0  0  0  0  0  0  0  0  0  0
  149.9845  139.3700  178.9475 C   0  0  0  0  0  0  0  0  0  0  0  0
  150.9886  140.0529  179.5910 C   0  0  0  0  0  0  0  0  0  0  0  0
  151.3680  139.6434  180.8421 C   0  0  0  0  0  0  0  0  0  0  0  0
  150.7603  138.5436  181.4890 C   0  0  0  0  0  0  0  0  0  0  0  0
  149.7538  137.8825  180.8123 C   0  0  0  0  0  0  0  0  0  0  0  0
  149.0924  136.8070  181.3728 C   0  0  0  0  0  0  0  0  0  0  0  0
  149.3898  136.3992  182.4969 O   0  0  0  0  0  0  0  0  0  0  0  0
  148.1060  136.2131  180.6554 N   0  0  0  0  0  0  0  0  0  0  0  0
  147.4395  135.0847  181.2861 C   0  0  0  0  0  0  0  0  0  0  0  0
  147.7468  136.6244  179.4304 C   0  0  0  0  0  0  0  0  0  0  0  0
  146.8126  136.0195  178.8153 O   0  0  0  0  0  0  0  0  0  0  0  0
 19 20  1  0  0  0
 20 21  1  0  0  0
 21 22  2  0  0  0
 22 23  1  0  0  0
 23 24  2  0  0  0
 24 25  1  0  0  0
 25 18  1  0  0  0
 18  1  1  0  0  0
  1  2  2  0  0  0
  1  3  1  0  0  0
  3  5  1  0  0  0
  5  6  2  0  0  0
  6  7  1  0  0  0
  7  8  2  0  0  0
  8  9  1  0  0  0
  7 10  1  0  0  0
 10 11  2  0  0  0
 11 12  1  0  0  0
 12 13  2  0  0  0
 13 14  1  0  0  0
 14 15  1  0  0  0
 14 16  2  0  0  0
 16 17  1  0  0  0
 25 26  2  0  0  0
 26 27  1  0  0  0
 27 28  2  0  0  0
 27 29  1  0  0  0
 29 30  1  0  0  0
 29 31  1  0  0  0
 31 32  2  0  0  0
 31 20  1  0  0  0
 26 21  1  0  0  0
  9  5  1  0  0  0
 16 10  1  0  0  0
  3  4  1  0  0  0
M  END
> <minimizedAffinity>
-8.25807

> <CNNscore>
0.3575519621

> <CNNaffinity>
6.1747241020

> <CNN_VS>
2.2077846527

> <CNNaffinity_variance>
0.1311135292

$$$$
[H]c1sc(N([H])C(=O)C([H])([H])c2c([H])c([H])c([H])c3c2c(=O)n(C([H])([H])[H])c(=O)n3C([H])([H])[H])nc1-c1c([H])c([H])c([H])c(Cl)c1F


 32 35  0  0  0  0  0  0  0  0999 V2000
  154.6023  137.2985  185.4208 C   0  0  0  0  0  0  0  0  0  0  0  0
  154.6994  137.1013  184.1564 O   0  0  0  0  0  0  0  0  0  0  0  0
  155.2174  138.4437  185.9883 N   0  0  0  0  0  0  0  0  0  0  0  0
  155.1630  138.6354  186.9926 H   0  0  0  0  0  0  0  0  0  0  0  0
  155.9231  139.3450  185.1142 C   0  0  0  0  0  0  0  0  0  0  0  0
  157.1184  139.8279  185.2095 N   0  0  0  0  0  0  0  0  0  0  0  0
  157.6079  140.6450  184.3205 C   0  0  0  0  0  0  0  0  0  0  0  0
  156.7917  140.9715  183.2714 C   0  0  0  0  0  0  0  0  0  0  0  0
  155.3664  140.0567  183.6658 S   0  0  0  0  0  0  0  0  0  0  0  0
  158.9828  141.1757  184.4597 C   0  0  0  0  0  0  0  0  0  0  0  0
  159.8458  141.0567  183.3950 C   0  0  0  0  0  0  0  0  0  0  0  0
  161.1595  141.5053  183.3961 C   0  0  0  0  0  0  0  0  0  0  0  0
  161.6258  142.1056  184.5319 C   0  0  0  0  0  0  0  0  0  0  0  0
  160.7983  142.2417  185.6095 C   0  0  0  0  0  0  0  0  0  0  0  0
  161.3590  142.9980  187.0646 Cl  0  0  0  0  0  0  0  0  0  0  0  0
  159.4685  141.7762  185.5795 C   0  0  0  0  0  0  0  0  0  0  0  0
  158.7034  141.9373  186.6800 F   0  0  0  0  0  0  0  0  0  0  0  0
  153.8535  136.3354  186.2711 C   0  0  0  0  0  0  0  0  0  0  0  0
  157.6333  133.9967  190.5852 C   0  0  0  0  0  0  0  0  0  0  0  0
  156.6481  134.9338  190.0900 N   0  0  0  0  0  0  0  0  0  0  0  0
  156.2051  134.7888  188.8234 C   0  0  0  0  0  0  0  0  0  0  0  0
  156.7002  133.7425  188.0532 C   0  0  0  0  0  0  0  0  0  0  0  0
  156.2850  133.5267  186.7610 C   0  0  0  0  0  0  0  0  0  0  0  0
  155.3540  134.3722  186.2176 C   0  0  0  0  0  0  0  0  0  0  0  0
  154.8094  135.4560  186.9430 C   0  0  0  0  0  0  0  0  0  0  0  0
  155.2492  135.6408  188.2392 C   0  0  0  0  0  0  0  0  0  0  0  0
  154.7608  136.6637  189.0287 C   0  0  0  0  0  0  0  0  0  0  0  0
  153.9189  137.4508  188.5924 O   0  0  0  0  0  0  0  0  0  0  0  0
  155.2295  136.7782  190.2965 N   0  0  0  0  0  0  0  0  0  0  0  0
  154.6868  137.8707  191.0887 C   0  0  0  0  0  0  0  0  0  0  0  0
  156.1428  135.9435  190.8142 C   0  0  0  0  0  0  0  0  0  0  0  0
  156.5372  136.1110  192.0114 O   0  0  0  0  0  0  0  0  0  0  0  0
 19 20  1  0  0  0
 20 21  1  0  0  0
 21 22  2  0  0  0
 22 23  1  0  0  0
 23 24  2  0  0  0
 24 25  1  0  0  0
 25 18  1  0  0  0
 18  1  1  0  0  0
  1  2  2  0  0  0
  1  3  1  0  0  0
  3  5  1  0  0  0
  5  6  2  0  0  0
  6  7  1  0  0  0
  7  8  2  0  0  0
  8  9  1  0  0  0
  7 10  1  0  0  0
 10 11  2  0  0  0
 11 12  1  0  0  0
 12 13  2  0  0  0
 13 14  1  0  0  0
 14 15  1  0  0  0
 14 16  2  0  0  0
 16 17  1  0  0  0
 25 26  2  0  0  0
 26 27  1  0  0  0
 27 28  2  0  0  0
 27 29  1  0  0  0
 29 30  1  0  0  0
 29 31  1  0  0  0
 31 32  2  0  0  0
 31 20  1  0  0  0
 26 21  1  0  0  0
  9  5  1  0  0  0
 16 10  1  0  0  0
  3  4  1  0  0  0
M  END
> <minimizedAffinity>
-7.68750

> <CNNscore>
0.3533199430

> <CNNaffinity>
6.5323667526

> <CNN_VS>
2.3080153465

> <CNNaffinity_variance>
0.0550309047

$$$$
[H]c1sc(N([H])C(=O)C([H])([H])c2c([H])c([H])c([H])c3c2c(=O)n(C([H])([H])[H])c(=O)n3C([H])([H])[H])nc1-c1c([H])c([H])c([H])c(Cl)c1F


 32 35  0  0  0  0  0  0  0  0999 V2000
  153.6725  137.7820  184.9812 C   0  0  0  0  0  0  0  0  0  0  0  0
  154.1171  137.2912  183.8819 O   0  0  0  0  0  0  0  0  0  0  0  0
  153.7412  139.1838  185.1870 N   0  0  0  0  0  0  0  0  0  0  0  0
  153.3979  139.6131  186.0507 H   0  0  0  0  0  0  0  0  0  0  0  0
  154.3043  140.0015  184.1436 C   0  0  0  0  0  0  0  0  0  0  0  0
  155.4335  140.6292  184.0992 N   0  0  0  0  0  0  0  0  0  0  0  0
  155.7921  141.3368  183.0656 C   0  0  0  0  0  0  0  0  0  0  0  0
  154.9110  141.3855  182.0193 C   0  0  0  0  0  0  0  0  0  0  0  0
  153.6213  140.3904  182.6281 S   0  0  0  0  0  0  0  0  0  0  0  0
  157.0948  142.0395  183.0477 C   0  0  0  0  0  0  0  0  0  0  0  0
  157.1561  143.2994  182.4986 C   0  0  0  0  0  0  0  0  0  0  0  0
  158.3126  144.0627  182.4138 C   0  0  0  0  0  0  0  0  0  0  0  0
  159.4672  143.5254  182.9097 C   0  0  0  0  0  0  0  0  0  0  0  0
  159.4456  142.2770  183.4624 C   0  0  0  0  0  0  0  0  0  0  0  0
  160.8925  141.5673  184.0998 Cl  0  0  0  0  0  0  0  0  0  0  0  0
  158.2560  141.5248  183.5347 C   0  0  0  0  0  0  0  0  0  0  0  0
  158.3029  140.2949  184.0892 F   0  0  0  0  0  0  0  0  0  0  0  0
  153.0951  136.8868  186.0188 C   0  0  0  0  0  0  0  0  0  0  0  0
  157.6084  134.7530  189.6855 C   0  0  0  0  0  0  0  0  0  0  0  0
  156.5505  135.6730  189.3271 N   0  0  0  0  0  0  0  0  0  0  0  0
  155.8782  135.4602  188.1763 C   0  0  0  0  0  0  0  0  0  0  0  0
  156.2179  134.3638  187.3917 C   0  0  0  0  0  0  0  0  0  0  0  0
  155.5680  134.0785  186.2148 C   0  0  0  0  0  0  0  0  0  0  0  0
  154.5540  134.9034  185.8046 C   0  0  0  0  0  0  0  0  0  0  0  0
  154.1574  136.0352  186.5523 C   0  0  0  0  0  0  0  0  0  0  0  0
  154.8322  136.2896  187.7303 C   0  0  0  0  0  0  0  0  0  0  0  0
  154.5025  137.3636  188.5340 C   0  0  0  0  0  0  0  0  0  0  0  0
  153.5961  138.1353  188.2158 O   0  0  0  0  0  0  0  0  0  0  0  0
  155.2003  137.5458  189.6831 N   0  0  0  0  0  0  0  0  0  0  0  0
  154.8180  138.6902  190.4953 C   0  0  0  0  0  0  0  0  0  0  0  0
  156.1920  136.7303  190.0707 C   0  0  0  0  0  0  0  0  0  0  0  0
  156.8037  136.9622  191.1612 O   0  0  0  0  0  0  0  0  0  0  0  0
 19 20  1  0  0  0
 20 21  1  0  0  0
 21 22  2  0  0  0
 22 23  1  0  0  0
 23 24  2  0  0  0
 24 25  1  0  0  0
 25 18  1  0  0  0
 18  1  1  0  0  0
  1  2  2  0  0  0
  1  3  1  0  0  0
  3  5  1  0  0  0
  5  6  2  0  0  0
  6  7  1  0  0  0
  7  8  2  0  0  0
  8  9  1  0  0  0
  7 10  1  0  0  0
 10 11  2  0  0  0
 11 12  1  0  0  0
 12 13  2  0  0  0
 13 14  1  0  0  0
 14 15  1  0  0  0
 14 16  2  0  0  0
 16 17  1  0  0  0
 25 26  2  0  0  0
 26 27  1  0  0  0
 27 28  2  0  0  0
 27 29  1  0  0  0
 29 30  1  0  0  0
 29 31  1  0  0  0
 31 32  2  0  0  0
 31 20  1  0  0  0
 26 21  1  0  0  0
  9  5  1  0  0  0
 16 10  1  0  0  0
  3  4  1  0  0  0
M  END
> <minimizedAffinity>
-7.27745

> <CNNscore>
0.3515109122

> <CNNaffinity>
6.4511437416

> <CNN_VS>
2.2676475048

> <CNNaffinity_variance>
0.0648830980

$$$$
[H]c1c([H])c(SC([H])(N([H])C(=O)c2c([H])c([H])c([N+](=O)[O-])c([H])c2[H])C(Cl)(Cl)Cl)c([H])c([H])c1Cl


 26 27  0  0  0  0  0  0  0  0999 V2000
  155.3533  141.6093  183.2280 C   0  0  0  0  0  0  0  0  0  0  0  0
  155.2142  142.3993  184.2003 O   0  0  0  0  0  0  0  0  0  0  0  0
  156.5571  141.6207  182.5385 N   0  0  0  0  0  0  0  0  0  0  0  0
  156.7302  140.9942  181.7305 H   0  0  0  0  0  0  0  0  0  0  0  0
  152.1675  139.0479  182.0153 C   0  0  0  0  0  0  0  0  0  0  0  0
  153.0132  138.6758  183.0266 C   0  0  0  0  0  0  0  0  0  0  0  0
  154.0508  139.4961  183.4307 C   0  0  0  0  0  0  0  0  0  0  0  0
  154.2812  140.7130  182.8422 C   0  0  0  0  0  0  0  0  0  0  0  0
  153.4167  141.0898  181.8108 C   0  0  0  0  0  0  0  0  0  0  0  0
  152.3869  140.2717  181.4124 C   0  0  0  0  0  0  0  0  0  0  0  0
  149.8613  138.7243  181.3458 O   0  0  0  0  0  0  0  0  0  0  0  0
  151.0938  138.2121  181.5884 N   0  0  0  0  0  0  0  0  0  0  0  0
  151.2811  136.9916  181.4333 O   0  0  0  0  0  0  0  0  0  0  0  0
  157.6836  142.5060  182.8799 C   0  0  0  0  0  0  0  0  0  0  0  0
  157.7157  143.5624  181.8320 C   0  0  0  0  0  0  0  0  0  0  0  0
  159.0457  144.6974  182.2738 Cl  0  0  0  0  0  0  0  0  0  0  0  0
  158.0127  143.0228  180.2064 Cl  0  0  0  0  0  0  0  0  0  0  0  0
  156.2272  144.5408  181.8359 Cl  0  0  0  0  0  0  0  0  0  0  0  0
  159.1015  141.4977  183.0896 S   0  0  0  0  0  0  0  0  0  0  0  0
  160.2411  141.8994  184.3310 C   0  0  0  0  0  0  0  0  0  0  0  0
  159.8209  142.2295  185.5989 C   0  0  0  0  0  0  0  0  0  0  0  0
  160.7411  142.5543  186.6028 C   0  0  0  0  0  0  0  0  0  0  0  0
  162.0798  142.5447  186.3238 C   0  0  0  0  0  0  0  0  0  0  0  0
  163.2342  142.9581  187.6052 Cl  0  0  0  0  0  0  0  0  0  0  0  0
  162.5024  142.2189  185.0714 C   0  0  0  0  0  0  0  0  0  0  0  0
  161.5880  141.9035  184.1003 C   0  0  0  0  0  0  0  0  0  0  0  0
 11 12  1  0  0  0
 12 13  2  0  0  0
 12  5  1  0  0  0
  5  6  2  0  0  0
  6  7  1  0  0  0
  7  8  2  0  0  0
  8  9  1  0  0  0
  9 10  2  0  0  0
  8  1  1  0  0  0
  1  2  2  0  0  0
  1  3  1  0  0  0
  3 14  1  0  0  0
 14 19  1  0  0  0
 19 20  1  0  0  0
 20 21  2  0  0  0
 21 22  1  0  0  0
 22 23  2  0  0  0
 23 24  1  0  0  0
 23 25  1  0  0  0
 25 26  2  0  0  0
 14 15  1  0  0  0
 15 16  1  0  0  0
 15 17  1  0  0  0
 15 18  1  0  0  0
 10  5  1  0  0  0
 26 20  1  0  0  0
  3  4  1  0  0  0
M  CHG 1  11  -1
M  CHG 1  12   1
M  END
> <minimizedAffinity>
-8.74127

> <CNNscore>
0.8277811408

> <CNNaffinity>
6.8895277977

> <CNN_VS>
5.7030210495

> <CNNaffinity_variance>
0.0197736211

$$$$
[H]c1c([H])c(SC([H])(N([H])C(=O)c2c([H])c([H])c([N+](=O)[O-])c([H])c2[H])C(Cl)(Cl)Cl)c([H])c([H])c1Cl


 26 27  0  0  0  0  0  0  0  0999 V2000
  156.1026  140.6014  183.9342 C   0  0  0  0  0  0  0  0  0  0  0  0
  156.7760  140.5693  184.9992 O   0  0  0  0  0  0  0  0  0  0  0  0
  156.4802  141.4968  182.9442 N   0  0  0  0  0  0  0  0  0  0  0  0
  155.9651  141.5689  182.0470 H   0  0  0  0  0  0  0  0  0  0  0  0
  152.7201  138.0823  183.3068 C   0  0  0  0  0  0  0  0  0  0  0  0
  153.5798  137.8469  184.3470 C   0  0  0  0  0  0  0  0  0  0  0  0
  154.6809  138.6554  184.5629 C   0  0  0  0  0  0  0  0  0  0  0  0
  154.9630  139.7241  183.7515 C   0  0  0  0  0  0  0  0  0  0  0  0
  154.0840  139.9617  182.6912 C   0  0  0  0  0  0  0  0  0  0  0  0
  152.9911  139.1559  182.4803 C   0  0  0  0  0  0  0  0  0  0  0  0
  150.3236  137.7598  183.1508 O   0  0  0  0  0  0  0  0  0  0  0  0
  151.5811  137.2569  183.0724 N   0  0  0  0  0  0  0  0  0  0  0  0
  151.7334  136.0542  182.7908 O   0  0  0  0  0  0  0  0  0  0  0  0
  157.6263  142.4135  183.0682 C   0  0  0  0  0  0  0  0  0  0  0  0
  157.5260  143.3627  181.9263 C   0  0  0  0  0  0  0  0  0  0  0  0
  155.8822  144.1007  182.0021 Cl  0  0  0  0  0  0  0  0  0  0  0  0
  158.6784  144.6641  181.9058 Cl  0  0  0  0  0  0  0  0  0  0  0  0
  157.6030  142.5197  180.3590 Cl  0  0  0  0  0  0  0  0  0  0  0  0
  159.0720  141.4336  183.2120 S   0  0  0  0  0  0  0  0  0  0  0  0
  160.2600  141.8592  184.3988 C   0  0  0  0  0  0  0  0  0  0  0  0
  159.8923  142.1906  185.6826 C   0  0  0  0  0  0  0  0  0  0  0  0
  160.8517  142.5347  186.6423 C   0  0  0  0  0  0  0  0  0  0  0  0
  162.1765  142.5430  186.3035 C   0  0  0  0  0  0  0  0  0  0  0  0
  163.3810  142.9809  187.5295 Cl  0  0  0  0  0  0  0  0  0  0  0  0
  162.5473  142.2162  185.0351 C   0  0  0  0  0  0  0  0  0  0  0  0
  161.5950  141.8817  184.1077 C   0  0  0  0  0  0  0  0  0  0  0  0
 11 12  1  0  0  0
 12 13  2  0  0  0
 12  5  1  0  0  0
  5  6  2  0  0  0
  6  7  1  0  0  0
  7  8  2  0  0  0
  8  9  1  0  0  0
  9 10  2  0  0  0
  8  1  1  0  0  0
  1  2  2  0  0  0
  1  3  1  0  0  0
  3 14  1  0  0  0
 14 19  1  0  0  0
 19 20  1  0  0  0
 20 21  2  0  0  0
 21 22  1  0  0  0
 22 23  2  0  0  0
 23 24  1  0  0  0
 23 25  1  0  0  0
 25 26  2  0  0  0
 14 15  1  0  0  0
 15 16  1  0  0  0
 15 17  1  0  0  0
 15 18  1  0  0  0
 10  5  1  0  0  0
 26 20  1  0  0  0
  3  4  1  0  0  0
M  CHG 1  11  -1
M  CHG 1  12   1
M  END
> <minimizedAffinity>
-8.00011

> <CNNscore>
0.8102193475

> <CNNaffinity>
6.8097395897

> <CNN_VS>
5.5173826218

> <CNNaffinity_variance>
0.0525991395

$$$$
[H]c1c([H])c(SC([H])(N([H])C(=O)c2c([H])c([H])c([N+](=O)[O-])c([H])c2[H])C(Cl)(Cl)Cl)c([H])c([H])c1Cl


 26 27  0  0  0  0  0  0  0  0999 V2000
  154.5243  141.1392  182.9126 C   0  0  0  0  0  0  0  0  0  0  0  0
  153.3524  141.5554  182.7077 O   0  0  0  0  0  0  0  0  0  0  0  0
  154.6871  139.9400  183.5909 N   0  0  0  0  0  0  0  0  0  0  0  0
  155.6261  139.5471  183.7890 H   0  0  0  0  0  0  0  0  0  0  0  0
  157.8406  143.4618  181.5752 C   0  0  0  0  0  0  0  0  0  0  0  0
  157.8977  142.0933  181.5589 C   0  0  0  0  0  0  0  0  0  0  0  0
  156.8300  141.3269  181.9896 C   0  0  0  0  0  0  0  0  0  0  0  0
  155.6710  141.8964  182.4505 C   0  0  0  0  0  0  0  0  0  0  0  0
  155.6158  143.2928  182.4658 C   0  0  0  0  0  0  0  0  0  0  0  0
  156.6789  144.0506  182.0370 C   0  0  0  0  0  0  0  0  0  0  0  0
  159.5191  144.0497  179.9294 O   0  0  0  0  0  0  0  0  0  0  0  0
  158.9338  144.2644  181.1343 N   0  0  0  0  0  0  0  0  0  0  0  0
  159.3649  145.1788  181.8600 O   0  0  0  0  0  0  0  0  0  0  0  0
  153.5648  139.1245  184.0856 C   0  0  0  0  0  0  0  0  0  0  0  0
  154.0752  138.3922  185.2765 C   0  0  0  0  0  0  0  0  0  0  0  0
  155.7990  138.8772  185.4899 Cl  0  0  0  0  0  0  0  0  0  0  0  0
  153.2584  138.7054  186.7788 Cl  0  0  0  0  0  0  0  0  0  0  0  0
  154.1006  136.6316  185.0074 Cl  0  0  0  0  0  0  0  0  0  0  0  0
  152.9545  138.1921  182.7332 S   0  0  0  0  0  0  0  0  0  0  0  0
  151.3520  138.5040  182.1536 C   0  0  0  0  0  0  0  0  0  0  0  0
  151.1375  139.3226  181.0687 C   0  0  0  0  0  0  0  0  0  0  0  0
  149.8428  139.5753  180.5997 C   0  0  0  0  0  0  0  0  0  0  0  0
  148.7712  139.0017  181.2261 C   0  0  0  0  0  0  0  0  0  0  0  0
  147.1367  139.3304  180.6211 Cl  0  0  0  0  0  0  0  0  0  0  0  0
  148.9762  138.1906  182.3001 C   0  0  0  0  0  0  0  0  0  0  0  0
  150.2504  137.9538  182.7463 C   0  0  0  0  0  0  0  0  0  0  0  0
 11 12  1  0  0  0
 12 13  2  0  0  0
 12  5  1  0  0  0
  5  6  2  0  0  0
  6  7  1  0  0  0
  7  8  2  0  0  0
  8  9  1  0  0  0
  9 10  2  0  0  0
  8  1  1  0  0  0
  1  2  2  0  0  0
  1  3  1  0  0  0
  3 14  1  0  0  0
 14 19  1  0  0  0
 19 20  1  0  0  0
 20 21  2  0  0  0
 21 22  1  0  0  0
 22 23  2  0  0  0
 23 24  1  0  0  0
 23 25  1  0  0  0
 25 26  2  0  0  0
 14 15  1  0  0  0
 15 16  1  0  0  0
 15 17  1  0  0  0
 15 18  1  0  0  0
 10  5  1  0  0  0
 26 20  1  0  0  0
  3  4  1  0  0  0
M  CHG 1  11  -1
M  CHG 1  12   1
M  END
> <minimizedAffinity>
-7.02389

> <CNNscore>
0.5294735432

> <CNNaffinity>
6.0113296509

> <CNN_VS>
3.1828401089

> <CNNaffinity_variance>
0.1050817147

$$$$
[H]c1c([H])c(SC([H])(N([H])C(=O)c2c([H])c([H])c([N+](=O)[O-])c([H])c2[H])C(Cl)(Cl)Cl)c([H])c([H])c1Cl


 26 27  0  0  0  0  0  0  0  0999 V2000
  154.2222  139.1344  183.9913 C   0  0  0  0  0  0  0  0  0  0  0  0
  154.0145  139.5521  185.1623 O   0  0  0  0  0  0  0  0  0  0  0  0
  155.1750  139.7845  183.2205 N   0  0  0  0  0  0  0  0  0  0  0  0
  155.3894  139.4868  182.2506 H   0  0  0  0  0  0  0  0  0  0  0  0
  151.9853  135.8798  182.3837 C   0  0  0  0  0  0  0  0  0  0  0  0
  152.9835  135.6555  183.2945 C   0  0  0  0  0  0  0  0  0  0  0  0
  153.7174  136.7012  183.8245 C   0  0  0  0  0  0  0  0  0  0  0  0
  153.4825  138.0036  183.4659 C   0  0  0  0  0  0  0  0  0  0  0  0
  152.4634  138.2291  182.5365 C   0  0  0  0  0  0  0  0  0  0  0  0
  151.7366  137.1873  182.0124 C   0  0  0  0  0  0  0  0  0  0  0  0
  151.7987  133.8749  181.0356 O   0  0  0  0  0  0  0  0  0  0  0  0
  151.2208  134.8113  181.8291 N   0  0  0  0  0  0  0  0  0  0  0  0
  150.0029  134.7285  182.0713 O   0  0  0  0  0  0  0  0  0  0  0  0
  155.9591  140.9374  183.6951 C   0  0  0  0  0  0  0  0  0  0  0  0
  155.3370  142.1439  183.0847 C   0  0  0  0  0  0  0  0  0  0  0  0
  154.2095  141.5600  181.8040 Cl  0  0  0  0  0  0  0  0  0  0  0  0
  154.4221  143.1618  184.1566 Cl  0  0  0  0  0  0  0  0  0  0  0  0
  156.5402  143.1523  182.2431 Cl  0  0  0  0  0  0  0  0  0  0  0  0
  157.6451  140.6056  183.3514 S   0  0  0  0  0  0  0  0  0  0  0  0
  158.8626  141.3162  184.3582 C   0  0  0  0  0  0  0  0  0  0  0  0
  160.0986  141.6451  183.8510 C   0  0  0  0  0  0  0  0  0  0  0  0
  161.0832  142.2194  184.6640 C   0  0  0  0  0  0  0  0  0  0  0  0
  160.8171  142.4594  185.9836 C   0  0  0  0  0  0  0  0  0  0  0  0
  162.0736  143.1874  187.0018 Cl  0  0  0  0  0  0  0  0  0  0  0  0
  159.5962  142.1366  186.4920 C   0  0  0  0  0  0  0  0  0  0  0  0
  158.6436  141.5749  185.6821 C   0  0  0  0  0  0  0  0  0  0  0  0
 11 12  1  0  0  0
 12 13  2  0  0  0
 12  5  1  0  0  0
  5  6  2  0  0  0
  6  7  1  0  0  0
  7  8  2  0  0  0
  8  9  1  0  0  0
  9 10  2  0  0  0
  8  1  1  0  0  0
  1  2  2  0  0  0
  1  3  1  0  0  0
  3 14  1  0  0  0
 14 19  1  0  0  0
 19 20  1  0  0  0
 20 21  2  0  0  0
 21 22  1  0  0  0
 22 23  2  0  0  0
 23 24  1  0  0  0
 23 25  1  0  0  0
 25 26  2  0  0  0
 14 15  1  0  0  0
 15 16  1  0  0  0
 15 17  1  0  0  0
 15 18  1  0  0  0
 10  5  1  0  0  0
 26 20  1  0  0  0
  3  4  1  0  0  0
M  CHG 1  11  -1
M  CHG 1  12   1
M  END
> <minimizedAffinity>
-7.13812

> <CNNscore>
0.5259162784

> <CNNaffinity>
6.2127013206

> <CNN_VS>
3.2673606873

> <CNNaffinity_variance>
0.0852334127

$$$$
[H]c1c([H])c(SC([H])(N([H])C(=O)c2c([H])c([H])c([N+](=O)[O-])c([H])c2[H])C(Cl)(Cl)Cl)c([H])c([H])c1Cl


 26 27  0  0  0  0  0  0  0  0999 V2000
  158.6908  141.7419  184.3380 C   0  0  0  0  0  0  0  0  0  0  0  0
  158.0614  140.6507  184.3813 O   0  0  0  0  0  0  0  0  0  0  0  0
  158.2621  142.7133  183.4452 N   0  0  0  0  0  0  0  0  0  0  0  0
  158.7396  143.6303  183.3642 H   0  0  0  0  0  0  0  0  0  0  0  0
  162.1187  142.4125  186.7836 C   0  0  0  0  0  0  0  0  0  0  0  0
  160.8637  142.4013  187.3324 C   0  0  0  0  0  0  0  0  0  0  0  0
  159.7427  142.1851  186.5517 C   0  0  0  0  0  0  0  0  0  0  0  0
  159.8332  141.9731  185.2000 C   0  0  0  0  0  0  0  0  0  0  0  0
  161.1150  141.9851  184.6432 C   0  0  0  0  0  0  0  0  0  0  0  0
  162.2262  142.2002  185.4224 C   0  0  0  0  0  0  0  0  0  0  0  0
  163.3764  142.1415  188.8369 O   0  0  0  0  0  0  0  0  0  0  0  0
  163.2831  142.6342  187.5764 N   0  0  0  0  0  0  0  0  0  0  0  0
  164.2342  143.2894  187.1128 O   0  0  0  0  0  0  0  0  0  0  0  0
  157.1103  142.5404  182.5436 C   0  0  0  0  0  0  0  0  0  0  0  0
  157.1407  143.6936  181.6032 C   0  0  0  0  0  0  0  0  0  0  0  0
  157.6594  143.0486  180.0010 Cl  0  0  0  0  0  0  0  0  0  0  0  0
  155.6350  144.5288  181.3634 Cl  0  0  0  0  0  0  0  0  0  0  0  0
  158.3786  144.8885  182.0644 Cl  0  0  0  0  0  0  0  0  0  0  0  0
  155.6878  142.3178  183.5426 S   0  0  0  0  0  0  0  0  0  0  0  0
  154.5356  141.1011  183.1032 C   0  0  0  0  0  0  0  0  0  0  0  0
  154.4421  139.9249  183.8110 C   0  0  0  0  0  0  0  0  0  0  0  0
  153.5112  138.9410  183.4566 C   0  0  0  0  0  0  0  0  0  0  0  0
  152.6794  139.1476  182.3911 C   0  0  0  0  0  0  0  0  0  0  0  0
  151.5050  137.8927  181.9535 Cl  0  0  0  0  0  0  0  0  0  0  0  0
  152.7665  140.3091  181.6864 C   0  0  0  0  0  0  0  0  0  0  0  0
  153.6836  141.2619  182.0469 C   0  0  0  0  0  0  0  0  0  0  0  0
 11 12  1  0  0  0
 12 13  2  0  0  0
 12  5  1  0  0  0
  5  6  2  0  0  0
  6  7  1  0  0  0
  7  8  2  0  0  0
  8  9  1  0  0  0
  9 10  2  0  0  0
  8  1  1  0  0  0
  1  2  2  0  0  0
  1  3  1  0  0  0
  3 14  1  0  0  0
 14 19  1  0  0  0
 19 20  1  0  0  0
 20 21  2  0  0  0
 21 22  1  0  0  0
 22 23  2  0  0  0
 23 24  1  0  0  0
 23 25  1  0  0  0
 25 26  2  0  0  0
 14 15  1  0  0  0
 15 16  1  0  0  0
 15 17  1  0  0  0
 15 18  1  0  0  0
 10  5  1  0  0  0
 26 20  1  0  0  0
  3  4  1  0  0  0
M  CHG 1  11  -1
M  CHG 1  12   1
M  END
> <minimizedAffinity>
-6.68796

> <CNNscore>
0.4899722934

> <CNNaffinity>
6.3228578568

> <CNN_VS>
3.0980250835

> <CNNaffinity_variance>
0.1240388900

$$$$
[H]c1c([H])c(SC([H])(N([H])C(=O)c2c([H])c([H])c([N+](=O)[O-])c([H])c2[H])C(Cl)(Cl)Cl)c([H])c([H])c1Cl


 26 27  0  0  0  0  0  0  0  0999 V2000
  152.8341  139.7883  181.6983 C   0  0  0  0  0  0  0  0  0  0  0  0
  153.6505  140.5759  181.1487 O   0  0  0  0  0  0  0  0  0  0  0  0
  153.1689  139.2499  182.9322 N   0  0  0  0  0  0  0  0  0  0  0  0
  152.5383  138.5964  183.4328 H   0  0  0  0  0  0  0  0  0  0  0  0
  149.0987  138.7791  179.9069 C   0  0  0  0  0  0  0  0  0  0  0  0
  150.1338  139.2470  179.1414 C   0  0  0  0  0  0  0  0  0  0  0  0
  151.3510  139.5784  179.7084 C   0  0  0  0  0  0  0  0  0  0  0  0
  151.5784  139.4552  181.0550 C   0  0  0  0  0  0  0  0  0  0  0  0
  150.5204  138.9775  181.8333 C   0  0  0  0  0  0  0  0  0  0  0  0
  149.3126  138.6494  181.2659 C   0  0  0  0  0  0  0  0  0  0  0  0
  147.7349  138.0783  178.0306 O   0  0  0  0  0  0  0  0  0  0  0  0
  147.8385  138.4338  179.3357 N   0  0  0  0  0  0  0  0  0  0  0  0
  146.8115  138.4562  180.0383 O   0  0  0  0  0  0  0  0  0  0  0  0
  154.4273  139.5479  183.6372 C   0  0  0  0  0  0  0  0  0  0  0  0
  154.4973  138.6005  184.7830 C   0  0  0  0  0  0  0  0  0  0  0  0
  156.1311  138.7929  185.5219 Cl  0  0  0  0  0  0  0  0  0  0  0  0
  153.3259  138.8349  186.0459 Cl  0  0  0  0  0  0  0  0  0  0  0  0
  154.4099  136.9052  184.2434 Cl  0  0  0  0  0  0  0  0  0  0  0  0
  154.4474  141.2672  183.9758 S   0  0  0  0  0  0  0  0  0  0  0  0
  155.7276  142.2360  183.3251 C   0  0  0  0  0  0  0  0  0  0  0  0
  155.4573  143.3757  182.6033 C   0  0  0  0  0  0  0  0  0  0  0  0
  156.4913  144.1593  182.0770 C   0  0  0  0  0  0  0  0  0  0  0  0
  157.7921  143.7903  182.2809 C   0  0  0  0  0  0  0  0  0  0  0  0
  159.0919  144.7924  181.6085 Cl  0  0  0  0  0  0  0  0  0  0  0  0
  158.0668  142.6638  182.9942 C   0  0  0  0  0  0  0  0  0  0  0  0
  157.0424  141.9081  183.5024 C   0  0  0  0  0  0  0  0  0  0  0  0
 11 12  1  0  0  0
 12 13  2  0  0  0
 12  5  1  0  0  0
  5  6  2  0  0  0
  6  7  1  0  0  0
  7  8  2  0  0  0
  8  9  1  0  0  0
  9 10  2  0  0  0
  8  1  1  0  0  0
  1  2  2  0  0  0
  1  3  1  0  0  0
  3 14  1  0  0  0
 14 19  1  0  0  0
 19 20  1  0  0  0
 20 21  2  0  0  0
 21 22  1  0  0  0
 22 23  2  0  0  0
 23 24  1  0  0  0
 23 25  1  0  0  0
 25 26  2  0  0  0
 14 15  1  0  0  0
 15 16  1  0  0  0
 15 17  1  0  0  0
 15 18  1  0  0  0
 10  5  1  0  0  0
 26 20  1  0  0  0
  3  4  1  0  0  0
M  CHG 1  11  -1
M  CHG 1  12   1
M  END
> <minimizedAffinity>
-7.30340

> <CNNscore>
0.4767485857

> <CNNaffinity>
5.7290315628

> <CNN_VS>
2.7313077450

> <CNNaffinity_variance>
0.2000053823

$$$$
[H]c1c([H])c(SC([H])(N([H])C(=O)c2c([H])c([H])c([N+](=O)[O-])c([H])c2[H])C(Cl)(Cl)Cl)c([H])c([H])c1Cl


 26 27  0  0  0  0  0  0  0  0999 V2000
  158.1497  139.7656  184.1983 C   0  0  0  0  0  0  0  0  0  0  0  0
  158.6012  139.1140  183.2184 O   0  0  0  0  0  0  0  0  0  0  0  0
  158.7373  140.9844  184.5046 N   0  0  0  0  0  0  0  0  0  0  0  0
  158.4095  141.5651  185.2987 H   0  0  0  0  0  0  0  0  0  0  0  0
  154.8297  138.2777  186.4221 C   0  0  0  0  0  0  0  0  0  0  0  0
  156.0866  138.2813  186.9666 C   0  0  0  0  0  0  0  0  0  0  0  0
  157.1729  138.7607  186.2573 C   0  0  0  0  0  0  0  0  0  0  0  0
  157.0446  139.2520  184.9836 C   0  0  0  0  0  0  0  0  0  0  0  0
  155.7609  139.2471  184.4309 C   0  0  0  0  0  0  0  0  0  0  0  0
  154.6843  138.7699  185.1391 C   0  0  0  0  0  0  0  0  0  0  0  0
  152.4369  138.0948  186.7576 O   0  0  0  0  0  0  0  0  0  0  0  0
  153.7009  137.7864  187.1418 N   0  0  0  0  0  0  0  0  0  0  0  0
  153.8683  137.0624  188.1400 O   0  0  0  0  0  0  0  0  0  0  0  0
  159.8614  141.5605  183.7471 C   0  0  0  0  0  0  0  0  0  0  0  0
  160.6322  142.3907  184.7124 C   0  0  0  0  0  0  0  0  0  0  0  0
  160.4327  144.1085  184.2010 Cl  0  0  0  0  0  0  0  0  0  0  0  0
  160.1437  142.2851  186.3774 Cl  0  0  0  0  0  0  0  0  0  0  0  0
  162.3800  142.0605  184.6178 Cl  0  0  0  0  0  0  0  0  0  0  0  0
  159.1950  142.3391  182.3256 S   0  0  0  0  0  0  0  0  0  0  0  0
  157.5186  142.7756  182.3158 C   0  0  0  0  0  0  0  0  0  0  0  0
  157.1282  144.0915  182.4108 C   0  0  0  0  0  0  0  0  0  0  0  0
  155.7736  144.4451  182.4030 C   0  0  0  0  0  0  0  0  0  0  0  0
  154.8196  143.4710  182.2993 C   0  0  0  0  0  0  0  0  0  0  0  0
  153.1074  143.9335  182.2906 Cl  0  0  0  0  0  0  0  0  0  0  0  0
  155.1988  142.1670  182.2048 C   0  0  0  0  0  0  0  0  0  0  0  0
  156.5294  141.8382  182.2141 C   0  0  0  0  0  0  0  0  0  0  0  0
 11 12  1  0  0  0
 12 13  2  0  0  0
 12  5  1  0  0  0
  5  6  2  0  0  0
  6  7  1  0  0  0
  7  8  2  0  0  0
  8  9  1  0  0  0
  9 10  2  0  0  0
  8  1  1  0  0  0
  1  2  2  0  0  0
  1  3  1  0  0  0
  3 14  1  0  0  0
 14 19  1  0  0  0
 19 20  1  0  0  0
 20 21  2  0  0  0
 21 22  1  0  0  0
 22 23  2  0  0  0
 23 24  1  0  0  0
 23 25  1  0  0  0
 25 26  2  0  0  0
 14 15  1  0  0  0
 15 16  1  0  0  0
 15 17  1  0  0  0
 15 18  1  0  0  0
 10  5  1  0  0  0
 26 20  1  0  0  0
  3  4  1  0  0  0
M  CHG 1  11  -1
M  CHG 1  12   1
M  END
> <minimizedAffinity>
-6.64707

> <CNNscore>
0.4320899546

> <CNNaffinity>
6.2677659988

> <CNN_VS>
2.7082388401

> <CNNaffinity_variance>
0.1490776837

$$$$
[H]c1c([H])c(SC([H])(N([H])C(=O)c2c([H])c([H])c([N+](=O)[O-])c([H])c2[H])C(Cl)(Cl)Cl)c([H])c([H])c1Cl


 26 27  0  0  0  0  0  0  0  0999 V2000
  151.9012  138.4766  182.4053 C   0  0  0  0  0  0  0  0  0  0  0  0
  152.0823  137.2308  182.4682 O   0  0  0  0  0  0  0  0  0  0  0  0
  150.6352  138.9415  182.0804 N   0  0  0  0  0  0  0  0  0  0  0  0
  150.4255  139.9549  182.0135 H   0  0  0  0  0  0  0  0  0  0  0  0
  155.0647  141.2523  183.0899 C   0  0  0  0  0  0  0  0  0  0  0  0
  154.9646  140.1119  183.8420 C   0  0  0  0  0  0  0  0  0  0  0  0
  153.9441  139.2025  183.6314 C   0  0  0  0  0  0  0  0  0  0  0  0
  152.9899  139.3977  182.6662 C   0  0  0  0  0  0  0  0  0  0  0  0
  153.0948  140.5622  181.9005 C   0  0  0  0  0  0  0  0  0  0  0  0
  154.1104  141.4631  182.1130 C   0  0  0  0  0  0  0  0  0  0  0  0
  156.1220  143.3856  182.6396 O   0  0  0  0  0  0  0  0  0  0  0  0
  156.1114  142.1986  183.2962 N   0  0  0  0  0  0  0  0  0  0  0  0
  157.0347  141.9397  184.0896 O   0  0  0  0  0  0  0  0  0  0  0  0
  149.4887  138.0589  181.8045 C   0  0  0  0  0  0  0  0  0  0  0  0
  149.0986  138.3126  180.3907 C   0  0  0  0  0  0  0  0  0  0  0  0
  147.5264  139.1949  180.4320 Cl  0  0  0  0  0  0  0  0  0  0  0  0
  150.2045  139.2670  179.4483 Cl  0  0  0  0  0  0  0  0  0  0  0  0
  148.7765  136.7963  179.5132 Cl  0  0  0  0  0  0  0  0  0  0  0  0
  148.2972  138.3348  183.0594 S   0  0  0  0  0  0  0  0  0  0  0  0
  148.5526  137.6416  184.6264 C   0  0  0  0  0  0  0  0  0  0  0  0
  149.5874  136.7635  184.8528 C   0  0  0  0  0  0  0  0  0  0  0  0
  149.7945  136.2028  186.1189 C   0  0  0  0  0  0  0  0  0  0  0  0
  148.9580  136.5299  187.1499 C   0  0  0  0  0  0  0  0  0  0  0  0
  149.2323  135.8122  188.7484 Cl  0  0  0  0  0  0  0  0  0  0  0  0
  147.9322  137.3981  186.9329 C   0  0  0  0  0  0  0  0  0  0  0  0
  147.7436  137.9380  185.6871 C   0  0  0  0  0  0  0  0  0  0  0  0
 11 12  1  0  0  0
 12 13  2  0  0  0
 12  5  1  0  0  0
  5  6  2  0  0  0
  6  7  1  0  0  0
  7  8  2  0  0  0
  8  9  1  0  0  0
  9 10  2  0  0  0
  8  1  1  0  0  0
  1  2  2  0  0  0
  1  3  1  0  0  0
  3 14  1  0  0  0
 14 19  1  0  0  0
 19 20  1  0  0  0
 20 21  2  0  0  0
 21 22  1  0  0  0
 22 23  2  0  0  0
 23 24  1  0  0  0
 23 25  1  0  0  0
 25 26  2  0  0  0
 14 15  1  0  0  0
 15 16  1  0  0  0
 15 17  1  0  0  0
 15 18  1  0  0  0
 10  5  1  0  0  0
 26 20  1  0  0  0
  3  4  1  0  0  0
M  CHG 1  11  -1
M  CHG 1  12   1
M  END
> <minimizedAffinity>
-6.11731

> <CNNscore>
0.4266638160

> <CNNaffinity>
5.5450525284

> <CNN_VS>
2.3658733368

> <CNNaffinity_variance>
0.2252669632

$$$$
[H]c1c([H])c(SC([H])(N([H])C(=O)c2c([H])c([H])c([N+](=O)[O-])c([H])c2[H])C(Cl)(Cl)Cl)c([H])c([H])c1Cl


 26 27  0  0  0  0  0  0  0  0999 V2000
  155.3980  141.4900  182.5082 C   0  0  0  0  0  0  0  0  0  0  0  0
  154.6078  142.4200  182.1929 O   0  0  0  0  0  0  0  0  0  0  0  0
  156.7283  141.6012  182.1306 N   0  0  0  0  0  0  0  0  0  0  0  0
  157.4250  140.8685  182.3612 H   0  0  0  0  0  0  0  0  0  0  0  0
  153.9209  138.0866  184.6096 C   0  0  0  0  0  0  0  0  0  0  0  0
  155.0856  138.6935  184.9990 C   0  0  0  0  0  0  0  0  0  0  0  0
  155.5769  139.7980  184.3271 C   0  0  0  0  0  0  0  0  0  0  0  0
  154.9261  140.3349  183.2462 C   0  0  0  0  0  0  0  0  0  0  0  0
  153.7380  139.7135  182.8515 C   0  0  0  0  0  0  0  0  0  0  0  0
  153.2534  138.6163  183.5218 C   0  0  0  0  0  0  0  0  0  0  0  0
  153.7011  136.7166  186.5961 O   0  0  0  0  0  0  0  0  0  0  0  0
  153.4028  136.9473  185.2930 N   0  0  0  0  0  0  0  0  0  0  0  0
  152.6642  136.1458  184.6922 O   0  0  0  0  0  0  0  0  0  0  0  0
  157.2698  142.7474  181.3808 C   0  0  0  0  0  0  0  0  0  0  0  0
  158.2673  142.1883  180.4282 C   0  0  0  0  0  0  0  0  0  0  0  0
  157.4028  141.9063  178.8709 Cl  0  0  0  0  0  0  0  0  0  0  0  0
  159.6449  143.1907  180.0827 Cl  0  0  0  0  0  0  0  0  0  0  0  0
  158.8531  140.5890  180.9498 Cl  0  0  0  0  0  0  0  0  0  0  0  0
  157.8102  143.9348  182.5509 S   0  0  0  0  0  0  0  0  0  0  0  0
  159.1437  143.5465  183.5862 C   0  0  0  0  0  0  0  0  0  0  0  0
  160.1316  144.4684  183.8455 C   0  0  0  0  0  0  0  0  0  0  0  0
  161.2097  144.1554  184.6821 C   0  0  0  0  0  0  0  0  0  0  0  0
  161.2866  142.9153  185.2530 C   0  0  0  0  0  0  0  0  0  0  0  0
  162.6578  142.5326  186.3107 Cl  0  0  0  0  0  0  0  0  0  0  0  0
  160.3126  141.9983  185.0008 C   0  0  0  0  0  0  0  0  0  0  0  0
  159.2639  142.3212  184.1792 C   0  0  0  0  0  0  0  0  0  0  0  0
 11 12  1  0  0  0
 12 13  2  0  0  0
 12  5  1  0  0  0
  5  6  2  0  0  0
  6  7  1  0  0  0
  7  8  2  0  0  0
  8  9  1  0  0  0
  9 10  2  0  0  0
  8  1  1  0  0  0
  1  2  2  0  0  0
  1  3  1  0  0  0
  3 14  1  0  0  0
 14 19  1  0  0  0
 19 20  1  0  0  0
 20 21  2  0  0  0
 21 22  1  0  0  0
 22 23  2  0  0  0
 23 24  1  0  0  0
 23 25  1  0  0  0
 25 26  2  0  0  0
 14 15  1  0  0  0
 15 16  1  0  0  0
 15 17  1  0  0  0
 15 18  1  0  0  0
 10  5  1  0  0  0
 26 20  1  0  0  0
  3  4  1  0  0  0
M  CHG 1  11  -1
M  CHG 1  12   1
M  END
> <minimizedAffinity>
-7.31108

> <CNNscore>
0.4254920781

> <CNNaffinity>
6.5825376511

> <CNN_VS>
2.8008177280

> <CNNaffinity_variance>
0.0703330487

$$$$
[H]c1c(C([H])([H])n2c(=O)c3c(nc([H])n3[C@]([H])(C(=O)N([H])c3nc(-c4noc(C(F)(F)F)n4)c([H])c([H])c3[H])C([H])([H])[H])n(C([H])([H])[H])c2=O)noc1C([H])([H])[H]


 40 44  0  0  0  0  0  0  0  0999 V2000
  155.4665  138.4567  185.6437 C   0  0  0  0  0  0  0  0  0  0  0  0
  154.6219  137.8554  186.7745 C   0  0  0  0  0  0  0  0  0  0  0  0
  155.3953  136.9752  187.5728 N   0  0  0  0  0  0  0  0  0  0  0  0
  156.4361  136.1842  187.3054 C   0  0  0  0  0  0  0  0  0  0  0  0
  156.8276  135.4857  188.3705 N   0  0  0  0  0  0  0  0  0  0  0  0
  156.0252  135.8140  189.4048 C   0  0  0  0  0  0  0  0  0  0  0  0
  156.0179  135.4214  190.6995 N   0  0  0  0  0  0  0  0  0  0  0  0
  156.9556  134.4180  191.1396 C   0  0  0  0  0  0  0  0  0  0  0  0
  155.1250  135.9561  191.5396 C   0  0  0  0  0  0  0  0  0  0  0  0
  155.1151  135.5885  192.7655 O   0  0  0  0  0  0  0  0  0  0  0  0
  154.2339  136.8702  191.1293 N   0  0  0  0  0  0  0  0  0  0  0  0
  154.2368  137.2555  189.8284 C   0  0  0  0  0  0  0  0  0  0  0  0
  153.4052  138.1111  189.4195 O   0  0  0  0  0  0  0  0  0  0  0  0
  155.1268  136.7517  188.8989 C   0  0  0  0  0  0  0  0  0  0  0  0
  153.3250  137.5064  192.0397 C   0  0  0  0  0  0  0  0  0  0  0  0
  152.0733  136.8131  192.3040 C   0  0  0  0  0  0  0  0  0  0  0  0
  151.7928  136.2901  193.5886 C   0  0  0  0  0  0  0  0  0  0  0  0
  150.5560  135.6944  193.5352 C   0  0  0  0  0  0  0  0  0  0  0  0
  149.8267  135.0041  194.6635 C   0  0  0  0  0  0  0  0  0  0  0  0
  150.1285  135.8502  192.3041 O   0  0  0  0  0  0  0  0  0  0  0  0
  150.9973  136.4985  191.5759 N   0  0  0  0  0  0  0  0  0  0  0  0
  153.4074  137.3108  186.1565 C   0  0  0  0  0  0  0  0  0  0  0  0
  153.6148  136.6836  185.0442 O   0  0  0  0  0  0  0  0  0  0  0  0
  152.0962  137.3670  186.5779 N   0  0  0  0  0  0  0  0  0  0  0  0
  151.8325  137.8525  187.4569 H   0  0  0  0  0  0  0  0  0  0  0  0
  151.0344  136.8297  185.8264 C   0  0  0  0  0  0  0  0  0  0  0  0
  150.3707  135.7428  186.3291 C   0  0  0  0  0  0  0  0  0  0  0  0
  149.2695  135.2060  185.6703 C   0  0  0  0  0  0  0  0  0  0  0  0
  148.8703  135.7917  184.5111 C   0  0  0  0  0  0  0  0  0  0  0  0
  149.5409  136.8808  184.0127 C   0  0  0  0  0  0  0  0  0  0  0  0
  150.6031  137.3752  184.6751 N   0  0  0  0  0  0  0  0  0  0  0  0
  148.9907  137.5570  182.8316 C   0  0  0  0  0  0  0  0  0  0  0  0
  148.3209  138.7455  182.8630 N   0  0  0  0  0  0  0  0  0  0  0  0
  148.0854  139.0552  181.6260 O   0  0  0  0  0  0  0  0  0  0  0  0
  148.5524  138.1540  180.7990 C   0  0  0  0  0  0  0  0  0  0  0  0
  149.1222  137.2033  181.5570 N   0  0  0  0  0  0  0  0  0  0  0  0
  148.4579  138.2145  179.2983 C   0  0  0  0  0  0  0  0  0  0  0  0
  149.4600  139.0124  178.8383 F   0  0  0  0  0  0  0  0  0  0  0  0
  148.6626  136.8955  178.8369 F   0  0  0  0  0  0  0  0  0  0  0  0
  147.2110  138.6208  178.9247 F   0  0  0  0  0  0  0  0  0  0  0  0
  1  2  1  0  0  0
  2 22  1  0  0  0
 22 23  2  0  0  0
 22 24  1  0  0  0
 24 26  1  0  0  0
 26 27  2  0  0  0
 27 28  1  0  0  0
 28 29  2  0  0  0
 29 30  1  0  0  0
 30 31  2  0  0  0
 30 32  1  0  0  0
 32 33  2  0  0  0
 33 34  1  0  0  0
 34 35  1  0  0  0
 35 36  2  0  0  0
 35 37  1  0  0  0
 37 38  1  0  0  0
 37 39  1  0  0  0
 37 40  1  0  0  0
  2  3  1  0  0  0
  3  4  1  0  0  0
  4  5  2  0  0  0
  5  6  1  0  0  0
  6  7  1  0  0  0
  7  8  1  0  0  0
  7  9  1  0  0  0
  9 10  2  0  0  0
  9 11  1  0  0  0
 11 15  1  0  0  0
 15 16  1  0  0  0
 16 17  1  0  0  0
 17 18  2  0  0  0
 18 19  1  0  0  0
 18 20  1  0  0  0
 20 21  1  0  0  0
 11 12  1  0  0  0
 12 13  2  0  0  0
 12 14  1  0  0  0
 31 26  1  0  0  0
 36 32  1  0  0  0
 14  3  1  0  0  0
 14  6  2  0  0  0
 21 16  2  0  0  0
 24 25  1  0  0  0
M  END
> <minimizedAffinity>
-5.86498

> <CNNscore>
0.5092122555

> <CNNaffinity>
6.2434949875

> <CNN_VS>
3.1792640686

> <CNNaffinity_variance>
0.0405033305

$$$$
[H]c1c(C([H])([H])n2c(=O)c3c(nc([H])n3[C@]([H])(C(=O)N([H])c3nc(-c4noc(C(F)(F)F)n4)c([H])c([H])c3[H])C([H])([H])[H])n(C([H])([H])[H])c2=O)noc1C([H])([H])[H]


 40 44  0  0  0  0  0  0  0  0999 V2000
  152.1468  137.6373  185.9311 C   0  0  0  0  0  0  0  0  0  0  0  0
  152.8949  137.0677  184.7188 C   0  0  0  0  0  0  0  0  0  0  0  0
  153.6447  135.9195  185.0787 N   0  0  0  0  0  0  0  0  0  0  0  0
  153.7170  134.6868  184.5731 C   0  0  0  0  0  0  0  0  0  0  0  0
  154.5390  133.9020  185.2688 N   0  0  0  0  0  0  0  0  0  0  0  0
  155.0490  134.6270  186.2864 C   0  0  0  0  0  0  0  0  0  0  0  0
  155.9451  134.3187  187.2521 N   0  0  0  0  0  0  0  0  0  0  0  0
  156.4563  132.9730  187.3388 C   0  0  0  0  0  0  0  0  0  0  0  0
  156.3208  135.2636  188.1209 C   0  0  0  0  0  0  0  0  0  0  0  0
  157.1690  134.9766  189.0355 O   0  0  0  0  0  0  0  0  0  0  0  0
  155.8285  136.5093  188.0607 N   0  0  0  0  0  0  0  0  0  0  0  0
  154.9229  136.8138  187.0973 C   0  0  0  0  0  0  0  0  0  0  0  0
  154.4436  137.9783  187.0240 O   0  0  0  0  0  0  0  0  0  0  0  0
  154.4848  135.8953  186.1624 C   0  0  0  0  0  0  0  0  0  0  0  0
  156.2843  137.5491  188.9385 C   0  0  0  0  0  0  0  0  0  0  0  0
  155.4696  137.8147  190.1145 C   0  0  0  0  0  0  0  0  0  0  0  0
  154.4280  136.9326  190.4879 C   0  0  0  0  0  0  0  0  0  0  0  0
  153.8390  137.4389  191.6211 C   0  0  0  0  0  0  0  0  0  0  0  0
  152.6867  136.8425  192.3943 C   0  0  0  0  0  0  0  0  0  0  0  0
  154.4837  138.5466  191.9039 O   0  0  0  0  0  0  0  0  0  0  0  0
  155.4343  138.7793  191.0393 N   0  0  0  0  0  0  0  0  0  0  0  0
  153.6255  138.1830  184.1059 C   0  0  0  0  0  0  0  0  0  0  0  0
  153.9269  137.9985  182.8615 O   0  0  0  0  0  0  0  0  0  0  0  0
  154.0335  139.3819  184.6505 N   0  0  0  0  0  0  0  0  0  0  0  0
  153.8400  139.6170  185.6430 H   0  0  0  0  0  0  0  0  0  0  0  0
  154.7808  140.3288  183.9254 C   0  0  0  0  0  0  0  0  0  0  0  0
  154.1024  141.2928  183.2289 C   0  0  0  0  0  0  0  0  0  0  0  0
  154.7808  142.2984  182.5483 C   0  0  0  0  0  0  0  0  0  0  0  0
  156.1388  142.2971  182.5941 C   0  0  0  0  0  0  0  0  0  0  0  0
  156.8123  141.3271  183.2941 C   0  0  0  0  0  0  0  0  0  0  0  0
  156.1251  140.3680  183.9414 N   0  0  0  0  0  0  0  0  0  0  0  0
  158.2698  141.4467  183.4234 C   0  0  0  0  0  0  0  0  0  0  0  0
  159.1663  141.0262  182.4845 N   0  0  0  0  0  0  0  0  0  0  0  0
  160.3332  141.3914  182.9166 O   0  0  0  0  0  0  0  0  0  0  0  0
  160.2559  142.0150  184.0653 C   0  0  0  0  0  0  0  0  0  0  0  0
  158.9538  142.0488  184.3911 N   0  0  0  0  0  0  0  0  0  0  0  0
  161.4216  142.5780  184.8326 C   0  0  0  0  0  0  0  0  0  0  0  0
  161.3774  143.9354  184.7428 F   0  0  0  0  0  0  0  0  0  0  0  0
  161.2310  142.1930  186.1780 F   0  0  0  0  0  0  0  0  0  0  0  0
  162.5862  142.0310  184.3810 F   0  0  0  0  0  0  0  0  0  0  0  0
  1  2  1  0  0  0
  2 22  1  0  0  0
 22 23  2  0  0  0
 22 24  1  0  0  0
 24 26  1  0  0  0
 26 27  2  0  0  0
 27 28  1  0  0  0
 28 29  2  0  0  0
 29 30  1  0  0  0
 30 31  2  0  0  0
 30 32  1  0  0  0
 32 33  2  0  0  0
 33 34  1  0  0  0
 34 35  1  0  0  0
 35 36  2  0  0  0
 35 37  1  0  0  0
 37 38  1  0  0  0
 37 39  1  0  0  0
 37 40  1  0  0  0
  2  3  1  0  0  0
  3  4  1  0  0  0
  4  5  2  0  0  0
  5  6  1  0  0  0
  6  7  1  0  0  0
  7  8  1  0  0  0
  7  9  1  0  0  0
  9 10  2  0  0  0
  9 11  1  0  0  0
 11 15  1  0  0  0
 15 16  1  0  0  0
 16 17  1  0  0  0
 17 18  2  0  0  0
 18 19  1  0  0  0
 18 20  1  0  0  0
 20 21  1  0  0  0
 11 12  1  0  0  0
 12 13  2  0  0  0
 12 14  1  0  0  0
 31 26  1  0  0  0
 36 32  1  0  0  0
 14  3  1  0  0  0
 14  6  2  0  0  0
 21 16  2  0  0  0
 24 25  1  0  0  0
M  END
> <minimizedAffinity>
-8.34801

> <CNNscore>
0.3769324422

> <CNNaffinity>
6.8281097412

> <CNN_VS>
2.5737361908

> <CNNaffinity_variance>
0.2031492293

$$$$
[H]c1c(C([H])([H])n2c(=O)c3c(nc([H])n3[C@]([H])(C(=O)N([H])c3nc(-c4noc(C(F)(F)F)n4)c([H])c([H])c3[H])C([H])([H])[H])n(C([H])([H])[H])c2=O)noc1C([H])([H])[H]


 40 44  0  0  0  0  0  0  0  0999 V2000
  152.6328  135.9645  186.5614 C   0  0  0  0  0  0  0  0  0  0  0  0
  153.9644  135.6512  185.8669 C   0  0  0  0  0  0  0  0  0  0  0  0
  154.8744  135.0401  186.7660 N   0  0  0  0  0  0  0  0  0  0  0  0
  155.7643  134.0555  186.6283 C   0  0  0  0  0  0  0  0  0  0  0  0
  156.3867  133.7724  187.7720 N   0  0  0  0  0  0  0  0  0  0  0  0
  155.9052  134.5965  188.7262 C   0  0  0  0  0  0  0  0  0  0  0  0
  156.2204  134.7425  190.0337 N   0  0  0  0  0  0  0  0  0  0  0  0
  157.1873  133.8550  190.6315 C   0  0  0  0  0  0  0  0  0  0  0  0
  155.6112  135.6931  190.7508 C   0  0  0  0  0  0  0  0  0  0  0  0
  155.9070  135.8355  191.9879 O   0  0  0  0  0  0  0  0  0  0  0  0
  154.6924  136.5036  190.2062 N   0  0  0  0  0  0  0  0  0  0  0  0
  154.3709  136.3493  188.8970 C   0  0  0  0  0  0  0  0  0  0  0  0
  153.5066  137.0981  188.3647 O   0  0  0  0  0  0  0  0  0  0  0  0
  154.9553  135.3927  188.0889 C   0  0  0  0  0  0  0  0  0  0  0  0
  154.0916  137.5761  190.9467 C   0  0  0  0  0  0  0  0  0  0  0  0
  152.9633  137.2303  191.7978 C   0  0  0  0  0  0  0  0  0  0  0  0
  151.9700  136.3266  191.3514 C   0  0  0  0  0  0  0  0  0  0  0  0
  151.0407  136.1994  192.3551 C   0  0  0  0  0  0  0  0  0  0  0  0
  149.7998  135.3383  192.3454 C   0  0  0  0  0  0  0  0  0  0  0  0
  151.4503  136.9739  193.3324 O   0  0  0  0  0  0  0  0  0  0  0  0
  152.5658  137.5795  193.0254 N   0  0  0  0  0  0  0  0  0  0  0  0
  154.4005  136.8858  185.2043 C   0  0  0  0  0  0  0  0  0  0  0  0
  154.3038  136.8572  183.9145 O   0  0  0  0  0  0  0  0  0  0  0  0
  154.8916  138.0557  185.7431 N   0  0  0  0  0  0  0  0  0  0  0  0
  155.0082  138.1700  186.7683 H   0  0  0  0  0  0  0  0  0  0  0  0
  155.3176  139.1364  184.9484 C   0  0  0  0  0  0  0  0  0  0  0  0
  154.3638  139.9443  184.3895 C   0  0  0  0  0  0  0  0  0  0  0  0
  154.7181  141.0683  183.6508 C   0  0  0  0  0  0  0  0  0  0  0  0
  156.0402  141.3426  183.4988 C   0  0  0  0  0  0  0  0  0  0  0  0
  156.9909  140.5278  184.0616 C   0  0  0  0  0  0  0  0  0  0  0  0
  156.6139  139.4476  184.7702 N   0  0  0  0  0  0  0  0  0  0  0  0
  158.3975  140.9403  183.9817 C   0  0  0  0  0  0  0  0  0  0  0  0
  159.1700  140.8408  182.8612 N   0  0  0  0  0  0  0  0  0  0  0  0
  160.3051  141.3917  183.1602 O   0  0  0  0  0  0  0  0  0  0  0  0
  160.3227  141.8380  184.3910 C   0  0  0  0  0  0  0  0  0  0  0  0
  159.1201  141.5514  184.9151 N   0  0  0  0  0  0  0  0  0  0  0  0
  161.4806  142.5392  185.0485 C   0  0  0  0  0  0  0  0  0  0  0  0
  161.3221  143.8801  184.8768 F   0  0  0  0  0  0  0  0  0  0  0  0
  161.3978  142.2320  186.4245 F   0  0  0  0  0  0  0  0  0  0  0  0
  162.6581  142.0541  184.5613 F   0  0  0  0  0  0  0  0  0  0  0  0
  1  2  1  0  0  0
  2 22  1  0  0  0
 22 23  2  0  0  0
 22 24  1  0  0  0
 24 26  1  0  0  0
 26 27  2  0  0  0
 27 28  1  0  0  0
 28 29  2  0  0  0
 29 30  1  0  0  0
 30 31  2  0  0  0
 30 32  1  0  0  0
 32 33  2  0  0  0
 33 34  1  0  0  0
 34 35  1  0  0  0
 35 36  2  0  0  0
 35 37  1  0  0  0
 37 38  1  0  0  0
 37 39  1  0  0  0
 37 40  1  0  0  0
  2  3  1  0  0  0
  3  4  1  0  0  0
  4  5  2  0  0  0
  5  6  1  0  0  0
  6  7  1  0  0  0
  7  8  1  0  0  0
  7  9  1  0  0  0
  9 10  2  0  0  0
  9 11  1  0  0  0
 11 15  1  0  0  0
 15 16  1  0  0  0
 16 17  1  0  0  0
 17 18  2  0  0  0
 18 19  1  0  0  0
 18 20  1  0  0  0
 20 21  1  0  0  0
 11 12  1  0  0  0
 12 13  2  0  0  0
 12 14  1  0  0  0
 31 26  1  0  0  0
 36 32  1  0  0  0
 14  3  1  0  0  0
 14  6  2  0  0  0
 21 16  2  0  0  0
 24 25  1  0  0  0
M  END
> <minimizedAffinity>
-8.45310

> <CNNscore>
0.3648686707

> <CNNaffinity>
6.6501951218

> <CNN_VS>
2.4264478683

> <CNNaffinity_variance>
0.2134342641

$$$$
[H]c1c(C([H])([H])n2c(=O)c3c(nc([H])n3[C@]([H])(C(=O)N([H])c3nc(-c4noc(C(F)(F)F)n4)c([H])c([H])c3[H])C([H])([H])[H])n(C([H])([H])[H])c2=O)noc1C([H])([H])[H]


 40 44  0  0  0  0  0  0  0  0999 V2000
  154.6605  139.9117  184.5696 C   0  0  0  0  0  0  0  0  0  0  0  0
  154.6298  140.2046  183.0639 C   0  0  0  0  0  0  0  0  0  0  0  0
  154.9511  141.5608  182.8040 N   0  0  0  0  0  0  0  0  0  0  0  0
  154.2136  142.6202  182.4662 C   0  0  0  0  0  0  0  0  0  0  0  0
  154.9535  143.7121  182.2768 N   0  0  0  0  0  0  0  0  0  0  0  0
  156.2448  143.3864  182.4959 C   0  0  0  0  0  0  0  0  0  0  0  0
  157.3775  144.1258  182.4700 N   0  0  0  0  0  0  0  0  0  0  0  0
  157.3082  145.5123  182.0795 C   0  0  0  0  0  0  0  0  0  0  0  0
  158.5421  143.5486  182.7854 C   0  0  0  0  0  0  0  0  0  0  0  0
  159.6161  144.2445  182.7633 O   0  0  0  0  0  0  0  0  0  0  0  0
  158.6155  142.2532  183.1237 N   0  0  0  0  0  0  0  0  0  0  0  0
  157.4796  141.5112  183.1398 C   0  0  0  0  0  0  0  0  0  0  0  0
  157.5254  140.2898  183.4514 O   0  0  0  0  0  0  0  0  0  0  0  0
  156.2384  142.0329  182.8282 C   0  0  0  0  0  0  0  0  0  0  0  0
  159.8474  141.6456  183.5392 C   0  0  0  0  0  0  0  0  0  0  0  0
  160.3238  141.9810  184.8726 C   0  0  0  0  0  0  0  0  0  0  0  0
  161.6973  142.2246  185.1105 C   0  0  0  0  0  0  0  0  0  0  0  0
  161.8449  142.5090  186.4465 C   0  0  0  0  0  0  0  0  0  0  0  0
  163.1272  142.8426  187.1717 C   0  0  0  0  0  0  0  0  0  0  0  0
  160.6432  142.4392  186.9696 O   0  0  0  0  0  0  0  0  0  0  0  0
  159.7479  142.1342  186.0692 N   0  0  0  0  0  0  0  0  0  0  0  0
  153.3439  139.7095  182.5592 C   0  0  0  0  0  0  0  0  0  0  0  0
  152.9472  138.6084  183.1104 O   0  0  0  0  0  0  0  0  0  0  0  0
  152.5067  140.2348  181.5984 N   0  0  0  0  0  0  0  0  0  0  0  0
  152.7435  141.1136  181.0988 H   0  0  0  0  0  0  0  0  0  0  0  0
  151.3209  139.5940  181.1932 C   0  0  0  0  0  0  0  0  0  0  0  0
  151.0943  139.4400  179.8517 C   0  0  0  0  0  0  0  0  0  0  0  0
  149.9765  138.7555  179.3863 C   0  0  0  0  0  0  0  0  0  0  0  0
  149.1137  138.2430  180.3023 C   0  0  0  0  0  0  0  0  0  0  0  0
  149.3470  138.4018  181.6457 C   0  0  0  0  0  0  0  0  0  0  0  0
  150.4383  139.0700  182.0625 N   0  0  0  0  0  0  0  0  0  0  0  0
  148.4589  137.7165  182.5927 C   0  0  0  0  0  0  0  0  0  0  0  0
  147.2747  137.1284  182.2551 N   0  0  0  0  0  0  0  0  0  0  0  0
  146.8414  136.5536  183.3337 O   0  0  0  0  0  0  0  0  0  0  0  0
  147.6577  136.7285  184.3424 C   0  0  0  0  0  0  0  0  0  0  0  0
  148.6796  137.4662  183.8794 N   0  0  0  0  0  0  0  0  0  0  0  0
  147.4582  136.1834  185.7309 C   0  0  0  0  0  0  0  0  0  0  0  0
  146.8115  134.9898  185.6331 F   0  0  0  0  0  0  0  0  0  0  0  0
  148.7502  135.9721  186.2608 F   0  0  0  0  0  0  0  0  0  0  0  0
  146.8119  137.1014  186.5048 F   0  0  0  0  0  0  0  0  0  0  0  0
  1  2  1  0  0  0
  2 22  1  0  0  0
 22 23  2  0  0  0
 22 24  1  0  0  0
 24 26  1  0  0  0
 26 27  2  0  0  0
 27 28  1  0  0  0
 28 29  2  0  0  0
 29 30  1  0  0  0
 30 31  2  0  0  0
 30 32  1  0  0  0
 32 33  2  0  0  0
 33 34  1  0  0  0
 34 35  1  0  0  0
 35 36  2  0  0  0
 35 37  1  0  0  0
 37 38  1  0  0  0
 37 39  1  0  0  0
 37 40  1  0  0  0
  2  3  1  0  0  0
  3  4  1  0  0  0
  4  5  2  0  0  0
  5  6  1  0  0  0
  6  7  1  0  0  0
  7  8  1  0  0  0
  7  9  1  0  0  0
  9 10  2  0  0  0
  9 11  1  0  0  0
 11 15  1  0  0  0
 15 16  1  0  0  0
 16 17  1  0  0  0
 17 18  2  0  0  0
 18 19  1  0  0  0
 18 20  1  0  0  0
 20 21  1  0  0  0
 11 12  1  0  0  0
 12 13  2  0  0  0
 12 14  1  0  0  0
 31 26  1  0  0  0
 36 32  1  0  0  0
 14  3  1  0  0  0
 14  6  2  0  0  0
 21 16  2  0  0  0
 24 25  1  0  0  0
M  END
> <minimizedAffinity>
-8.94303

> <CNNscore>
0.3550702631

> <CNNaffinity>
6.7980966568

> <CNN_VS>
2.4138019085

> <CNNaffinity_variance>
0.1621303260

$$$$
[H]c1c(C([H])([H])n2c(=O)c3c(nc([H])n3[C@]([H])(C(=O)N([H])c3nc(-c4noc(C(F)(F)F)n4)c([H])c([H])c3[H])C([H])([H])[H])n(C([H])([H])[H])c2=O)noc1C([H])([H])[H]


 40 44  0  0  0  0  0  0  0  0999 V2000
  155.9495  138.3582  186.6791 C   0  0  0  0  0  0  0  0  0  0  0  0
  154.9171  137.8229  187.6796 C   0  0  0  0  0  0  0  0  0  0  0  0
  155.3787  136.6336  188.2980 N   0  0  0  0  0  0  0  0  0  0  0  0
  156.3693  135.7866  188.0119 C   0  0  0  0  0  0  0  0  0  0  0  0
  156.4150  134.7574  188.8571 N   0  0  0  0  0  0  0  0  0  0  0  0
  155.4195  134.9087  189.7556 C   0  0  0  0  0  0  0  0  0  0  0  0
  155.0547  134.1705  190.8291 N   0  0  0  0  0  0  0  0  0  0  0  0
  155.7506  132.9390  191.1101 C   0  0  0  0  0  0  0  0  0  0  0  0
  154.0402  134.5873  191.5947 C   0  0  0  0  0  0  0  0  0  0  0  0
  153.6923  133.8927  192.6119 O   0  0  0  0  0  0  0  0  0  0  0  0
  153.3730  135.7181  191.3226 N   0  0  0  0  0  0  0  0  0  0  0  0
  153.7344  136.4519  190.2401 C   0  0  0  0  0  0  0  0  0  0  0  0
  153.1184  137.5172  189.9628 O   0  0  0  0  0  0  0  0  0  0  0  0
  154.7711  136.0903  189.4009 C   0  0  0  0  0  0  0  0  0  0  0  0
  152.3360  136.2133  192.1821 C   0  0  0  0  0  0  0  0  0  0  0  0
  151.0197  135.6117  192.0311 C   0  0  0  0  0  0  0  0  0  0  0  0
  150.4466  135.4367  190.7491 C   0  0  0  0  0  0  0  0  0  0  0  0
  149.2134  134.8557  190.9196 C   0  0  0  0  0  0  0  0  0  0  0  0
  148.2301  134.4697  189.8401 C   0  0  0  0  0  0  0  0  0  0  0  0
  149.0608  134.6959  192.2133 O   0  0  0  0  0  0  0  0  0  0  0  0
  150.1009  135.1291  192.8735 N   0  0  0  0  0  0  0  0  0  0  0  0
  153.6323  137.7587  186.9735 C   0  0  0  0  0  0  0  0  0  0  0  0
  153.0166  138.8934  186.8901 O   0  0  0  0  0  0  0  0  0  0  0  0
  152.9917  136.6847  186.3937 N   0  0  0  0  0  0  0  0  0  0  0  0
  153.4074  135.7336  186.4140 H   0  0  0  0  0  0  0  0  0  0  0  0
  151.7220  136.7914  185.7959 C   0  0  0  0  0  0  0  0  0  0  0  0
  150.6184  136.5827  186.5789 C   0  0  0  0  0  0  0  0  0  0  0  0
  149.3346  136.7401  186.0671 C   0  0  0  0  0  0  0  0  0  0  0  0
  149.2063  137.1074  184.7652 C   0  0  0  0  0  0  0  0  0  0  0  0
  150.3173  137.3144  183.9860 C   0  0  0  0  0  0  0  0  0  0  0  0
  151.5453  137.1530  184.5125 N   0  0  0  0  0  0  0  0  0  0  0  0
  150.1277  137.8383  182.6278 C   0  0  0  0  0  0  0  0  0  0  0  0
  148.9616  137.7571  181.9236 N   0  0  0  0  0  0  0  0  0  0  0  0
  149.1633  138.4119  180.8227 O   0  0  0  0  0  0  0  0  0  0  0  0
  150.3735  138.9083  180.7638 C   0  0  0  0  0  0  0  0  0  0  0  0
  150.9877  138.5448  181.9012 N   0  0  0  0  0  0  0  0  0  0  0  0
  150.9257  139.7293  179.6299 C   0  0  0  0  0  0  0  0  0  0  0  0
  150.1944  139.4631  178.5133 F   0  0  0  0  0  0  0  0  0  0  0  0
  150.7427  141.0809  179.9962 F   0  0  0  0  0  0  0  0  0  0  0  0
  152.2606  139.4907  179.4872 F   0  0  0  0  0  0  0  0  0  0  0  0
  1  2  1  0  0  0
  2 22  1  0  0  0
 22 23  2  0  0  0
 22 24  1  0  0  0
 24 26  1  0  0  0
 26 27  2  0  0  0
 27 28  1  0  0  0
 28 29  2  0  0  0
 29 30  1  0  0  0
 30 31  2  0  0  0
 30 32  1  0  0  0
 32 33  2  0  0  0
 33 34  1  0  0  0
 34 35  1  0  0  0
 35 36  2  0  0  0
 35 37  1  0  0  0
 37 38  1  0  0  0
 37 39  1  0  0  0
 37 40  1  0  0  0
  2  3  1  0  0  0
  3  4  1  0  0  0
  4  5  2  0  0  0
  5  6  1  0  0  0
  6  7  1  0  0  0
  7  8  1  0  0  0
  7  9  1  0  0  0
  9 10  2  0  0  0
  9 11  1  0  0  0
 11 15  1  0  0  0
 15 16  1  0  0  0
 16 17  1  0  0  0
 17 18  2  0  0  0
 18 19  1  0  0  0
 18 20  1  0  0  0
 20 21  1  0  0  0
 11 12  1  0  0  0
 12 13  2  0  0  0
 12 14  1  0  0  0
 31 26  1  0  0  0
 36 32  1  0  0  0
 14  3  1  0  0  0
 14  6  2  0  0  0
 21 16  2  0  0  0
 24 25  1  0  0  0
M  END
> <minimizedAffinity>
-6.37935

> <CNNscore>
0.3501366079

> <CNNaffinity>
6.0120782852

> <CNN_VS>
2.1050486565

> <CNNaffinity_variance>
0.1269263327

$$$$
[H]c1c(C([H])([H])n2c(=O)c3c(nc([H])n3[C@]([H])(C(=O)N([H])c3nc(-c4noc(C(F)(F)F)n4)c([H])c([H])c3[H])C([H])([H])[H])n(C([H])([H])[H])c2=O)noc1C([H])([H])[H]


 40 44  0  0  0  0  0  0  0  0999 V2000
  154.3167  139.8467  184.4802 C   0  0  0  0  0  0  0  0  0  0  0  0
  154.4503  140.1276  182.9779 C   0  0  0  0  0  0  0  0  0  0  0  0
  154.7728  141.4880  182.7426 N   0  0  0  0  0  0  0  0  0  0  0  0
  154.0360  142.5547  182.4271 C   0  0  0  0  0  0  0  0  0  0  0  0
  154.7771  143.6489  182.2559 N   0  0  0  0  0  0  0  0  0  0  0  0
  156.0684  143.3171  182.4648 C   0  0  0  0  0  0  0  0  0  0  0  0
  157.2023  144.0551  182.4493 N   0  0  0  0  0  0  0  0  0  0  0  0
  157.1340  145.4489  182.0852 C   0  0  0  0  0  0  0  0  0  0  0  0
  158.3669  143.4703  182.7500 C   0  0  0  0  0  0  0  0  0  0  0  0
  159.4420  144.1648  182.7377 O   0  0  0  0  0  0  0  0  0  0  0  0
  158.4393  142.1686  183.0637 N   0  0  0  0  0  0  0  0  0  0  0  0
  157.3023  141.4283  183.0694 C   0  0  0  0  0  0  0  0  0  0  0  0
  157.3472  140.2011  183.3577 O   0  0  0  0  0  0  0  0  0  0  0  0
  156.0610  141.9576  182.7716 C   0  0  0  0  0  0  0  0  0  0  0  0
  159.6715  141.5515  183.4638 C   0  0  0  0  0  0  0  0  0  0  0  0
  160.1781  141.8994  184.7827 C   0  0  0  0  0  0  0  0  0  0  0  0
  161.5533  142.1662  184.9829 C   0  0  0  0  0  0  0  0  0  0  0  0
  161.7321  142.4579  186.3134 C   0  0  0  0  0  0  0  0  0  0  0  0
  163.0277  142.8149  187.0027 C   0  0  0  0  0  0  0  0  0  0  0  0
  160.5462  142.3705  186.8689 O   0  0  0  0  0  0  0  0  0  0  0  0
  159.6322  142.0476  185.9939 N   0  0  0  0  0  0  0  0  0  0  0  0
  153.2390  139.6031  182.3366 C   0  0  0  0  0  0  0  0  0  0  0  0
  152.5184  138.8495  183.1024 O   0  0  0  0  0  0  0  0  0  0  0  0
  152.7606  139.7904  181.0575 N   0  0  0  0  0  0  0  0  0  0  0  0
  153.2730  140.3763  180.3705 H   0  0  0  0  0  0  0  0  0  0  0  0
  151.5937  139.1615  180.5846 C   0  0  0  0  0  0  0  0  0  0  0  0
  150.9356  139.7296  179.5268 C   0  0  0  0  0  0  0  0  0  0  0  0
  149.8161  139.1223  178.9677 C   0  0  0  0  0  0  0  0  0  0  0  0
  149.3928  137.9469  179.5021 C   0  0  0  0  0  0  0  0  0  0  0  0
  150.0573  137.3835  180.5630 C   0  0  0  0  0  0  0  0  0  0  0  0
  151.1372  137.9976  181.0806 N   0  0  0  0  0  0  0  0  0  0  0  0
  149.6420  136.0504  181.0164 C   0  0  0  0  0  0  0  0  0  0  0  0
  149.2331  135.0450  180.1894 N   0  0  0  0  0  0  0  0  0  0  0  0
  149.0489  134.0105  180.9492 O   0  0  0  0  0  0  0  0  0  0  0  0
  149.3074  134.2744  182.2054 C   0  0  0  0  0  0  0  0  0  0  0  0
  149.6789  135.5638  182.2529 N   0  0  0  0  0  0  0  0  0  0  0  0
  149.2057  133.2932  183.3419 C   0  0  0  0  0  0  0  0  0  0  0  0
  149.3946  132.0407  182.8439 F   0  0  0  0  0  0  0  0  0  0  0  0
  150.2593  133.6066  184.2287 F   0  0  0  0  0  0  0  0  0  0  0  0
  148.0200  133.4562  183.9952 F   0  0  0  0  0  0  0  0  0  0  0  0
  1  2  1  0  0  0
  2 22  1  0  0  0
 22 23  2  0  0  0
 22 24  1  0  0  0
 24 26  1  0  0  0
 26 27  2  0  0  0
 27 28  1  0  0  0
 28 29  2  0  0  0
 29 30  1  0  0  0
 30 31  2  0  0  0
 30 32  1  0  0  0
 32 33  2  0  0  0
 33 34  1  0  0  0
 34 35  1  0  0  0
 35 36  2  0  0  0
 35 37  1  0  0  0
 37 38  1  0  0  0
 37 39  1  0  0  0
 37 40  1  0  0  0
  2  3  1  0  0  0
  3  4  1  0  0  0
  4  5  2  0  0  0
  5  6  1  0  0  0
  6  7  1  0  0  0
  7  8  1  0  0  0
  7  9  1  0  0  0
  9 10  2  0  0  0
  9 11  1  0  0  0
 11 15  1  0  0  0
 15 16  1  0  0  0
 16 17  1  0  0  0
 17 18  2  0  0  0
 18 19  1  0  0  0
 18 20  1  0  0  0
 20 21  1  0  0  0
 11 12  1  0  0  0
 12 13  2  0  0  0
 12 14  1  0  0  0
 31 26  1  0  0  0
 36 32  1  0  0  0
 14  3  1  0  0  0
 14  6  2  0  0  0
 21 16  2  0  0  0
 24 25  1  0  0  0
M  END
> <minimizedAffinity>
-8.60998

> <CNNscore>
0.3138797283

> <CNNaffinity>
6.7360076904

> <CNN_VS>
2.1142961979

> <CNNaffinity_variance>
0.0938448980

$$$$
[H]c1c(C([H])([H])n2c(=O)c3c(nc([H])n3[C@]([H])(C(=O)N([H])c3nc(-c4noc(C(F)(F)F)n4)c([H])c([H])c3[H])C([H])([H])[H])n(C([H])([H])[H])c2=O)noc1C([H])([H])[H]


 40 44  0  0  0  0  0  0  0  0999 V2000
  156.8819  139.1021  186.0313 C   0  0  0  0  0  0  0  0  0  0  0  0
  155.8163  138.8908  184.9480 C   0  0  0  0  0  0  0  0  0  0  0  0
  155.5205  140.1073  184.2828 N   0  0  0  0  0  0  0  0  0  0  0  0
  154.3755  140.6933  183.9277 C   0  0  0  0  0  0  0  0  0  0  0  0
  154.5741  141.8349  183.2697 N   0  0  0  0  0  0  0  0  0  0  0  0
  155.9049  142.0371  183.1740 C   0  0  0  0  0  0  0  0  0  0  0  0
  156.6264  143.0485  182.6382 N   0  0  0  0  0  0  0  0  0  0  0  0
  155.9436  144.1220  181.9592 C   0  0  0  0  0  0  0  0  0  0  0  0
  157.9605  143.0197  182.7299 C   0  0  0  0  0  0  0  0  0  0  0  0
  158.6470  143.9749  182.2254 O   0  0  0  0  0  0  0  0  0  0  0  0
  158.6015  142.0107  183.3372 N   0  0  0  0  0  0  0  0  0  0  0  0
  157.8764  140.9928  183.8655 C   0  0  0  0  0  0  0  0  0  0  0  0
  158.4584  140.0313  184.4382 O   0  0  0  0  0  0  0  0  0  0  0  0
  156.4962  140.9490  183.8133 C   0  0  0  0  0  0  0  0  0  0  0  0
  160.0262  142.0104  183.5092 C   0  0  0  0  0  0  0  0  0  0  0  0
  160.5253  142.3823  184.8244 C   0  0  0  0  0  0  0  0  0  0  0  0
  161.8949  142.2334  185.1477 C   0  0  0  0  0  0  0  0  0  0  0  0
  162.0659  142.6568  186.4434 C   0  0  0  0  0  0  0  0  0  0  0  0
  163.3558  142.6931  187.2283 C   0  0  0  0  0  0  0  0  0  0  0  0
  160.8806  143.0316  186.8645 O   0  0  0  0  0  0  0  0  0  0  0  0
  159.9746  142.8793  185.9364 N   0  0  0  0  0  0  0  0  0  0  0  0
  154.6986  138.1819  185.5818 C   0  0  0  0  0  0  0  0  0  0  0  0
  154.3582  137.0869  184.9829 O   0  0  0  0  0  0  0  0  0  0  0  0
  153.9666  138.5038  186.7046 N   0  0  0  0  0  0  0  0  0  0  0  0
  154.1647  139.3656  187.2487 H   0  0  0  0  0  0  0  0  0  0  0  0
  152.8790  137.7289  187.1488 C   0  0  0  0  0  0  0  0  0  0  0  0
  151.9155  137.3842  186.2391 C   0  0  0  0  0  0  0  0  0  0  0  0
  150.8512  136.5633  186.5968 C   0  0  0  0  0  0  0  0  0  0  0  0
  150.7941  136.1123  187.8772 C   0  0  0  0  0  0  0  0  0  0  0  0
  151.7634  136.4624  188.7840 C   0  0  0  0  0  0  0  0  0  0  0  0
  152.7799  137.2590  188.4052 N   0  0  0  0  0  0  0  0  0  0  0  0
  151.7291  135.8428  190.1144 C   0  0  0  0  0  0  0  0  0  0  0  0
  151.8554  134.5041  190.3472 N   0  0  0  0  0  0  0  0  0  0  0  0
  151.8722  134.3662  191.6365 O   0  0  0  0  0  0  0  0  0  0  0  0
  151.7648  135.5165  192.2526 C   0  0  0  0  0  0  0  0  0  0  0  0
  151.6703  136.4522  191.2943 N   0  0  0  0  0  0  0  0  0  0  0  0
  151.7626  135.7101  193.7450 C   0  0  0  0  0  0  0  0  0  0  0  0
  150.5520  135.3156  194.2258 F   0  0  0  0  0  0  0  0  0  0  0  0
  152.7672  134.8582  194.2546 F   0  0  0  0  0  0  0  0  0  0  0  0
  152.0856  136.9995  194.0493 F   0  0  0  0  0  0  0  0  0  0  0  0
  1  2  1  0  0  0
  2 22  1  0  0  0
 22 23  2  0  0  0
 22 24  1  0  0  0
 24 26  1  0  0  0
 26 27  2  0  0  0
 27 28  1  0  0  0
 28 29  2  0  0  0
 29 30  1  0  0  0
 30 31  2  0  0  0
 30 32  1  0  0  0
 32 33  2  0  0  0
 33 34  1  0  0  0
 34 35  1  0  0  0
 35 36  2  0  0  0
 35 37  1  0  0  0
 37 38  1  0  0  0
 37 39  1  0  0  0
 37 40  1  0  0  0
  2  3  1  0  0  0
  3  4  1  0  0  0
  4  5  2  0  0  0
  5  6  1  0  0  0
  6  7  1  0  0  0
  7  8  1  0  0  0
  7  9  1  0  0  0
  9 10  2  0  0  0
  9 11  1  0  0  0
 11 15  1  0  0  0
 15 16  1  0  0  0
 16 17  1  0  0  0
 17 18  2  0  0  0
 18 19  1  0  0  0
 18 20  1  0  0  0
 20 21  1  0  0  0
 11 12  1  0  0  0
 12 13  2  0  0  0
 12 14  1  0  0  0
 31 26  1  0  0  0
 36 32  1  0  0  0
 14  3  1  0  0  0
 14  6  2  0  0  0
 21 16  2  0  0  0
 24 25  1  0  0  0
M  END
> <minimizedAffinity>
-8.74534

> <CNNscore>
0.3054722846

> <CNNaffinity>
6.5825376511

> <CNN_VS>
2.0107827187

> <CNNaffinity_variance>
0.1502684206

$$$$
[H]c1c(C([H])([H])n2c(=O)c3c(nc([H])n3[C@]([H])(C(=O)N([H])c3nc(-c4noc(C(F)(F)F)n4)c([H])c([H])c3[H])C([H])([H])[H])n(C([H])([H])[H])c2=O)noc1C([H])([H])[H]


 40 44  0  0  0  0  0  0  0  0999 V2000
  153.5013  136.3807  183.8250 C   0  0  0  0  0  0  0  0  0  0  0  0
  154.2120  137.0408  185.0137 C   0  0  0  0  0  0  0  0  0  0  0  0
  153.4281  136.9443  186.1911 N   0  0  0  0  0  0  0  0  0  0  0  0
  152.1161  137.0299  186.4183 C   0  0  0  0  0  0  0  0  0  0  0  0
  151.8183  136.9181  187.7123 N   0  0  0  0  0  0  0  0  0  0  0  0
  152.9704  136.7473  188.3941 C   0  0  0  0  0  0  0  0  0  0  0  0
  153.2186  136.5530  189.7097 N   0  0  0  0  0  0  0  0  0  0  0  0
  152.1243  136.5873  190.6485 C   0  0  0  0  0  0  0  0  0  0  0  0
  154.4778  136.3557  190.1152 C   0  0  0  0  0  0  0  0  0  0  0  0
  154.7171  136.1703  191.3588 O   0  0  0  0  0  0  0  0  0  0  0  0
  155.5018  136.3490  189.2496 N   0  0  0  0  0  0  0  0  0  0  0  0
  155.2517  136.5535  187.9318 C   0  0  0  0  0  0  0  0  0  0  0  0
  156.2000  136.5551  187.1001 O   0  0  0  0  0  0  0  0  0  0  0  0
  153.9800  136.7634  187.4334 C   0  0  0  0  0  0  0  0  0  0  0  0
  156.8448  136.0602  189.6646 C   0  0  0  0  0  0  0  0  0  0  0  0
  157.2952  134.6853  189.5088 C   0  0  0  0  0  0  0  0  0  0  0  0
  158.4694  134.3866  188.7778 C   0  0  0  0  0  0  0  0  0  0  0  0
  158.6377  133.0233  188.7982 C   0  0  0  0  0  0  0  0  0  0  0  0
  159.7547  132.2326  188.1590 C   0  0  0  0  0  0  0  0  0  0  0  0
  157.6333  132.5417  189.4924 O   0  0  0  0  0  0  0  0  0  0  0  0
  156.8444  133.4936  189.9131 N   0  0  0  0  0  0  0  0  0  0  0  0
  154.6105  138.3847  184.5795 C   0  0  0  0  0  0  0  0  0  0  0  0
  155.1954  139.0857  185.4961 O   0  0  0  0  0  0  0  0  0  0  0  0
  154.4568  139.0040  183.3575 N   0  0  0  0  0  0  0  0  0  0  0  0
  153.9956  138.5212  182.5625 H   0  0  0  0  0  0  0  0  0  0  0  0
  154.8551  140.3338  183.1258 C   0  0  0  0  0  0  0  0  0  0  0  0
  153.8838  141.2671  182.8808 C   0  0  0  0  0  0  0  0  0  0  0  0
  154.2045  142.6100  182.7119 C   0  0  0  0  0  0  0  0  0  0  0  0
  155.5118  142.9704  182.7969 C   0  0  0  0  0  0  0  0  0  0  0  0
  156.4804  142.0291  183.0423 C   0  0  0  0  0  0  0  0  0  0  0  0
  156.1359  140.7377  183.2004 N   0  0  0  0  0  0  0  0  0  0  0  0
  157.8584  142.4873  183.2572 C   0  0  0  0  0  0  0  0  0  0  0  0
  158.4114  143.5820  182.6589 N   0  0  0  0  0  0  0  0  0  0  0  0
  159.5949  143.7101  183.1731 O   0  0  0  0  0  0  0  0  0  0  0  0
  159.8469  142.7784  184.0579 C   0  0  0  0  0  0  0  0  0  0  0  0
  158.7533  142.0011  184.1114 N   0  0  0  0  0  0  0  0  0  0  0  0
  161.1216  142.6461  184.8468 C   0  0  0  0  0  0  0  0  0  0  0  0
  161.9709  141.8383  184.1549 F   0  0  0  0  0  0  0  0  0  0  0  0
  161.6728  143.9440  184.9259 F   0  0  0  0  0  0  0  0  0  0  0  0
  160.8468  142.2090  186.1088 F   0  0  0  0  0  0  0  0  0  0  0  0
  1  2  1  0  0  0
  2 22  1  0  0  0
 22 23  2  0  0  0
 22 24  1  0  0  0
 24 26  1  0  0  0
 26 27  2  0  0  0
 27 28  1  0  0  0
 28 29  2  0  0  0
 29 30  1  0  0  0
 30 31  2  0  0  0
 30 32  1  0  0  0
 32 33  2  0  0  0
 33 34  1  0  0  0
 34 35  1  0  0  0
 35 36  2  0  0  0
 35 37  1  0  0  0
 37 38  1  0  0  0
 37 39  1  0  0  0
 37 40  1  0  0  0
  2  3  1  0  0  0
  3  4  1  0  0  0
  4  5  2  0  0  0
  5  6  1  0  0  0
  6  7  1  0  0  0
  7  8  1  0  0  0
  7  9  1  0  0  0
  9 10  2  0  0  0
  9 11  1  0  0  0
 11 15  1  0  0  0
 15 16  1  0  0  0
 16 17  1  0  0  0
 17 18  2  0  0  0
 18 19  1  0  0  0
 18 20  1  0  0  0
 20 21  1  0  0  0
 11 12  1  0  0  0
 12 13  2  0  0  0
 12 14  1  0  0  0
 31 26  1  0  0  0
 36 32  1  0  0  0
 14  3  1  0  0  0
 14  6  2  0  0  0
 21 16  2  0  0  0
 24 25  1  0  0  0
M  END
> <minimizedAffinity>
-8.60490

> <CNNscore>
0.2984584570

> <CNNaffinity>
6.5411820412

> <CNN_VS>
1.9522711039

> <CNNaffinity_variance>
0.3137386441

$$$$
[H]c1c(C([H])([H])n2c(=O)c3c(nc([H])n3[C@]([H])(C(=O)N([H])c3nc(-c4noc(C(F)(F)F)n4)c([H])c([H])c3[H])C([H])([H])[H])n(C([H])([H])[H])c2=O)noc1C([H])([H])[H]


 40 44  0  0  0  0  0  0  0  0999 V2000
  153.5172  135.3416  185.1337 C   0  0  0  0  0  0  0  0  0  0  0  0
  153.0346  136.7183  185.6086 C   0  0  0  0  0  0  0  0  0  0  0  0
  151.6187  136.7708  185.6573 N   0  0  0  0  0  0  0  0  0  0  0  0
  150.6961  137.2106  184.7995 C   0  0  0  0  0  0  0  0  0  0  0  0
  149.4603  137.1026  185.2862 N   0  0  0  0  0  0  0  0  0  0  0  0
  149.5421  136.5666  186.5220 C   0  0  0  0  0  0  0  0  0  0  0  0
  148.5903  136.2229  187.4200 N   0  0  0  0  0  0  0  0  0  0  0  0
  147.2067  136.5047  187.1268 C   0  0  0  0  0  0  0  0  0  0  0  0
  148.9551  135.6494  188.5720 C   0  0  0  0  0  0  0  0  0  0  0  0
  148.0580  135.3217  189.4240 O   0  0  0  0  0  0  0  0  0  0  0  0
  150.2423  135.4092  188.8606 N   0  0  0  0  0  0  0  0  0  0  0  0
  151.1959  135.7632  187.9626 C   0  0  0  0  0  0  0  0  0  0  0  0
  152.4134  135.5503  188.2147 O   0  0  0  0  0  0  0  0  0  0  0  0
  150.9011  136.3585  186.7509 C   0  0  0  0  0  0  0  0  0  0  0  0
  150.6368  134.7237  190.0581 C   0  0  0  0  0  0  0  0  0  0  0  0
  150.6200  135.4983  191.2897 C   0  0  0  0  0  0  0  0  0  0  0  0
  151.6044  136.4840  191.5384 C   0  0  0  0  0  0  0  0  0  0  0  0
  151.3373  137.0395  192.7662 C   0  0  0  0  0  0  0  0  0  0  0  0
  152.1095  138.1381  193.4577 C   0  0  0  0  0  0  0  0  0  0  0  0
  150.2682  136.4274  193.2191 O   0  0  0  0  0  0  0  0  0  0  0  0
  149.8384  135.5297  192.3737 N   0  0  0  0  0  0  0  0  0  0  0  0
  153.7165  137.7187  184.7794 C   0  0  0  0  0  0  0  0  0  0  0  0
  154.1990  137.2505  183.6742 O   0  0  0  0  0  0  0  0  0  0  0  0
  153.9175  139.0646  184.9990 N   0  0  0  0  0  0  0  0  0  0  0  0
  153.5695  139.5285  185.8602 H   0  0  0  0  0  0  0  0  0  0  0  0
  154.6488  139.8768  184.1122 C   0  0  0  0  0  0  0  0  0  0  0  0
  153.9552  140.6343  183.2068 C   0  0  0  0  0  0  0  0  0  0  0  0
  154.6133  141.5093  182.3489 C   0  0  0  0  0  0  0  0  0  0  0  0
  155.9669  141.5912  182.4346 C   0  0  0  0  0  0  0  0  0  0  0  0
  156.6557  140.8283  183.3445 C   0  0  0  0  0  0  0  0  0  0  0  0
  155.9881  139.9911  184.1598 N   0  0  0  0  0  0  0  0  0  0  0  0
  158.0995  141.0511  183.4891 C   0  0  0  0  0  0  0  0  0  0  0  0
  159.0413  140.6193  182.6010 N   0  0  0  0  0  0  0  0  0  0  0  0
  160.1730  141.0907  183.0235 O   0  0  0  0  0  0  0  0  0  0  0  0
  160.0313  141.7934  184.1191 C   0  0  0  0  0  0  0  0  0  0  0  0
  158.7228  141.7678  184.4190 N   0  0  0  0  0  0  0  0  0  0  0  0
  161.1421  142.4872  184.8605 C   0  0  0  0  0  0  0  0  0  0  0  0
  161.0047  143.8291  184.6792 F   0  0  0  0  0  0  0  0  0  0  0  0
  160.9566  142.1795  186.2264 F   0  0  0  0  0  0  0  0  0  0  0  0
  162.3493  141.9953  184.4605 F   0  0  0  0  0  0  0  0  0  0  0  0
  1  2  1  0  0  0
  2 22  1  0  0  0
 22 23  2  0  0  0
 22 24  1  0  0  0
 24 26  1  0  0  0
 26 27  2  0  0  0
 27 28  1  0  0  0
 28 29  2  0  0  0
 29 30  1  0  0  0
 30 31  2  0  0  0
 30 32  1  0  0  0
 32 33  2  0  0  0
 33 34  1  0  0  0
 34 35  1  0  0  0
 35 36  2  0  0  0
 35 37  1  0  0  0
 37 38  1  0  0  0
 37 39  1  0  0  0
 37 40  1  0  0  0
  2  3  1  0  0  0
  3  4  1  0  0  0
  4  5  2  0  0  0
  5  6  1  0  0  0
  6  7  1  0  0  0
  7  8  1  0  0  0
  7  9  1  0  0  0
  9 10  2  0  0  0
  9 11  1  0  0  0
 11 15  1  0  0  0
 15 16  1  0  0  0
 16 17  1  0  0  0
 17 18  2  0  0  0
 18 19  1  0  0  0
 18 20  1  0  0  0
 20 21  1  0  0  0
 11 12  1  0  0  0
 12 13  2  0  0  0
 12 14  1  0  0  0
 31 26  1  0  0  0
 36 32  1  0  0  0
 14  3  1  0  0  0
 14  6  2  0  0  0
 21 16  2  0  0  0
 24 25  1  0  0  0
M  END
> <minimizedAffinity>
-8.45554

> <CNNscore>
0.2750983238

> <CNNaffinity>
6.2685241699

> <CNN_VS>
1.7244604826

> <CNNaffinity_variance>
0.1003338248

$$$$
[H]c1nc([H])c(N([H])C(=O)[C@@]([H])(n2c([H])nc3c2c(=O)n(C([H])([H])c2nc(C([H])([H])[H])no2)c(=O)n3C([H])([H])[H])C([H])([H])[H])nc1-c1c([H])nc(C(F)(F)F)nc1[H]


 41 45  0  0  0  0  0  0  0  0999 V2000
  156.3252  137.7692  187.8137 C   0  0  0  0  0  0  0  0  0  0  0  0
  154.8496  137.8833  187.3262 C   0  0  0  0  0  0  0  0  0  0  0  0
  154.4469  136.4896  187.1315 N   0  0  0  0  0  0  0  0  0  0  0  0
  155.3277  135.4736  186.9705 C   0  0  0  0  0  0  0  0  0  0  0  0
  154.6601  134.3066  186.8620 N   0  0  0  0  0  0  0  0  0  0  0  0
  153.3397  134.5562  186.9545 C   0  0  0  0  0  0  0  0  0  0  0  0
  152.2782  133.7226  186.9380 N   0  0  0  0  0  0  0  0  0  0  0  0
  152.4747  132.3090  186.7332 C   0  0  0  0  0  0  0  0  0  0  0  0
  151.0819  134.2940  187.0992 C   0  0  0  0  0  0  0  0  0  0  0  0
  150.0383  133.5745  187.0961 O   0  0  0  0  0  0  0  0  0  0  0  0
  150.9130  135.6255  187.2646 N   0  0  0  0  0  0  0  0  0  0  0  0
  151.9527  136.4557  187.2784 C   0  0  0  0  0  0  0  0  0  0  0  0
  151.8633  137.6799  187.4259 O   0  0  0  0  0  0  0  0  0  0  0  0
  153.2321  135.9333  187.1220 C   0  0  0  0  0  0  0  0  0  0  0  0
  149.5710  136.0950  187.5100 C   0  0  0  0  0  0  0  0  0  0  0  0
  148.9521  136.6998  186.3092 C   0  0  0  0  0  0  0  0  0  0  0  0
  148.3152  137.9187  186.3763 N   0  0  0  0  0  0  0  0  0  0  0  0
  147.8561  138.2074  185.1376 C   0  0  0  0  0  0  0  0  0  0  0  0
  147.1068  139.4199  184.7319 C   0  0  0  0  0  0  0  0  0  0  0  0
  148.2041  137.1972  184.3569 N   0  0  0  0  0  0  0  0  0  0  0  0
  148.8553  136.3251  185.1001 O   0  0  0  0  0  0  0  0  0  0  0  0
  154.9630  138.4925  185.9420 C   0  0  0  0  0  0  0  0  0  0  0  0
  156.0955  138.8333  185.5514 O   0  0  0  0  0  0  0  0  0  0  0  0
  153.8288  138.6653  185.1488 N   0  0  0  0  0  0  0  0  0  0  0  0
  152.8986  138.3244  185.5502 H   0  0  0  0  0  0  0  0  0  0  0  0
  153.7386  139.3453  183.8897 C   0  0  0  0  0  0  0  0  0  0  0  0
  154.6076  140.2993  183.4466 C   0  0  0  0  0  0  0  0  0  0  0  0
  154.4032  140.9019  182.2623 N   0  0  0  0  0  0  0  0  0  0  0  0
  153.3390  140.5868  181.4793 C   0  0  0  0  0  0  0  0  0  0  0  0
  152.4439  139.6302  181.8964 C   0  0  0  0  0  0  0  0  0  0  0  0
  152.6746  139.0524  183.0704 N   0  0  0  0  0  0  0  0  0  0  0  0
  151.3016  139.2592  181.0624 C   0  0  0  0  0  0  0  0  0  0  0  0
  151.2807  139.5596  179.6944 C   0  0  0  0  0  0  0  0  0  0  0  0
  150.2368  139.1781  178.9142 N   0  0  0  0  0  0  0  0  0  0  0  0
  149.1824  138.5031  179.3956 C   0  0  0  0  0  0  0  0  0  0  0  0
  149.2086  138.2172  180.7112 N   0  0  0  0  0  0  0  0  0  0  0  0
  150.2133  138.5656  181.5395 C   0  0  0  0  0  0  0  0  0  0  0  0
  148.0357  138.0854  178.5295 C   0  0  0  0  0  0  0  0  0  0  0  0
  148.2352  138.4852  177.2052 F   0  0  0  0  0  0  0  0  0  0  0  0
  146.8779  138.6642  178.9692 F   0  0  0  0  0  0  0  0  0  0  0  0
  147.8637  136.7250  178.4926 F   0  0  0  0  0  0  0  0  0  0  0  0
  1  2  1  0  0  0
  2 22  1  0  0  0
 22 23  2  0  0  0
 22 24  1  0  0  0
 24 26  1  0  0  0
 26 27  2  0  0  0
 27 28  1  0  0  0
 28 29  2  0  0  0
 29 30  1  0  0  0
 30 31  2  0  0  0
 30 32  1  0  0  0
 32 33  2  0  0  0
 33 34  1  0  0  0
 34 35  2  0  0  0
 35 36  1  0  0  0
 36 37  2  0  0  0
 35 38  1  0  0  0
 38 39  1  0  0  0
 38 40  1  0  0  0
 38 41  1  0  0  0
  2  3  1  0  0  0
  3  4  1  0  0  0
  4  5  2  0  0  0
  5  6  1  0  0  0
  6  7  1  0  0  0
  7  8  1  0  0  0
  7  9  1  0  0  0
  9 10  2  0  0  0
  9 11  1  0  0  0
 11 15  1  0  0  0
 15 16  1  0  0  0
 16 17  2  0  0  0
 17 18  1  0  0  0
 18 19  1  0  0  0
 18 20  2  0  0  0
 20 21  1  0  0  0
 11 12  1  0  0  0
 12 13  2  0  0  0
 12 14  1  0  0  0
 31 26  1  0  0  0
 37 32  1  0  0  0
 14  3  1  0  0  0
 14  6  2  0  0  0
 21 16  1  0  0  0
 24 25  1  0  0  0
M  END
> <minimizedAffinity>
-6.40480

> <CNNscore>
0.5198933482

> <CNNaffinity>
6.6175599098

> <CNN_VS>
3.4404253960

> <CNNaffinity_variance>
0.2215223610

$$$$
[H]c1nc([H])c(N([H])C(=O)[C@@]([H])(n2c([H])nc3c2c(=O)n(C([H])([H])c2nc(C([H])([H])[H])no2)c(=O)n3C([H])([H])[H])C([H])([H])[H])nc1-c1c([H])nc(C(F)(F)F)nc1[H]


 41 45  0  0  0  0  0  0  0  0999 V2000
  154.7398  138.7827  190.7890 C   0  0  0  0  0  0  0  0  0  0  0  0
  154.3311  137.4140  190.1660 C   0  0  0  0  0  0  0  0  0  0  0  0
  153.3053  136.9154  191.0833 N   0  0  0  0  0  0  0  0  0  0  0  0
  153.3580  137.0855  192.4259 C   0  0  0  0  0  0  0  0  0  0  0  0
  152.2529  136.5610  192.9940 N   0  0  0  0  0  0  0  0  0  0  0  0
  151.4722  136.0484  192.0233 C   0  0  0  0  0  0  0  0  0  0  0  0
  150.2622  135.4532  192.0826 N   0  0  0  0  0  0  0  0  0  0  0  0
  149.6330  135.2245  193.3597 C   0  0  0  0  0  0  0  0  0  0  0  0
  149.7293  135.0911  190.9129 C   0  0  0  0  0  0  0  0  0  0  0  0
  148.5941  134.5275  190.8890 O   0  0  0  0  0  0  0  0  0  0  0  0
  150.3446  135.2899  189.7251 N   0  0  0  0  0  0  0  0  0  0  0  0
  151.5391  135.8721  189.6566 C   0  0  0  0  0  0  0  0  0  0  0  0
  152.1512  136.0818  188.6032 O   0  0  0  0  0  0  0  0  0  0  0  0
  152.1555  136.2823  190.8339 C   0  0  0  0  0  0  0  0  0  0  0  0
  149.6161  134.9232  188.5350 C   0  0  0  0  0  0  0  0  0  0  0  0
  148.7076  135.9960  188.0718 C   0  0  0  0  0  0  0  0  0  0  0  0
  148.9277  136.6466  186.8785 N   0  0  0  0  0  0  0  0  0  0  0  0
  147.9453  137.5633  186.7268 C   0  0  0  0  0  0  0  0  0  0  0  0
  147.7745  138.4975  185.5891 C   0  0  0  0  0  0  0  0  0  0  0  0
  147.1656  137.4664  187.7916 N   0  0  0  0  0  0  0  0  0  0  0  0
  147.6601  136.5189  188.5627 O   0  0  0  0  0  0  0  0  0  0  0  0
  155.5502  136.5354  190.3701 C   0  0  0  0  0  0  0  0  0  0  0  0
  156.5695  137.0641  190.8527 O   0  0  0  0  0  0  0  0  0  0  0  0
  155.5181  135.1861  190.0182 N   0  0  0  0  0  0  0  0  0  0  0  0
  154.5964  134.8065  189.6323 H   0  0  0  0  0  0  0  0  0  0  0  0
  156.6114  134.2585  190.0128 C   0  0  0  0  0  0  0  0  0  0  0  0
  157.3775  133.9388  191.0956 C   0  0  0  0  0  0  0  0  0  0  0  0
  158.4065  133.0833  190.9666 N   0  0  0  0  0  0  0  0  0  0  0  0
  158.7143  132.5178  189.7706 C   0  0  0  0  0  0  0  0  0  0  0  0
  157.9627  132.8188  188.6594 C   0  0  0  0  0  0  0  0  0  0  0  0
  156.9523  133.6663  188.8202 N   0  0  0  0  0  0  0  0  0  0  0  0
  158.2618  132.2076  187.3651 C   0  0  0  0  0  0  0  0  0  0  0  0
  159.4869  131.5682  187.1362 C   0  0  0  0  0  0  0  0  0  0  0  0
  159.7459  130.9662  185.9469 N   0  0  0  0  0  0  0  0  0  0  0  0
  158.8622  130.9467  184.9380 C   0  0  0  0  0  0  0  0  0  0  0  0
  157.6864  131.5628  185.1644 N   0  0  0  0  0  0  0  0  0  0  0  0
  157.3664  132.1772  186.3208 C   0  0  0  0  0  0  0  0  0  0  0  0
  159.1544  130.2807  183.6302 C   0  0  0  0  0  0  0  0  0  0  0  0
  160.2420  129.4101  183.7422 F   0  0  0  0  0  0  0  0  0  0  0  0
  159.4663  131.2169  182.6841 F   0  0  0  0  0  0  0  0  0  0  0  0
  158.1073  129.5218  183.1729 F   0  0  0  0  0  0  0  0  0  0  0  0
  1  2  1  0  0  0
  2 22  1  0  0  0
 22 23  2  0  0  0
 22 24  1  0  0  0
 24 26  1  0  0  0
 26 27  2  0  0  0
 27 28  1  0  0  0
 28 29  2  0  0  0
 29 30  1  0  0  0
 30 31  2  0  0  0
 30 32  1  0  0  0
 32 33  2  0  0  0
 33 34  1  0  0  0
 34 35  2  0  0  0
 35 36  1  0  0  0
 36 37  2  0  0  0
 35 38  1  0  0  0
 38 39  1  0  0  0
 38 40  1  0  0  0
 38 41  1  0  0  0
  2  3  1  0  0  0
  3  4  1  0  0  0
  4  5  2  0  0  0
  5  6  1  0  0  0
  6  7  1  0  0  0
  7  8  1  0  0  0
  7  9  1  0  0  0
  9 10  2  0  0  0
  9 11  1  0  0  0
 11 15  1  0  0  0
 15 16  1  0  0  0
 16 17  2  0  0  0
 17 18  1  0  0  0
 18 19  1  0  0  0
 18 20  2  0  0  0
 20 21  1  0  0  0
 11 12  1  0  0  0
 12 13  2  0  0  0
 12 14  1  0  0  0
 31 26  1  0  0  0
 37 32  1  0  0  0
 14  3  1  0  0  0
 14  6  2  0  0  0
 21 16  1  0  0  0
 24 25  1  0  0  0
M  END
> <minimizedAffinity>
-6.33247

> <CNNscore>
0.4791263938

> <CNNaffinity>
6.2220706940

> <CNN_VS>
2.9811582565

> <CNNaffinity_variance>
0.3570411503

$$$$
[H]c1nc([H])c(N([H])C(=O)[C@@]([H])(n2c([H])nc3c2c(=O)n(C([H])([H])c2nc(C([H])([H])[H])no2)c(=O)n3C([H])([H])[H])C([H])([H])[H])nc1-c1c([H])nc(C(F)(F)F)nc1[H]


 41 45  0  0  0  0  0  0  0  0999 V2000
  151.7608  136.8729  185.8609 C   0  0  0  0  0  0  0  0  0  0  0  0
  153.2922  136.5962  185.9410 C   0  0  0  0  0  0  0  0  0  0  0  0
  153.6949  137.2669  187.1781 N   0  0  0  0  0  0  0  0  0  0  0  0
  153.2384  138.4870  187.5486 C   0  0  0  0  0  0  0  0  0  0  0  0
  153.7492  138.8168  188.7525 N   0  0  0  0  0  0  0  0  0  0  0  0
  154.5398  137.8112  189.1745 C   0  0  0  0  0  0  0  0  0  0  0  0
  155.2390  137.6555  190.3185 N   0  0  0  0  0  0  0  0  0  0  0  0
  155.2592  138.7110  191.3005 C   0  0  0  0  0  0  0  0  0  0  0  0
  155.8984  136.5016  190.4498 C   0  0  0  0  0  0  0  0  0  0  0  0
  156.5764  136.2830  191.4983 O   0  0  0  0  0  0  0  0  0  0  0  0
  155.8898  135.5319  189.5072 N   0  0  0  0  0  0  0  0  0  0  0  0
  155.2069  135.6776  188.3746 C   0  0  0  0  0  0  0  0  0  0  0  0
  155.1595  134.8289  187.4769 O   0  0  0  0  0  0  0  0  0  0  0  0
  154.4899  136.8513  188.1682 C   0  0  0  0  0  0  0  0  0  0  0  0
  156.5796  134.3034  189.8180 C   0  0  0  0  0  0  0  0  0  0  0  0
  157.8217  134.1344  189.0310 C   0  0  0  0  0  0  0  0  0  0  0  0
  158.1888  132.9015  188.5401 N   0  0  0  0  0  0  0  0  0  0  0  0
  159.3535  133.0594  187.8715 C   0  0  0  0  0  0  0  0  0  0  0  0
  160.1244  132.0025  187.1750 C   0  0  0  0  0  0  0  0  0  0  0  0
  159.6735  134.3403  187.9600 N   0  0  0  0  0  0  0  0  0  0  0  0
  158.7302  134.9393  188.6590 O   0  0  0  0  0  0  0  0  0  0  0  0
  153.8758  137.4120  184.8035 C   0  0  0  0  0  0  0  0  0  0  0  0
  154.4859  136.7999  183.9067 O   0  0  0  0  0  0  0  0  0  0  0  0
  153.7323  138.7993  184.7802 N   0  0  0  0  0  0  0  0  0  0  0  0
  153.1743  139.2435  185.5764 H   0  0  0  0  0  0  0  0  0  0  0  0
  154.3353  139.7246  183.8658 C   0  0  0  0  0  0  0  0  0  0  0  0
  153.8006  140.1126  182.6720 C   0  0  0  0  0  0  0  0  0  0  0  0
  154.4742  140.9582  181.8728 N   0  0  0  0  0  0  0  0  0  0  0  0
  155.6929  141.4462  182.2214 C   0  0  0  0  0  0  0  0  0  0  0  0
  156.2604  141.0749  183.4174 C   0  0  0  0  0  0  0  0  0  0  0  0
  155.5690  140.2395  184.1850 N   0  0  0  0  0  0  0  0  0  0  0  0
  157.5621  141.6023  183.8242 C   0  0  0  0  0  0  0  0  0  0  0  0
  158.1833  141.1602  184.9993 C   0  0  0  0  0  0  0  0  0  0  0  0
  159.4103  141.6216  185.3534 N   0  0  0  0  0  0  0  0  0  0  0  0
  160.0900  142.5111  184.6146 C   0  0  0  0  0  0  0  0  0  0  0  0
  159.4877  142.9320  183.4863 N   0  0  0  0  0  0  0  0  0  0  0  0
  158.2732  142.5134  183.0775 C   0  0  0  0  0  0  0  0  0  0  0  0
  161.4423  143.0146  185.0111 C   0  0  0  0  0  0  0  0  0  0  0  0
  161.5805  143.0403  186.4017 F   0  0  0  0  0  0  0  0  0  0  0  0
  161.6240  144.2891  184.5511 F   0  0  0  0  0  0  0  0  0  0  0  0
  162.4627  142.2261  184.5435 F   0  0  0  0  0  0  0  0  0  0  0  0
  1  2  1  0  0  0
  2 22  1  0  0  0
 22 23  2  0  0  0
 22 24  1  0  0  0
 24 26  1  0  0  0
 26 27  2  0  0  0
 27 28  1  0  0  0
 28 29  2  0  0  0
 29 30  1  0  0  0
 30 31  2  0  0  0
 30 32  1  0  0  0
 32 33  2  0  0  0
 33 34  1  0  0  0
 34 35  2  0  0  0
 35 36  1  0  0  0
 36 37  2  0  0  0
 35 38  1  0  0  0
 38 39  1  0  0  0
 38 40  1  0  0  0
 38 41  1  0  0  0
  2  3  1  0  0  0
  3  4  1  0  0  0
  4  5  2  0  0  0
  5  6  1  0  0  0
  6  7  1  0  0  0
  7  8  1  0  0  0
  7  9  1  0  0  0
  9 10  2  0  0  0
  9 11  1  0  0  0
 11 15  1  0  0  0
 15 16  1  0  0  0
 16 17  2  0  0  0
 17 18  1  0  0  0
 18 19  1  0  0  0
 18 20  2  0  0  0
 20 21  1  0  0  0
 11 12  1  0  0  0
 12 13  2  0  0  0
 12 14  1  0  0  0
 31 26  1  0  0  0
 37 32  1  0  0  0
 14  3  1  0  0  0
 14  6  2  0  0  0
 21 16  1  0  0  0
 24 25  1  0  0  0
M  END
> <minimizedAffinity>
-8.92885

> <CNNscore>
0.3694948852

> <CNNaffinity>
6.9700837135

> <CNN_VS>
2.5754103661

> <CNNaffinity_variance>
0.3702871203

$$$$
[H]c1nc([H])c(N([H])C(=O)[C@@]([H])(n2c([H])nc3c2c(=O)n(C([H])([H])c2nc(C([H])([H])[H])no2)c(=O)n3C([H])([H])[H])C([H])([H])[H])nc1-c1c([H])nc(C(F)(F)F)nc1[H]


 41 45  0  0  0  0  0  0  0  0999 V2000
  155.8042  138.4709  186.6060 C   0  0  0  0  0  0  0  0  0  0  0  0
  155.5968  138.0779  185.1124 C   0  0  0  0  0  0  0  0  0  0  0  0
  155.3627  139.3630  184.4519 N   0  0  0  0  0  0  0  0  0  0  0  0
  154.1283  139.8728  184.2270 C   0  0  0  0  0  0  0  0  0  0  0  0
  154.2366  141.0860  183.6475 N   0  0  0  0  0  0  0  0  0  0  0  0
  155.5434  141.3744  183.4943 C   0  0  0  0  0  0  0  0  0  0  0  0
  156.1556  142.4714  183.0006 N   0  0  0  0  0  0  0  0  0  0  0  0
  155.3705  143.5558  182.4652 C   0  0  0  0  0  0  0  0  0  0  0  0
  157.4907  142.4601  183.0292 C   0  0  0  0  0  0  0  0  0  0  0  0
  158.1355  143.4565  182.5839 O   0  0  0  0  0  0  0  0  0  0  0  0
  158.2128  141.4234  183.5117 N   0  0  0  0  0  0  0  0  0  0  0  0
  157.6186  140.3362  183.9967 C   0  0  0  0  0  0  0  0  0  0  0  0
  158.2224  139.3580  184.4514 O   0  0  0  0  0  0  0  0  0  0  0  0
  156.2291  140.2769  184.0056 C   0  0  0  0  0  0  0  0  0  0  0  0
  159.6461  141.5818  183.5566 C   0  0  0  0  0  0  0  0  0  0  0  0
  160.1266  142.0344  184.8814 C   0  0  0  0  0  0  0  0  0  0  0  0
  161.4728  142.1426  185.1494 N   0  0  0  0  0  0  0  0  0  0  0  0
  161.6011  142.5736  186.4247 C   0  0  0  0  0  0  0  0  0  0  0  0
  162.8684  142.8340  187.1475 C   0  0  0  0  0  0  0  0  0  0  0  0
  160.3761  142.7169  186.9039 N   0  0  0  0  0  0  0  0  0  0  0  0
  159.5325  142.3848  185.9473 O   0  0  0  0  0  0  0  0  0  0  0  0
  154.2691  137.3449  185.1034 C   0  0  0  0  0  0  0  0  0  0  0  0
  153.9957  136.6565  184.1021 O   0  0  0  0  0  0  0  0  0  0  0  0
  153.3925  137.4536  186.1828 N   0  0  0  0  0  0  0  0  0  0  0  0
  153.7143  138.0458  187.0124 H   0  0  0  0  0  0  0  0  0  0  0  0
  152.0539  136.9480  186.2754 C   0  0  0  0  0  0  0  0  0  0  0  0
  151.1300  136.9786  185.2720 C   0  0  0  0  0  0  0  0  0  0  0  0
  149.8874  136.5107  185.4829 N   0  0  0  0  0  0  0  0  0  0  0  0
  149.5152  136.0007  186.6855 C   0  0  0  0  0  0  0  0  0  0  0  0
  150.4217  135.9555  187.7181 C   0  0  0  0  0  0  0  0  0  0  0  0
  151.6414  136.4242  187.4773 N   0  0  0  0  0  0  0  0  0  0  0  0
  150.0510  135.3928  189.0159 C   0  0  0  0  0  0  0  0  0  0  0  0
  150.7424  135.7508  190.1803 C   0  0  0  0  0  0  0  0  0  0  0  0
  150.3701  135.2580  191.3896 N   0  0  0  0  0  0  0  0  0  0  0  0
  149.3378  134.4151  191.5410 C   0  0  0  0  0  0  0  0  0  0  0  0
  148.6772  134.0750  190.4180 N   0  0  0  0  0  0  0  0  0  0  0  0
  148.9944  134.5287  189.1889 C   0  0  0  0  0  0  0  0  0  0  0  0
  148.9329  133.8765  192.8772 C   0  0  0  0  0  0  0  0  0  0  0  0
  149.5195  132.6303  193.1147 F   0  0  0  0  0  0  0  0  0  0  0  0
  147.5764  133.7148  192.9287 F   0  0  0  0  0  0  0  0  0  0  0  0
  149.3219  134.6825  193.9167 F   0  0  0  0  0  0  0  0  0  0  0  0
  1  2  1  0  0  0
  2 22  1  0  0  0
 22 23  2  0  0  0
 22 24  1  0  0  0
 24 26  1  0  0  0
 26 27  2  0  0  0
 27 28  1  0  0  0
 28 29  2  0  0  0
 29 30  1  0  0  0
 30 31  2  0  0  0
 30 32  1  0  0  0
 32 33  2  0  0  0
 33 34  1  0  0  0
 34 35  2  0  0  0
 35 36  1  0  0  0
 36 37  2  0  0  0
 35 38  1  0  0  0
 38 39  1  0  0  0
 38 40  1  0  0  0
 38 41  1  0  0  0
  2  3  1  0  0  0
  3  4  1  0  0  0
  4  5  2  0  0  0
  5  6  1  0  0  0
  6  7  1  0  0  0
  7  8  1  0  0  0
  7  9  1  0  0  0
  9 10  2  0  0  0
  9 11  1  0  0  0
 11 15  1  0  0  0
 15 16  1  0  0  0
 16 17  2  0  0  0
 17 18  1  0  0  0
 18 19  1  0  0  0
 18 20  2  0  0  0
 20 21  1  0  0  0
 11 12  1  0  0  0
 12 13  2  0  0  0
 12 14  1  0  0  0
 31 26  1  0  0  0
 37 32  1  0  0  0
 14  3  1  0  0  0
 14  6  2  0  0  0
 21 16  1  0  0  0
 24 25  1  0  0  0
M  END
> <minimizedAffinity>
-7.86601

> <CNNscore>
0.3274992108

> <CNNaffinity>
6.6287207603

> <CNN_VS>
2.1709008217

> <CNNaffinity_variance>
0.1488316655

$$$$
[H]c1nc([H])c(N([H])C(=O)[C@@]([H])(n2c([H])nc3c2c(=O)n(C([H])([H])c2nc(C([H])([H])[H])no2)c(=O)n3C([H])([H])[H])C([H])([H])[H])nc1-c1c([H])nc(C(F)(F)F)nc1[H]


 41 45  0  0  0  0  0  0  0  0999 V2000
  153.3801  137.3148  189.3818 C   0  0  0  0  0  0  0  0  0  0  0  0
  153.7195  136.6262  188.0258 C   0  0  0  0  0  0  0  0  0  0  0  0
  155.1111  136.2057  188.1966 N   0  0  0  0  0  0  0  0  0  0  0  0
  155.9736  136.8081  189.0494 C   0  0  0  0  0  0  0  0  0  0  0  0
  157.1614  136.1697  189.0203 N   0  0  0  0  0  0  0  0  0  0  0  0
  157.0780  135.1452  188.1498 C   0  0  0  0  0  0  0  0  0  0  0  0
  157.9809  134.2045  187.8008 N   0  0  0  0  0  0  0  0  0  0  0  0
  159.3131  134.2447  188.3509 C   0  0  0  0  0  0  0  0  0  0  0  0
  157.5622  133.2863  186.9262 C   0  0  0  0  0  0  0  0  0  0  0  0
  158.3543  132.3700  186.5521 O   0  0  0  0  0  0  0  0  0  0  0  0
  156.3165  133.2779  186.3999 N   0  0  0  0  0  0  0  0  0  0  0  0
  155.4206  134.2031  186.7346 C   0  0  0  0  0  0  0  0  0  0  0  0
  154.2683  134.2486  186.2893 O   0  0  0  0  0  0  0  0  0  0  0  0
  155.7819  135.1901  187.6454 C   0  0  0  0  0  0  0  0  0  0  0  0
  155.9750  132.1788  185.5301 C   0  0  0  0  0  0  0  0  0  0  0  0
  156.1526  132.5105  184.0986 C   0  0  0  0  0  0  0  0  0  0  0  0
  157.1814  131.9631  183.3653 N   0  0  0  0  0  0  0  0  0  0  0  0
  157.0870  132.4470  182.1062 C   0  0  0  0  0  0  0  0  0  0  0  0
  157.9828  132.1333  180.9680 C   0  0  0  0  0  0  0  0  0  0  0  0
  156.0403  133.2564  182.0862 N   0  0  0  0  0  0  0  0  0  0  0  0
  155.5165  133.2604  183.2956 O   0  0  0  0  0  0  0  0  0  0  0  0
  153.7376  137.7663  187.0259 C   0  0  0  0  0  0  0  0  0  0  0  0
  153.2444  138.8537  187.3801 O   0  0  0  0  0  0  0  0  0  0  0  0
  154.2842  137.5859  185.7554 N   0  0  0  0  0  0  0  0  0  0  0  0
  154.7078  136.6283  185.5402 H   0  0  0  0  0  0  0  0  0  0  0  0
  154.2557  138.5032  184.6537 C   0  0  0  0  0  0  0  0  0  0  0  0
  155.1265  139.5369  184.4678 C   0  0  0  0  0  0  0  0  0  0  0  0
  154.9814  140.3621  183.4164 N   0  0  0  0  0  0  0  0  0  0  0  0
  153.9763  140.1974  182.5178 C   0  0  0  0  0  0  0  0  0  0  0  0
  153.0811  139.1660  182.6760 C   0  0  0  0  0  0  0  0  0  0  0  0
  153.2526  138.3676  183.7240 N   0  0  0  0  0  0  0  0  0  0  0  0
  152.0026  138.9559  181.7112 C   0  0  0  0  0  0  0  0  0  0  0  0
  151.2535  137.7723  181.7145 C   0  0  0  0  0  0  0  0  0  0  0  0
  150.2262  137.5968  180.8439 N   0  0  0  0  0  0  0  0  0  0  0  0
  149.8722  138.5274  179.9452 C   0  0  0  0  0  0  0  0  0  0  0  0
  150.5960  139.6629  179.9473 N   0  0  0  0  0  0  0  0  0  0  0  0
  151.6256  139.9003  180.7843 C   0  0  0  0  0  0  0  0  0  0  0  0
  148.7385  138.3272  178.9892 C   0  0  0  0  0  0  0  0  0  0  0  0
  147.5782  138.9574  179.4474 F   0  0  0  0  0  0  0  0  0  0  0  0
  148.4638  136.9946  178.8566 F   0  0  0  0  0  0  0  0  0  0  0  0
  148.9895  138.8526  177.7472 F   0  0  0  0  0  0  0  0  0  0  0  0
  1  2  1  0  0  0
  2 22  1  0  0  0
 22 23  2  0  0  0
 22 24  1  0  0  0
 24 26  1  0  0  0
 26 27  2  0  0  0
 27 28  1  0  0  0
 28 29  2  0  0  0
 29 30  1  0  0  0
 30 31  2  0  0  0
 30 32  1  0  0  0
 32 33  2  0  0  0
 33 34  1  0  0  0
 34 35  2  0  0  0
 35 36  1  0  0  0
 36 37  2  0  0  0
 35 38  1  0  0  0
 38 39  1  0  0  0
 38 40  1  0  0  0
 38 41  1  0  0  0
  2  3  1  0  0  0
  3  4  1  0  0  0
  4  5  2  0  0  0
  5  6  1  0  0  0
  6  7  1  0  0  0
  7  8  1  0  0  0
  7  9  1  0  0  0
  9 10  2  0  0  0
  9 11  1  0  0  0
 11 15  1  0  0  0
 15 16  1  0  0  0
 16 17  2  0  0  0
 17 18  1  0  0  0
 18 19  1  0  0  0
 18 20  2  0  0  0
 20 21  1  0  0  0
 11 12  1  0  0  0
 12 13  2  0  0  0
 12 14  1  0  0  0
 31 26  1  0  0  0
 37 32  1  0  0  0
 14  3  1  0  0  0
 14  6  2  0  0  0
 21 16  1  0  0  0
 24 25  1  0  0  0
M  END
> <minimizedAffinity>
-6.92939

> <CNNscore>
0.3183581531

> <CNNaffinity>
6.1768503189

> <CNN_VS>
1.9664506912

> <CNNaffinity_variance>
0.3709396422

$$$$
[H]c1nc([H])c(N([H])C(=O)[C@@]([H])(n2c([H])nc3c2c(=O)n(C([H])([H])c2nc(C([H])([H])[H])no2)c(=O)n3C([H])([H])[H])C([H])([H])[H])nc1-c1c([H])nc(C(F)(F)F)nc1[H]


 41 45  0  0  0  0  0  0  0  0999 V2000
  155.0649  138.6928  185.8842 C   0  0  0  0  0  0  0  0  0  0  0  0
  155.1836  138.5199  184.3401 C   0  0  0  0  0  0  0  0  0  0  0  0
  155.1847  139.8965  183.8427 N   0  0  0  0  0  0  0  0  0  0  0  0
  154.0923  140.6969  183.8587 C   0  0  0  0  0  0  0  0  0  0  0  0
  154.4157  141.9163  183.3816 N   0  0  0  0  0  0  0  0  0  0  0  0
  155.7224  141.9176  183.0545 C   0  0  0  0  0  0  0  0  0  0  0  0
  156.5133  142.8999  182.5733 N   0  0  0  0  0  0  0  0  0  0  0  0
  155.9521  144.1920  182.2661 C   0  0  0  0  0  0  0  0  0  0  0  0
  157.7980  142.5826  182.3936 C   0  0  0  0  0  0  0  0  0  0  0  0
  158.6021  143.4543  181.9457 O   0  0  0  0  0  0  0  0  0  0  0  0
  158.3033  141.3574  182.6627 N   0  0  0  0  0  0  0  0  0  0  0  0
  157.5311  140.3816  183.1336 C   0  0  0  0  0  0  0  0  0  0  0  0
  157.9332  139.2431  183.3990 O   0  0  0  0  0  0  0  0  0  0  0  0
  156.1817  140.6383  183.3522 C   0  0  0  0  0  0  0  0  0  0  0  0
  159.7257  141.1798  182.4993 C   0  0  0  0  0  0  0  0  0  0  0  0
  160.4936  141.6220  183.6849 C   0  0  0  0  0  0  0  0  0  0  0  0
  159.8565  142.1346  184.7926 N   0  0  0  0  0  0  0  0  0  0  0  0
  160.8076  142.4473  185.7015 C   0  0  0  0  0  0  0  0  0  0  0  0
  160.5888  143.0290  187.0470 C   0  0  0  0  0  0  0  0  0  0  0  0
  161.9725  142.1347  185.1574 N   0  0  0  0  0  0  0  0  0  0  0  0
  161.7334  141.6461  183.9569 O   0  0  0  0  0  0  0  0  0  0  0  0
  153.8524  137.9191  183.9314 C   0  0  0  0  0  0  0  0  0  0  0  0
  153.5203  138.0098  182.7345 O   0  0  0  0  0  0  0  0  0  0  0  0
  153.0362  137.2966  184.8758 N   0  0  0  0  0  0  0  0  0  0  0  0
  153.4066  137.2411  185.8770 H   0  0  0  0  0  0  0  0  0  0  0  0
  151.7012  136.8076  184.6900 C   0  0  0  0  0  0  0  0  0  0  0  0
  150.6737  136.9700  185.5728 C   0  0  0  0  0  0  0  0  0  0  0  0
  149.4688  136.4328  185.3138 N   0  0  0  0  0  0  0  0  0  0  0  0
  149.2380  135.7192  184.1814 C   0  0  0  0  0  0  0  0  0  0  0  0
  150.2519  135.5362  183.2710 C   0  0  0  0  0  0  0  0  0  0  0  0
  151.4299  136.0807  183.5555 N   0  0  0  0  0  0  0  0  0  0  0  0
  150.0228  134.7890  182.0351 C   0  0  0  0  0  0  0  0  0  0  0  0
  149.1366  135.2640  181.0598 C   0  0  0  0  0  0  0  0  0  0  0  0
  148.9565  134.5888  179.8956 N   0  0  0  0  0  0  0  0  0  0  0  0
  149.6032  133.4482  179.6129 C   0  0  0  0  0  0  0  0  0  0  0  0
  150.4537  132.9970  180.5543 N   0  0  0  0  0  0  0  0  0  0  0  0
  150.6788  133.6190  181.7289 C   0  0  0  0  0  0  0  0  0  0  0  0
  149.4000  132.7098  178.3273 C   0  0  0  0  0  0  0  0  0  0  0  0
  149.0426  131.3794  178.5636 F   0  0  0  0  0  0  0  0  0  0  0  0
  150.5561  132.7070  177.5977 F   0  0  0  0  0  0  0  0  0  0  0  0
  148.3945  133.2415  177.5605 F   0  0  0  0  0  0  0  0  0  0  0  0
  1  2  1  0  0  0
  2 22  1  0  0  0
 22 23  2  0  0  0
 22 24  1  0  0  0
 24 26  1  0  0  0
 26 27  2  0  0  0
 27 28  1  0  0  0
 28 29  2  0  0  0
 29 30  1  0  0  0
 30 31  2  0  0  0
 30 32  1  0  0  0
 32 33  2  0  0  0
 33 34  1  0  0  0
 34 35  2  0  0  0
 35 36  1  0  0  0
 36 37  2  0  0  0
 35 38  1  0  0  0
 38 39  1  0  0  0
 38 40  1  0  0  0
 38 41  1  0  0  0
  2  3  1  0  0  0
  3  4  1  0  0  0
  4  5  2  0  0  0
  5  6  1  0  0  0
  6  7  1  0  0  0
  7  8  1  0  0  0
  7  9  1  0  0  0
  9 10  2  0  0  0
  9 11  1  0  0  0
 11 15  1  0  0  0
 15 16  1  0  0  0
 16 17  2  0  0  0
 17 18  1  0  0  0
 18 19  1  0  0  0
 18 20  2  0  0  0
 20 21  1  0  0  0
 11 12  1  0  0  0
 12 13  2  0  0  0
 12 14  1  0  0  0
 31 26  1  0  0  0
 37 32  1  0  0  0
 14  3  1  0  0  0
 14  6  2  0  0  0
 21 16  1  0  0  0
 24 25  1  0  0  0
M  END
> <minimizedAffinity>
-6.93801

> <CNNscore>
0.3067267537

> <CNNaffinity>
6.9452543259

> <CNN_VS>
2.1302952766

> <CNNaffinity_variance>
0.1534362733

$$$$
[H]c1nc([H])c(N([H])C(=O)[C@@]([H])(n2c([H])nc3c2c(=O)n(C([H])([H])c2nc(C([H])([H])[H])no2)c(=O)n3C([H])([H])[H])C([H])([H])[H])nc1-c1c([H])nc(C(F)(F)F)nc1[H]


 41 45  0  0  0  0  0  0  0  0999 V2000
  150.0239  138.8153  179.3612 C   0  0  0  0  0  0  0  0  0  0  0  0
  150.2005  137.8286  180.5543 C   0  0  0  0  0  0  0  0  0  0  0  0
  149.2307  138.3092  181.5396 N   0  0  0  0  0  0  0  0  0  0  0  0
  148.4832  139.4256  181.3684 C   0  0  0  0  0  0  0  0  0  0  0  0
  147.6527  139.5818  182.4196 N   0  0  0  0  0  0  0  0  0  0  0  0
  147.8528  138.5655  183.2807 C   0  0  0  0  0  0  0  0  0  0  0  0
  147.2483  138.2635  184.4492 N   0  0  0  0  0  0  0  0  0  0  0  0
  146.2423  139.1440  184.9892 C   0  0  0  0  0  0  0  0  0  0  0  0
  147.6566  137.1414  185.0473 C   0  0  0  0  0  0  0  0  0  0  0  0
  147.1337  136.7919  186.1479 O   0  0  0  0  0  0  0  0  0  0  0  0
  148.6203  136.3397  184.5398 N   0  0  0  0  0  0  0  0  0  0  0  0
  149.2247  136.6309  183.3908 C   0  0  0  0  0  0  0  0  0  0  0  0
  150.1104  135.9389  182.8760 O   0  0  0  0  0  0  0  0  0  0  0  0
  148.8486  137.7816  182.7062 C   0  0  0  0  0  0  0  0  0  0  0  0
  148.9030  135.1165  185.2507 C   0  0  0  0  0  0  0  0  0  0  0  0
  150.1010  135.2246  186.1133 C   0  0  0  0  0  0  0  0  0  0  0  0
  149.9844  135.4767  187.4619 N   0  0  0  0  0  0  0  0  0  0  0  0
  151.2335  135.5193  187.9780 C   0  0  0  0  0  0  0  0  0  0  0  0
  151.5983  135.7634  189.3935 C   0  0  0  0  0  0  0  0  0  0  0  0
  152.0684  135.3020  186.9746 N   0  0  0  0  0  0  0  0  0  0  0  0
  151.3464  135.1313  185.8853 O   0  0  0  0  0  0  0  0  0  0  0  0
  151.5726  138.1600  181.1089 C   0  0  0  0  0  0  0  0  0  0  0  0
  152.4287  137.2554  181.1122 O   0  0  0  0  0  0  0  0  0  0  0  0
  151.8488  139.4356  181.6010 N   0  0  0  0  0  0  0  0  0  0  0  0
  151.0653  140.1601  181.5396 H   0  0  0  0  0  0  0  0  0  0  0  0
  153.0330  139.8720  182.2814 C   0  0  0  0  0  0  0  0  0  0  0  0
  153.9381  140.7671  181.7904 C   0  0  0  0  0  0  0  0  0  0  0  0
  155.0379  141.0745  182.4998 N   0  0  0  0  0  0  0  0  0  0  0  0
  155.2820  140.5109  183.7113 C   0  0  0  0  0  0  0  0  0  0  0  0
  154.3905  139.6047  184.2350 C   0  0  0  0  0  0  0  0  0  0  0  0
  153.3132  139.3233  183.5101 N   0  0  0  0  0  0  0  0  0  0  0  0
  154.6210  138.9995  185.5460 C   0  0  0  0  0  0  0  0  0  0  0  0
  153.5688  138.8257  186.4543 C   0  0  0  0  0  0  0  0  0  0  0  0
  153.7779  138.2266  187.6547 N   0  0  0  0  0  0  0  0  0  0  0  0
  154.9808  137.7729  188.0374 C   0  0  0  0  0  0  0  0  0  0  0  0
  155.9879  137.9427  187.1599 N   0  0  0  0  0  0  0  0  0  0  0  0
  155.8475  138.5275  185.9534 C   0  0  0  0  0  0  0  0  0  0  0  0
  155.2036  137.1131  189.3619 C   0  0  0  0  0  0  0  0  0  0  0  0
  154.2584  137.5380  190.2997 F   0  0  0  0  0  0  0  0  0  0  0  0
  156.4420  137.4323  189.8449 F   0  0  0  0  0  0  0  0  0  0  0  0
  155.0907  135.7472  189.3026 F   0  0  0  0  0  0  0  0  0  0  0  0
  1  2  1  0  0  0
  2 22  1  0  0  0
 22 23  2  0  0  0
 22 24  1  0  0  0
 24 26  1  0  0  0
 26 27  2  0  0  0
 27 28  1  0  0  0
 28 29  2  0  0  0
 29 30  1  0  0  0
 30 31  2  0  0  0
 30 32  1  0  0  0
 32 33  2  0  0  0
 33 34  1  0  0  0
 34 35  2  0  0  0
 35 36  1  0  0  0
 36 37  2  0  0  0
 35 38  1  0  0  0
 38 39  1  0  0  0
 38 40  1  0  0  0
 38 41  1  0  0  0
  2  3  1  0  0  0
  3  4  1  0  0  0
  4  5  2  0  0  0
  5  6  1  0  0  0
  6  7  1  0  0  0
  7  8  1  0  0  0
  7  9  1  0  0  0
  9 10  2  0  0  0
  9 11  1  0  0  0
 11 15  1  0  0  0
 15 16  1  0  0  0
 16 17  2  0  0  0
 17 18  1  0  0  0
 18 19  1  0  0  0
 18 20  2  0  0  0
 20 21  1  0  0  0
 11 12  1  0  0  0
 12 13  2  0  0  0
 12 14  1  0  0  0
 31 26  1  0  0  0
 37 32  1  0  0  0
 14  3  1  0  0  0
 14  6  2  0  0  0
 21 16  1  0  0  0
 24 25  1  0  0  0
M  END
> <minimizedAffinity>
-6.03125

> <CNNscore>
0.2990437150

> <CNNaffinity>
6.4048194885

> <CNN_VS>
1.9153209925

> <CNNaffinity_variance>
0.4109982550

$$$$
[H]c1nc([H])c(N([H])C(=O)[C@@]([H])(n2c([H])nc3c2c(=O)n(C([H])([H])c2nc(C([H])([H])[H])no2)c(=O)n3C([H])([H])[H])C([H])([H])[H])nc1-c1c([H])nc(C(F)(F)F)nc1[H]


 41 45  0  0  0  0  0  0  0  0999 V2000
  155.9555  137.1258  187.0674 C   0  0  0  0  0  0  0  0  0  0  0  0
  154.5824  137.6996  187.5299 C   0  0  0  0  0  0  0  0  0  0  0  0
  153.6752  136.5585  187.3987 N   0  0  0  0  0  0  0  0  0  0  0  0
  153.0867  136.2030  186.2319 C   0  0  0  0  0  0  0  0  0  0  0  0
  152.3487  135.0892  186.4164 N   0  0  0  0  0  0  0  0  0  0  0  0
  152.4549  134.7112  187.7048 C   0  0  0  0  0  0  0  0  0  0  0  0
  151.9357  133.6529  188.3624 N   0  0  0  0  0  0  0  0  0  0  0  0
  151.0551  132.7396  187.6772 C   0  0  0  0  0  0  0  0  0  0  0  0
  152.2740  133.5391  189.6493 C   0  0  0  0  0  0  0  0  0  0  0  0
  151.8259  132.5695  190.3317 O   0  0  0  0  0  0  0  0  0  0  0  0
  153.0811  134.4194  190.2839 N   0  0  0  0  0  0  0  0  0  0  0  0
  153.5946  135.4678  189.6454 C   0  0  0  0  0  0  0  0  0  0  0  0
  154.3376  136.3055  190.1692 O   0  0  0  0  0  0  0  0  0  0  0  0
  153.2916  135.6501  188.3003 C   0  0  0  0  0  0  0  0  0  0  0  0
  153.4287  134.1273  191.6533 C   0  0  0  0  0  0  0  0  0  0  0  0
  152.5685  134.8421  192.6228 C   0  0  0  0  0  0  0  0  0  0  0  0
  152.6532  134.5834  193.9725 N   0  0  0  0  0  0  0  0  0  0  0  0
  151.7558  135.3791  194.5970 C   0  0  0  0  0  0  0  0  0  0  0  0
  151.4947  135.4446  196.0544 C   0  0  0  0  0  0  0  0  0  0  0  0
  151.1541  136.0878  193.6554 N   0  0  0  0  0  0  0  0  0  0  0  0
  151.6730  135.7331  192.4969 O   0  0  0  0  0  0  0  0  0  0  0  0
  154.2014  138.6764  186.4341 C   0  0  0  0  0  0  0  0  0  0  0  0
  153.0952  139.2418  186.5227 O   0  0  0  0  0  0  0  0  0  0  0  0
  155.0669  138.9171  185.3671 N   0  0  0  0  0  0  0  0  0  0  0  0
  156.0068  138.4081  185.3796 H   0  0  0  0  0  0  0  0  0  0  0  0
  154.8069  139.6920  184.1890 C   0  0  0  0  0  0  0  0  0  0  0  0
  155.5128  140.7927  183.7996 C   0  0  0  0  0  0  0  0  0  0  0  0
  155.1550  141.4687  182.6940 N   0  0  0  0  0  0  0  0  0  0  0  0
  154.0928  141.0849  181.9395 C   0  0  0  0  0  0  0  0  0  0  0  0
  153.3597  139.9804  182.3042 C   0  0  0  0  0  0  0  0  0  0  0  0
  153.7397  139.3335  183.4006 N   0  0  0  0  0  0  0  0  0  0  0  0
  152.2243  139.5355  181.4973 C   0  0  0  0  0  0  0  0  0  0  0  0
  151.1623  138.8287  182.0759 C   0  0  0  0  0  0  0  0  0  0  0  0
  150.0902  138.4523  181.3324 N   0  0  0  0  0  0  0  0  0  0  0  0
  149.9837  138.7287  180.0241 C   0  0  0  0  0  0  0  0  0  0  0  0
  151.0077  139.4085  179.4740 N   0  0  0  0  0  0  0  0  0  0  0  0
  152.0986  139.8120  180.1553 C   0  0  0  0  0  0  0  0  0  0  0  0
  148.7988  138.3110  179.2112 C   0  0  0  0  0  0  0  0  0  0  0  0
  147.6153  138.8253  179.7481 F   0  0  0  0  0  0  0  0  0  0  0  0
  148.6927  136.9482  179.1988 F   0  0  0  0  0  0  0  0  0  0  0  0
  148.8548  138.7620  177.9169 F   0  0  0  0  0  0  0  0  0  0  0  0
  1  2  1  0  0  0
  2 22  1  0  0  0
 22 23  2  0  0  0
 22 24  1  0  0  0
 24 26  1  0  0  0
 26 27  2  0  0  0
 27 28  1  0  0  0
 28 29  2  0  0  0
 29 30  1  0  0  0
 30 31  2  0  0  0
 30 32  1  0  0  0
 32 33  2  0  0  0
 33 34  1  0  0  0
 34 35  2  0  0  0
 35 36  1  0  0  0
 36 37  2  0  0  0
 35 38  1  0  0  0
 38 39  1  0  0  0
 38 40  1  0  0  0
 38 41  1  0  0  0
  2  3  1  0  0  0
  3  4  1  0  0  0
  4  5  2  0  0  0
  5  6  1  0  0  0
  6  7  1  0  0  0
  7  8  1  0  0  0
  7  9  1  0  0  0
  9 10  2  0  0  0
  9 11  1  0  0  0
 11 15  1  0  0  0
 15 16  1  0  0  0
 16 17  2  0  0  0
 17 18  1  0  0  0
 18 19  1  0  0  0
 18 20  2  0  0  0
 20 21  1  0  0  0
 11 12  1  0  0  0
 12 13  2  0  0  0
 12 14  1  0  0  0
 31 26  1  0  0  0
 37 32  1  0  0  0
 14  3  1  0  0  0
 14  6  2  0  0  0
 21 16  1  0  0  0
 24 25  1  0  0  0
M  END
> <minimizedAffinity>
-6.68053

> <CNNscore>
0.2936392426

> <CNNaffinity>
6.2004194260

> <CNN_VS>
1.8206864595

> <CNNaffinity_variance>
0.0421992093

$$$$
[H]c1nc([H])c(N([H])C(=O)[C@@]([H])(n2c([H])nc3c2c(=O)n(C([H])([H])c2nc(C([H])([H])[H])no2)c(=O)n3C([H])([H])[H])C([H])([H])[H])nc1-c1c([H])nc(C(F)(F)F)nc1[H]


 41 45  0  0  0  0  0  0  0  0999 V2000
  155.5999  138.9241  185.6098 C   0  0  0  0  0  0  0  0  0  0  0  0
  155.2882  138.7460  184.0934 C   0  0  0  0  0  0  0  0  0  0  0  0
  155.3496  140.1118  183.5707 N   0  0  0  0  0  0  0  0  0  0  0  0
  154.2519  140.8544  183.2918 C   0  0  0  0  0  0  0  0  0  0  0  0
  154.6272  142.0804  182.8732 N   0  0  0  0  0  0  0  0  0  0  0  0
  155.9727  142.1441  182.8799 C   0  0  0  0  0  0  0  0  0  0  0  0
  156.8123  143.1576  182.5802 N   0  0  0  0  0  0  0  0  0  0  0  0
  156.2862  144.4131  182.1051 C   0  0  0  0  0  0  0  0  0  0  0  0
  158.1145  142.9046  182.7338 C   0  0  0  0  0  0  0  0  0  0  0  0
  158.9637  143.8089  182.4730 O   0  0  0  0  0  0  0  0  0  0  0  0
  158.5929  141.7122  183.1562 N   0  0  0  0  0  0  0  0  0  0  0  0
  157.7737  140.7059  183.4503 C   0  0  0  0  0  0  0  0  0  0  0  0
  158.1492  139.5948  183.8410 O   0  0  0  0  0  0  0  0  0  0  0  0
  156.4020  140.8958  183.3202 C   0  0  0  0  0  0  0  0  0  0  0  0
  160.0179  141.6062  183.3554 C   0  0  0  0  0  0  0  0  0  0  0  0
  160.4344  142.0217  184.7136 C   0  0  0  0  0  0  0  0  0  0  0  0
  161.7658  142.1532  185.0388 N   0  0  0  0  0  0  0  0  0  0  0  0
  161.8330  142.5403  186.3327 C   0  0  0  0  0  0  0  0  0  0  0  0
  163.0639  142.8053  187.1143 C   0  0  0  0  0  0  0  0  0  0  0  0
  160.5869  142.6359  186.7674 N   0  0  0  0  0  0  0  0  0  0  0  0
  159.7903  142.3182  185.7666 O   0  0  0  0  0  0  0  0  0  0  0  0
  153.8270  138.3414  184.0607 C   0  0  0  0  0  0  0  0  0  0  0  0
  153.2227  138.2692  185.1474 O   0  0  0  0  0  0  0  0  0  0  0  0
  153.1977  138.0562  182.8490 N   0  0  0  0  0  0  0  0  0  0  0  0
  153.7820  138.1651  181.9606 H   0  0  0  0  0  0  0  0  0  0  0  0
  151.8788  137.5291  182.6524 C   0  0  0  0  0  0  0  0  0  0  0  0
  151.2887  137.3171  181.4407 C   0  0  0  0  0  0  0  0  0  0  0  0
  150.0280  136.8549  181.3745 N   0  0  0  0  0  0  0  0  0  0  0  0
  149.3093  136.5889  182.4960 C   0  0  0  0  0  0  0  0  0  0  0  0
  149.8739  136.7920  183.7330 C   0  0  0  0  0  0  0  0  0  0  0  0
  151.1215  137.2479  183.7644 N   0  0  0  0  0  0  0  0  0  0  0  0
  149.1277  136.4941  184.9547 C   0  0  0  0  0  0  0  0  0  0  0  0
  149.6742  136.7628  186.2162 C   0  0  0  0  0  0  0  0  0  0  0  0
  148.9630  136.5229  187.3478 N   0  0  0  0  0  0  0  0  0  0  0  0
  147.7179  136.0242  187.3280 C   0  0  0  0  0  0  0  0  0  0  0  0
  147.1983  135.7683  186.1124 N   0  0  0  0  0  0  0  0  0  0  0  0
  147.8498  135.9843  184.9522 C   0  0  0  0  0  0  0  0  0  0  0  0
  146.9400  135.7629  188.5793 C   0  0  0  0  0  0  0  0  0  0  0  0
  147.7920  135.4759  189.6494 F   0  0  0  0  0  0  0  0  0  0  0  0
  146.1140  134.6877  188.4048 F   0  0  0  0  0  0  0  0  0  0  0  0
  146.1868  136.8396  188.9732 F   0  0  0  0  0  0  0  0  0  0  0  0
  1  2  1  0  0  0
  2 22  1  0  0  0
 22 23  2  0  0  0
 22 24  1  0  0  0
 24 26  1  0  0  0
 26 27  2  0  0  0
 27 28  1  0  0  0
 28 29  2  0  0  0
 29 30  1  0  0  0
 30 31  2  0  0  0
 30 32  1  0  0  0
 32 33  2  0  0  0
 33 34  1  0  0  0
 34 35  2  0  0  0
 35 36  1  0  0  0
 36 37  2  0  0  0
 35 38  1  0  0  0
 38 39  1  0  0  0
 38 40  1  0  0  0
 38 41  1  0  0  0
  2  3  1  0  0  0
  3  4  1  0  0  0
  4  5  2  0  0  0
  5  6  1  0  0  0
  6  7  1  0  0  0
  7  8  1  0  0  0
  7  9  1  0  0  0
  9 10  2  0  0  0
  9 11  1  0  0  0
 11 15  1  0  0  0
 15 16  1  0  0  0
 16 17  2  0  0  0
 17 18  1  0  0  0
 18 19  1  0  0  0
 18 20  2  0  0  0
 20 21  1  0  0  0
 11 12  1  0  0  0
 12 13  2  0  0  0
 12 14  1  0  0  0
 31 26  1  0  0  0
 37 32  1  0  0  0
 14  3  1  0  0  0
 14  6  2  0  0  0
 21 16  1  0  0  0
 24 25  1  0  0  0
M  END
> <minimizedAffinity>
-8.36520

> <CNNscore>
0.2899720967

> <CNNaffinity>
6.7718629837

> <CNN_VS>
1.9636512995

> <CNNaffinity_variance>
0.1017627493

$$$$
[H]C1=Nc2c([H])c([H])c([H])c(C#N)c2Oc2c([H])c([H])c([H])c([H])c21


 17 19  0  0  0  0  0  0  0  0999 V2000
  154.0193  137.9536  189.2494 C   0  0  0  0  0  0  0  0  0  0  0  0
  154.2074  138.4317  187.9715 C   0  0  0  0  0  0  0  0  0  0  0  0
  153.2845  138.0154  187.0210 C   0  0  0  0  0  0  0  0  0  0  0  0
  152.2416  137.1775  187.3218 C   0  0  0  0  0  0  0  0  0  0  0  0
  152.0571  136.7016  188.6012 C   0  0  0  0  0  0  0  0  0  0  0  0
  150.9223  135.8427  188.7314 N   0  0  0  0  0  0  0  0  0  0  0  0
  150.3926  135.4398  189.8376 C   0  0  0  0  0  0  0  0  0  0  0  0
  150.7782  135.7292  191.2171 C   0  0  0  0  0  0  0  0  0  0  0  0
  149.8396  135.3531  192.1497 C   0  0  0  0  0  0  0  0  0  0  0  0
  150.0274  135.5460  193.4992 C   0  0  0  0  0  0  0  0  0  0  0  0
  151.1805  136.1319  193.9721 C   0  0  0  0  0  0  0  0  0  0  0  0
  152.1258  136.5118  193.0501 C   0  0  0  0  0  0  0  0  0  0  0  0
  151.9406  136.3203  191.6994 C   0  0  0  0  0  0  0  0  0  0  0  0
  152.9906  136.7610  190.9170 O   0  0  0  0  0  0  0  0  0  0  0  0
  152.9733  137.1111  189.5594 C   0  0  0  0  0  0  0  0  0  0  0  0
  155.7003  138.6922  191.1030 N   0  0  0  0  0  0  0  0  0  0  0  0
  154.9501  138.3598  190.2596 C   0  0  0  0  0  0  0  0  0  0  0  0
 16 17  3  0  0  0
 17  1  1  0  0  0
  1  2  2  0  0  0
  2  3  1  0  0  0
  3  4  2  0  0  0
  4  5  1  0  0  0
  5  6  1  0  0  0
  6  7  2  0  0  0
  7  8  1  0  0  0
  8  9  2  0  0  0
  9 10  1  0  0  0
 10 11  2  0  0  0
 11 12  1  0  0  0
 12 13  2  0  0  0
 13 14  1  0  0  0
 14 15  1  0  0  0
 15  1  1  0  0  0
 15  5  2  0  0  0
 13  8  1  0  0  0
M  END
> <minimizedAffinity>
-5.39434

> <CNNscore>
0.5795235634

> <CNNaffinity>
4.2771248817

> <CNN_VS>
2.4786946774

> <CNNaffinity_variance>
0.1005401611

$$$$
[H]C1=Nc2c([H])c([H])c([H])c(C#N)c2Oc2c([H])c([H])c([H])c([H])c21


 17 19  0  0  0  0  0  0  0  0999 V2000
  155.5903  137.7561  188.9051 C   0  0  0  0  0  0  0  0  0  0  0  0
  154.8724  138.6613  189.6548 C   0  0  0  0  0  0  0  0  0  0  0  0
  154.7031  138.3461  190.9966 C   0  0  0  0  0  0  0  0  0  0  0  0
  155.2146  137.2038  191.5568 C   0  0  0  0  0  0  0  0  0  0  0  0
  155.9321  136.3010  190.8035 C   0  0  0  0  0  0  0  0  0  0  0  0
  156.3879  135.1710  191.5502 N   0  0  0  0  0  0  0  0  0  0  0  0
  157.2536  134.2966  191.1596 C   0  0  0  0  0  0  0  0  0  0  0  0
  157.9881  134.2083  189.8994 C   0  0  0  0  0  0  0  0  0  0  0  0
  159.0237  133.3033  189.9191 C   0  0  0  0  0  0  0  0  0  0  0  0
  159.8274  133.0835  188.8237 C   0  0  0  0  0  0  0  0  0  0  0  0
  159.6200  133.7728  187.6497 C   0  0  0  0  0  0  0  0  0  0  0  0
  158.5883  134.6797  187.6177 C   0  0  0  0  0  0  0  0  0  0  0  0
  157.7828  134.9018  188.7119 C   0  0  0  0  0  0  0  0  0  0  0  0
  156.7959  135.8462  188.5046 O   0  0  0  0  0  0  0  0  0  0  0  0
  156.1077  136.6059  189.4613 C   0  0  0  0  0  0  0  0  0  0  0  0
  155.9566  138.2637  186.3723 N   0  0  0  0  0  0  0  0  0  0  0  0
  155.7875  138.0448  187.5159 C   0  0  0  0  0  0  0  0  0  0  0  0
 16 17  3  0  0  0
 17  1  1  0  0  0
  1  2  2  0  0  0
  2  3  1  0  0  0
  3  4  2  0  0  0
  4  5  1  0  0  0
  5  6  1  0  0  0
  6  7  2  0  0  0
  7  8  1  0  0  0
  8  9  2  0  0  0
  9 10  1  0  0  0
 10 11  2  0  0  0
 11 12  1  0  0  0
 12 13  2  0  0  0
 13 14  1  0  0  0
 14 15  1  0  0  0
 15  1  1  0  0  0
 15  5  2  0  0  0
 13  8  1  0  0  0
M  END
> <minimizedAffinity>
-5.80593

> <CNNscore>
0.5731393695

> <CNNaffinity>
4.3359022141

> <CNN_VS>
2.4850761890

> <CNNaffinity_variance>
0.2366896123

$$$$
[H]C1=Nc2c([H])c([H])c([H])c(C#N)c2Oc2c([H])c([H])c([H])c([H])c21


 17 19  0  0  0  0  0  0  0  0999 V2000
  151.8758  138.4669  181.7669 C   0  0  0  0  0  0  0  0  0  0  0  0
  152.4499  139.1382  180.7101 C   0  0  0  0  0  0  0  0  0  0  0  0
  151.5786  139.8316  179.8804 C   0  0  0  0  0  0  0  0  0  0  0  0
  150.2234  139.8560  180.0882 C   0  0  0  0  0  0  0  0  0  0  0  0
  149.6533  139.1833  181.1464 C   0  0  0  0  0  0  0  0  0  0  0  0
  148.2319  139.3187  181.2082 N   0  0  0  0  0  0  0  0  0  0  0  0
  147.4757  138.9857  182.2001 C   0  0  0  0  0  0  0  0  0  0  0  0
  147.8325  138.4002  183.4906 C   0  0  0  0  0  0  0  0  0  0  0  0
  146.8123  138.4189  184.4131 C   0  0  0  0  0  0  0  0  0  0  0  0
  146.9622  137.9115  185.6836 C   0  0  0  0  0  0  0  0  0  0  0  0
  148.1582  137.3580  186.0832 C   0  0  0  0  0  0  0  0  0  0  0  0
  149.1849  137.3336  185.1703 C   0  0  0  0  0  0  0  0  0  0  0  0
  149.0380  137.8404  183.8988 C   0  0  0  0  0  0  0  0  0  0  0  0
  150.1699  137.7341  183.1138 O   0  0  0  0  0  0  0  0  0  0  0  0
  150.5145  138.4868  181.9822 C   0  0  0  0  0  0  0  0  0  0  0  0
  153.4490  137.1252  183.3581 N   0  0  0  0  0  0  0  0  0  0  0  0
  152.7409  137.7391  182.6467 C   0  0  0  0  0  0  0  0  0  0  0  0
 16 17  3  0  0  0
 17  1  1  0  0  0
  1  2  2  0  0  0
  2  3  1  0  0  0
  3  4  2  0  0  0
  4  5  1  0  0  0
  5  6  1  0  0  0
  6  7  2  0  0  0
  7  8  1  0  0  0
  8  9  2  0  0  0
  9 10  1  0  0  0
 10 11  2  0  0  0
 11 12  1  0  0  0
 12 13  2  0  0  0
 13 14  1  0  0  0
 14 15  1  0  0  0
 15  1  1  0  0  0
 15  5  2  0  0  0
 13  8  1  0  0  0
M  END
> <minimizedAffinity>
-4.64262

> <CNNscore>
0.5314399600

> <CNNaffinity>
4.4440817833

> <CNN_VS>
2.3617627621

> <CNNaffinity_variance>
0.1562672555

$$$$
[H]C1=Nc2c([H])c([H])c([H])c(C#N)c2Oc2c([H])c([H])c([H])c([H])c21


 17 19  0  0  0  0  0  0  0  0999 V2000
  150.9300  135.7703  189.1271 C   0  0  0  0  0  0  0  0  0  0  0  0
  150.0267  135.3706  188.1673 C   0  0  0  0  0  0  0  0  0  0  0  0
  150.2529  135.8419  186.8808 C   0  0  0  0  0  0  0  0  0  0  0  0
  151.3095  136.6584  186.5688 C   0  0  0  0  0  0  0  0  0  0  0  0
  152.2106  137.0558  187.5318 C   0  0  0  0  0  0  0  0  0  0  0  0
  153.2453  137.9035  187.0285 N   0  0  0  0  0  0  0  0  0  0  0  0
  154.3273  138.2380  187.6483 C   0  0  0  0  0  0  0  0  0  0  0  0
  154.7913  137.8664  188.9833 C   0  0  0  0  0  0  0  0  0  0  0  0
  156.1077  138.1840  189.2251 C   0  0  0  0  0  0  0  0  0  0  0  0
  156.7200  137.9103  190.4267 C   0  0  0  0  0  0  0  0  0  0  0  0
  156.0254  137.2988  191.4467 C   0  0  0  0  0  0  0  0  0  0  0  0
  154.7096  136.9768  191.2171 C   0  0  0  0  0  0  0  0  0  0  0  0
  154.0944  137.2492  190.0160 C   0  0  0  0  0  0  0  0  0  0  0  0
  152.7705  136.8583  189.9577 O   0  0  0  0  0  0  0  0  0  0  0  0
  151.9945  136.5908  188.8210 C   0  0  0  0  0  0  0  0  0  0  0  0
  150.5631  134.9059  191.5614 N   0  0  0  0  0  0  0  0  0  0  0  0
  150.7318  135.3053  190.4675 C   0  0  0  0  0  0  0  0  0  0  0  0
 16 17  3  0  0  0
 17  1  1  0  0  0
  1  2  2  0  0  0
  2  3  1  0  0  0
  3  4  2  0  0  0
  4  5  1  0  0  0
  5  6  1  0  0  0
  6  7  2  0  0  0
  7  8  1  0  0  0
  8  9  2  0  0  0
  9 10  1  0  0  0
 10 11  2  0  0  0
 11 12  1  0  0  0
 12 13  2  0  0  0
 13 14  1  0  0  0
 14 15  1  0  0  0
 15  1  1  0  0  0
 15  5  2  0  0  0
 13  8  1  0  0  0
M  END
> <minimizedAffinity>
-4.69271

> <CNNscore>
0.4670991600

> <CNNaffinity>
4.3225603104

> <CNN_VS>
2.0190641880

> <CNNaffinity_variance>
0.0559298694

$$$$
[H]C1=Nc2c([H])c([H])c([H])c(C#N)c2Oc2c([H])c([H])c([H])c([H])c21


 17 19  0  0  0  0  0  0  0  0999 V2000
  150.4756  135.7813  191.5621 C   0  0  0  0  0  0  0  0  0  0  0  0
  150.1844  135.7386  192.9077 C   0  0  0  0  0  0  0  0  0  0  0  0
  151.1675  136.2211  193.7615 C   0  0  0  0  0  0  0  0  0  0  0  0
  152.3634  136.7143  193.3067 C   0  0  0  0  0  0  0  0  0  0  0  0
  152.6506  136.7552  191.9601 C   0  0  0  0  0  0  0  0  0  0  0  0
  153.9396  137.2994  191.6689 N   0  0  0  0  0  0  0  0  0  0  0  0
  154.3731  137.6554  190.5061 C   0  0  0  0  0  0  0  0  0  0  0  0
  153.7059  137.6095  189.2068 C   0  0  0  0  0  0  0  0  0  0  0  0
  154.3576  138.3115  188.2196 C   0  0  0  0  0  0  0  0  0  0  0  0
  153.8789  138.3824  186.9313 C   0  0  0  0  0  0  0  0  0  0  0  0
  152.7115  137.7426  186.5787 C   0  0  0  0  0  0  0  0  0  0  0  0
  152.0513  137.0380  187.5563 C   0  0  0  0  0  0  0  0  0  0  0  0
  152.5277  136.9655  188.8459 C   0  0  0  0  0  0  0  0  0  0  0  0
  151.7395  136.2160  189.6980 O   0  0  0  0  0  0  0  0  0  0  0  0
  151.6754  136.2757  191.0975 C   0  0  0  0  0  0  0  0  0  0  0  0
  148.6609  134.8997  189.9077 N   0  0  0  0  0  0  0  0  0  0  0  0
  149.4870  135.2928  190.6477 C   0  0  0  0  0  0  0  0  0  0  0  0
 16 17  3  0  0  0
 17  1  1  0  0  0
  1  2  2  0  0  0
  2  3  1  0  0  0
  3  4  2  0  0  0
  4  5  1  0  0  0
  5  6  1  0  0  0
  6  7  2  0  0  0
  7  8  1  0  0  0
  8  9  2  0  0  0
  9 10  1  0  0  0
 10 11  2  0  0  0
 11 12  1  0  0  0
 12 13  2  0  0  0
 13 14  1  0  0  0
 14 15  1  0  0  0
 15  1  1  0  0  0
 15  5  2  0  0  0
 13  8  1  0  0  0
M  END
> <minimizedAffinity>
-5.44829

> <CNNscore>
0.4625499547

> <CNNaffinity>
4.2574625015

> <CNN_VS>
1.9692890644

> <CNNaffinity_variance>
0.0688029975

$$$$
[H]C1=Nc2c([H])c([H])c([H])c(C#N)c2Oc2c([H])c([H])c([H])c([H])c21


 17 19  0  0  0  0  0  0  0  0999 V2000
  155.8572  135.7426  190.8024 C   0  0  0  0  0  0  0  0  0  0  0  0
  156.6843  136.7258  190.3061 C   0  0  0  0  0  0  0  0  0  0  0  0
  156.2565  138.0342  190.4885 C   0  0  0  0  0  0  0  0  0  0  0  0
  155.0816  138.3451  191.1237 C   0  0  0  0  0  0  0  0  0  0  0  0
  154.2574  137.3587  191.6186 C   0  0  0  0  0  0  0  0  0  0  0  0
  153.0782  137.8645  192.2482 N   0  0  0  0  0  0  0  0  0  0  0  0
  152.2551  137.1915  192.9804 C   0  0  0  0  0  0  0  0  0  0  0  0
  152.2846  135.7815  193.3635 C   0  0  0  0  0  0  0  0  0  0  0  0
  151.4003  135.4569  194.3659 C   0  0  0  0  0  0  0  0  0  0  0  0
  151.2863  134.1768  194.8580 C   0  0  0  0  0  0  0  0  0  0  0  0
  152.0661  133.1585  194.3564 C   0  0  0  0  0  0  0  0  0  0  0  0
  152.9533  133.4705  193.3546 C   0  0  0  0  0  0  0  0  0  0  0  0
  153.0696  134.7501  192.8604 C   0  0  0  0  0  0  0  0  0  0  0  0
  154.0094  134.8849  191.8567 O   0  0  0  0  0  0  0  0  0  0  0  0
  154.6749  136.0474  191.4421 C   0  0  0  0  0  0  0  0  0  0  0  0
  156.6089  133.2647  190.4825 N   0  0  0  0  0  0  0  0  0  0  0  0
  156.2630  134.3791  190.6346 C   0  0  0  0  0  0  0  0  0  0  0  0
 16 17  3  0  0  0
 17  1  1  0  0  0
  1  2  2  0  0  0
  2  3  1  0  0  0
  3  4  2  0  0  0
  4  5  1  0  0  0
  5  6  1  0  0  0
  6  7  2  0  0  0
  7  8  1  0  0  0
  8  9  2  0  0  0
  9 10  1  0  0  0
 10 11  2  0  0  0
 11 12  1  0  0  0
 12 13  2  0  0  0
 13 14  1  0  0  0
 14 15  1  0  0  0
 15  1  1  0  0  0
 15  5  2  0  0  0
 13  8  1  0  0  0
M  END
> <minimizedAffinity>
-4.95973

> <CNNscore>
0.4564448595

> <CNNaffinity>
4.2390708923

> <CNN_VS>
1.9349020720

> <CNNaffinity_variance>
0.1090167984

$$$$
[H]C1=Nc2c([H])c([H])c([H])c(C#N)c2Oc2c([H])c([H])c([H])c([H])c21


 17 19  0  0  0  0  0  0  0  0999 V2000
  153.0448  137.7767  186.6287 C   0  0  0  0  0  0  0  0  0  0  0  0
  153.6635  138.0552  185.4301 C   0  0  0  0  0  0  0  0  0  0  0  0
  155.0280  138.3059  185.4901 C   0  0  0  0  0  0  0  0  0  0  0  0
  155.7322  138.2813  186.6665 C   0  0  0  0  0  0  0  0  0  0  0  0
  155.1095  138.0023  187.8631 C   0  0  0  0  0  0  0  0  0  0  0  0
  155.9958  138.0198  188.9841 N   0  0  0  0  0  0  0  0  0  0  0  0
  155.7340  137.5853  190.1712 C   0  0  0  0  0  0  0  0  0  0  0  0
  154.5128  136.9765  190.6943 C   0  0  0  0  0  0  0  0  0  0  0  0
  154.6664  136.3892  191.9286 C   0  0  0  0  0  0  0  0  0  0  0  0
  153.6263  135.7658  192.5794 C   0  0  0  0  0  0  0  0  0  0  0  0
  152.3743  135.7068  192.0089 C   0  0  0  0  0  0  0  0  0  0  0  0
  152.2084  136.2900  190.7759 C   0  0  0  0  0  0  0  0  0  0  0  0
  153.2470  136.9142  190.1224 C   0  0  0  0  0  0  0  0  0  0  0  0
  152.9039  137.4454  188.8940 O   0  0  0  0  0  0  0  0  0  0  0  0
  153.7460  137.7502  187.8152 C   0  0  0  0  0  0  0  0  0  0  0  0
  150.4841  137.2789  186.5828 N   0  0  0  0  0  0  0  0  0  0  0  0
  151.6371  137.5122  186.6096 C   0  0  0  0  0  0  0  0  0  0  0  0
 16 17  3  0  0  0
 17  1  1  0  0  0
  1  2  2  0  0  0
  2  3  1  0  0  0
  3  4  2  0  0  0
  4  5  1  0  0  0
  5  6  1  0  0  0
  6  7  2  0  0  0
  7  8  1  0  0  0
  8  9  2  0  0  0
  9 10  1  0  0  0
 10 11  2  0  0  0
 11 12  1  0  0  0
 12 13  2  0  0  0
 13 14  1  0  0  0
 14 15  1  0  0  0
 15  1  1  0  0  0
 15  5  2  0  0  0
 13  8  1  0  0  0
M  END
> <minimizedAffinity>
-4.86775

> <CNNscore>
0.4086053371

> <CNNaffinity>
4.3674387932

> <CNN_VS>
1.7845587730

> <CNNaffinity_variance>
0.1045639142

$$$$
[H]C1=Nc2c([H])c([H])c([H])c(C#N)c2Oc2c([H])c([H])c([H])c([H])c21


 17 19  0  0  0  0  0  0  0  0999 V2000
  154.6893  138.5120  185.0199 C   0  0  0  0  0  0  0  0  0  0  0  0
  154.0149  138.5859  183.8212 C   0  0  0  0  0  0  0  0  0  0  0  0
  152.7708  137.9704  183.7806 C   0  0  0  0  0  0  0  0  0  0  0  0
  152.2319  137.3227  184.8625 C   0  0  0  0  0  0  0  0  0  0  0  0
  152.9096  137.2511  186.0595 C   0  0  0  0  0  0  0  0  0  0  0  0
  152.1989  136.5396  187.0749 N   0  0  0  0  0  0  0  0  0  0  0  0
  152.4904  136.5090  188.3321 C   0  0  0  0  0  0  0  0  0  0  0  0
  153.5808  137.1616  189.0537 C   0  0  0  0  0  0  0  0  0  0  0  0
  153.4413  137.1317  190.4219 C   0  0  0  0  0  0  0  0  0  0  0  0
  154.3696  137.6958  191.2668 C   0  0  0  0  0  0  0  0  0  0  0  0
  155.4896  138.3204  190.7647 C   0  0  0  0  0  0  0  0  0  0  0  0
  155.6401  138.3566  189.3995 C   0  0  0  0  0  0  0  0  0  0  0  0
  154.7131  137.7933  188.5517 C   0  0  0  0  0  0  0  0  0  0  0  0
  155.0220  137.9214  187.2112 O   0  0  0  0  0  0  0  0  0  0  0  0
  154.1539  137.8628  186.1117 C   0  0  0  0  0  0  0  0  0  0  0  0
  157.0365  139.6434  185.1519 N   0  0  0  0  0  0  0  0  0  0  0  0
  155.9766  139.1348  185.1030 C   0  0  0  0  0  0  0  0  0  0  0  0
 16 17  3  0  0  0
 17  1  1  0  0  0
  1  2  2  0  0  0
  2  3  1  0  0  0
  3  4  2  0  0  0
  4  5  1  0  0  0
  5  6  1  0  0  0
  6  7  2  0  0  0
  7  8  1  0  0  0
  8  9  2  0  0  0
  9 10  1  0  0  0
 10 11  2  0  0  0
 11 12  1  0  0  0
 12 13  2  0  0  0
 13 14  1  0  0  0
 14 15  1  0  0  0
 15  1  1  0  0  0
 15  5  2  0  0  0
 13  8  1  0  0  0
M  END
> <minimizedAffinity>
-5.17556

> <CNNscore>
0.3947232068

> <CNNaffinity>
4.3501920700

> <CNN_VS>
1.7171217203

> <CNNaffinity_variance>
0.1349971741

$$$$
[H]C1=Nc2c([H])c([H])c([H])c(C#N)c2Oc2c([H])c([H])c([H])c([H])c21


 17 19  0  0  0  0  0  0  0  0999 V2000
  157.5136  133.6289  187.8375 C   0  0  0  0  0  0  0  0  0  0  0  0
  157.6746  132.8356  186.7231 C   0  0  0  0  0  0  0  0  0  0  0  0
  156.6919  132.9443  185.7481 C   0  0  0  0  0  0  0  0  0  0  0  0
  155.6179  133.7877  185.8730 C   0  0  0  0  0  0  0  0  0  0  0  0
  155.4606  134.5794  186.9891 C   0  0  0  0  0  0  0  0  0  0  0  0
  154.2869  135.3937  186.9491 N   0  0  0  0  0  0  0  0  0  0  0  0
  154.0107  136.3745  187.7419 C   0  0  0  0  0  0  0  0  0  0  0  0
  154.7797  136.9158  188.8604 C   0  0  0  0  0  0  0  0  0  0  0  0
  154.3184  138.1273  189.3205 C   0  0  0  0  0  0  0  0  0  0  0  0
  154.9158  138.7903  190.3680 C   0  0  0  0  0  0  0  0  0  0  0  0
  156.0146  138.2560  191.0034 C   0  0  0  0  0  0  0  0  0  0  0  0
  156.4847  137.0461  190.5528 C   0  0  0  0  0  0  0  0  0  0  0  0
  155.8893  136.3806  189.5050 C   0  0  0  0  0  0  0  0  0  0  0  0
  156.4910  135.1791  189.1838 O   0  0  0  0  0  0  0  0  0  0  0  0
  156.4368  134.4791  187.9701 C   0  0  0  0  0  0  0  0  0  0  0  0
  159.3081  133.4832  189.7258 N   0  0  0  0  0  0  0  0  0  0  0  0
  158.5063  133.5462  188.8669 C   0  0  0  0  0  0  0  0  0  0  0  0
 16 17  3  0  0  0
 17  1  1  0  0  0
  1  2  2  0  0  0
  2  3  1  0  0  0
  3  4  2  0  0  0
  4  5  1  0  0  0
  5  6  1  0  0  0
  6  7  2  0  0  0
  7  8  1  0  0  0
  8  9  2  0  0  0
  9 10  1  0  0  0
 10 11  2  0  0  0
 11 12  1  0  0  0
 12 13  2  0  0  0
 13 14  1  0  0  0
 14 15  1  0  0  0
 15  1  1  0  0  0
 15  5  2  0  0  0
 13  8  1  0  0  0
M  END
> <minimizedAffinity>
-4.73072

> <CNNscore>
0.3940865993

> <CNNaffinity>
4.3062143326

> <CNN_VS>
1.6970213652

> <CNNaffinity_variance>
0.0650710166

$$$$
[H]/C(=C(\c1c([H])c([H])c(Cl)c([H])c1[H])C([H])([H])[H])c1noc(C([H])([H])n2c([H])nc3nc([H])n(C([H])([H])[H])c3c2=O)n1


 27 30  0  0  0  0  0  0  0  0999 V2000
  155.6491  140.9760  183.2464 C   0  0  0  0  0  0  0  0  0  0  0  0
  155.1731  141.3880  182.0677 N   0  0  0  0  0  0  0  0  0  0  0  0
  154.1116  140.6959  181.7796 O   0  0  0  0  0  0  0  0  0  0  0  0
  153.8822  139.8401  182.7434 C   0  0  0  0  0  0  0  0  0  0  0  0
  154.8342  140.0022  183.6685 N   0  0  0  0  0  0  0  0  0  0  0  0
  158.1275  139.6973  183.0407 C   0  0  0  0  0  0  0  0  0  0  0  0
  157.9791  140.9203  183.8894 C   0  0  0  0  0  0  0  0  0  0  0  0
  156.8179  141.5017  183.9698 C   0  0  0  0  0  0  0  0  0  0  0  0
  159.1220  141.4519  184.6324 C   0  0  0  0  0  0  0  0  0  0  0  0
  160.3598  141.6431  184.0689 C   0  0  0  0  0  0  0  0  0  0  0  0
  161.4230  142.1720  184.8245 C   0  0  0  0  0  0  0  0  0  0  0  0
  161.2730  142.5170  186.1458 C   0  0  0  0  0  0  0  0  0  0  0  0
  162.6244  143.1731  187.0589 Cl  0  0  0  0  0  0  0  0  0  0  0  0
  160.0386  142.3296  186.7183 C   0  0  0  0  0  0  0  0  0  0  0  0
  159.0014  141.8099  185.9667 C   0  0  0  0  0  0  0  0  0  0  0  0
  152.7921  138.8325  182.8783 C   0  0  0  0  0  0  0  0  0  0  0  0
  151.9365  138.8968  181.6989 N   0  0  0  0  0  0  0  0  0  0  0  0
  152.4502  139.4412  180.5853 C   0  0  0  0  0  0  0  0  0  0  0  0
  151.6864  139.5186  179.4808 N   0  0  0  0  0  0  0  0  0  0  0  0
  150.4251  139.0520  179.5051 C   0  0  0  0  0  0  0  0  0  0  0  0
  149.4338  138.9917  178.5709 N   0  0  0  0  0  0  0  0  0  0  0  0
  148.3606  138.4155  179.1473 C   0  0  0  0  0  0  0  0  0  0  0  0
  148.6342  138.1026  180.4310 N   0  0  0  0  0  0  0  0  0  0  0  0
  147.6669  137.4718  181.2957 C   0  0  0  0  0  0  0  0  0  0  0  0
  149.8891  138.4925  180.6396 C   0  0  0  0  0  0  0  0  0  0  0  0
  150.6918  138.4259  181.7554 C   0  0  0  0  0  0  0  0  0  0  0  0
  150.1880  137.9084  182.7953 O   0  0  0  0  0  0  0  0  0  0  0  0
  6  7  1  0  0  0
  7  8  2  0  0  0
  8  1  1  0  0  0
  1  2  2  0  0  0
  2  3  1  0  0  0
  3  4  1  0  0  0
  4 16  1  0  0  0
 16 17  1  0  0  0
 17 18  1  0  0  0
 18 19  2  0  0  0
 19 20  1  0  0  0
 20 21  1  0  0  0
 21 22  2  0  0  0
 22 23  1  0  0  0
 23 24  1  0  0  0
 23 25  1  0  0  0
 25 26  1  0  0  0
 26 27  2  0  0  0
  4  5  2  0  0  0
  7  9  1  0  0  0
  9 10  2  0  0  0
 10 11  1  0  0  0
 11 12  2  0  0  0
 12 13  1  0  0  0
 12 14  1  0  0  0
 14 15  2  0  0  0
  5  1  1  0  0  0
 15  9  1  0  0  0
 26 17  1  0  0  0
 25 20  2  0  0  0
M  END
> <minimizedAffinity>
-9.23166

> <CNNscore>
0.6829699278

> <CNNaffinity>
6.1518373489

> <CNN_VS>
4.2015199661

> <CNNaffinity_variance>
0.0746202469

$$$$
[H]/C(=C(\c1c([H])c([H])c(Cl)c([H])c1[H])C([H])([H])[H])c1noc(C([H])([H])n2c([H])nc3nc([H])n(C([H])([H])[H])c3c2=O)n1


 27 30  0  0  0  0  0  0  0  0999 V2000
  154.4925  139.0511  183.7597 C   0  0  0  0  0  0  0  0  0  0  0  0
  154.4769  139.1154  185.0943 N   0  0  0  0  0  0  0  0  0  0  0  0
  155.6720  139.4066  185.5136 O   0  0  0  0  0  0  0  0  0  0  0  0
  156.4694  139.5344  184.4832 C   0  0  0  0  0  0  0  0  0  0  0  0
  155.7476  139.3154  183.3788 N   0  0  0  0  0  0  0  0  0  0  0  0
  153.4248  141.0919  182.1739 C   0  0  0  0  0  0  0  0  0  0  0  0
  152.8423  139.7150  182.1221 C   0  0  0  0  0  0  0  0  0  0  0  0
  153.3552  138.7789  182.8661 C   0  0  0  0  0  0  0  0  0  0  0  0
  151.7001  139.4238  181.2552 C   0  0  0  0  0  0  0  0  0  0  0  0
  151.6083  139.8710  179.9599 C   0  0  0  0  0  0  0  0  0  0  0  0
  150.4936  139.5499  179.1628 C   0  0  0  0  0  0  0  0  0  0  0  0
  149.4578  138.7833  179.6387 C   0  0  0  0  0  0  0  0  0  0  0  0
  148.0802  138.4040  178.6145 Cl  0  0  0  0  0  0  0  0  0  0  0  0
  149.5405  138.3312  180.9331 C   0  0  0  0  0  0  0  0  0  0  0  0
  150.6401  138.6522  181.7069 C   0  0  0  0  0  0  0  0  0  0  0  0
  157.9233  139.8605  184.4429 C   0  0  0  0  0  0  0  0  0  0  0  0
  158.2344  140.4897  183.1644 N   0  0  0  0  0  0  0  0  0  0  0  0
  158.3918  139.6901  182.0984 C   0  0  0  0  0  0  0  0  0  0  0  0
  158.6824  140.2383  180.9050 N   0  0  0  0  0  0  0  0  0  0  0  0
  158.8103  141.5727  180.7945 C   0  0  0  0  0  0  0  0  0  0  0  0
  159.0922  142.4002  179.7482 N   0  0  0  0  0  0  0  0  0  0  0  0
  159.0949  143.6648  180.2137 C   0  0  0  0  0  0  0  0  0  0  0  0
  158.8222  143.6745  181.5352 N   0  0  0  0  0  0  0  0  0  0  0  0
  158.7585  144.8947  182.3021 C   0  0  0  0  0  0  0  0  0  0  0  0
  158.6510  142.4007  181.8792 C   0  0  0  0  0  0  0  0  0  0  0  0
  158.3545  141.8140  183.0883 C   0  0  0  0  0  0  0  0  0  0  0  0
  158.2096  142.5861  184.0812 O   0  0  0  0  0  0  0  0  0  0  0  0
  6  7  1  0  0  0
  7  8  2  0  0  0
  8  1  1  0  0  0
  1  2  2  0  0  0
  2  3  1  0  0  0
  3  4  1  0  0  0
  4 16  1  0  0  0
 16 17  1  0  0  0
 17 18  1  0  0  0
 18 19  2  0  0  0
 19 20  1  0  0  0
 20 21  1  0  0  0
 21 22  2  0  0  0
 22 23  1  0  0  0
 23 24  1  0  0  0
 23 25  1  0  0  0
 25 26  1  0  0  0
 26 27  2  0  0  0
  4  5  2  0  0  0
  7  9  1  0  0  0
  9 10  2  0  0  0
 10 11  1  0  0  0
 11 12  2  0  0  0
 12 13  1  0  0  0
 12 14  1  0  0  0
 14 15  2  0  0  0
  5  1  1  0  0  0
 15  9  1  0  0  0
 26 17  1  0  0  0
 25 20  2  0  0  0
M  END
> <minimizedAffinity>
-8.57197

> <CNNscore>
0.4807636142

> <CNNaffinity>
6.2863092422

> <CNN_VS>
3.0222287178

> <CNNaffinity_variance>
0.3105066121

$$$$
[H]/C(=C(\c1c([H])c([H])c(Cl)c([H])c1[H])C([H])([H])[H])c1noc(C([H])([H])n2c([H])nc3nc([H])n(C([H])([H])[H])c3c2=O)n1


 27 30  0  0  0  0  0  0  0  0999 V2000
  155.1696  139.7391  183.8417 C   0  0  0  0  0  0  0  0  0  0  0  0
  154.0625  140.1304  184.4796 N   0  0  0  0  0  0  0  0  0  0  0  0
  153.7063  139.1974  185.3112 O   0  0  0  0  0  0  0  0  0  0  0  0
  154.5556  138.2043  185.2318 C   0  0  0  0  0  0  0  0  0  0  0  0
  155.4768  138.5269  184.3177 N   0  0  0  0  0  0  0  0  0  0  0  0
  157.4648  141.1535  184.5841 C   0  0  0  0  0  0  0  0  0  0  0  0
  157.0030  141.1606  183.1612 C   0  0  0  0  0  0  0  0  0  0  0  0
  155.9340  140.4941  182.8360 C   0  0  0  0  0  0  0  0  0  0  0  0
  157.7358  141.9183  182.1463 C   0  0  0  0  0  0  0  0  0  0  0  0
  158.1752  143.2047  182.3425 C   0  0  0  0  0  0  0  0  0  0  0  0
  158.8894  143.8845  181.3381 C   0  0  0  0  0  0  0  0  0  0  0  0
  159.1762  143.2990  180.1289 C   0  0  0  0  0  0  0  0  0  0  0  0
  160.0691  144.1798  178.8970 Cl  0  0  0  0  0  0  0  0  0  0  0  0
  158.7411  142.0126  179.9233 C   0  0  0  0  0  0  0  0  0  0  0  0
  158.0408  141.3542  180.9168 C   0  0  0  0  0  0  0  0  0  0  0  0
  154.5785  136.9134  185.9769 C   0  0  0  0  0  0  0  0  0  0  0  0
  154.6722  137.1907  187.4057 N   0  0  0  0  0  0  0  0  0  0  0  0
  155.7622  137.8387  187.8446 C   0  0  0  0  0  0  0  0  0  0  0  0
  155.8810  138.1073  189.1572 N   0  0  0  0  0  0  0  0  0  0  0  0
  154.9123  137.7262  190.0089 C   0  0  0  0  0  0  0  0  0  0  0  0
  154.7517  137.8520  191.3571 N   0  0  0  0  0  0  0  0  0  0  0  0
  153.5767  137.2800  191.6860 C   0  0  0  0  0  0  0  0  0  0  0  0
  152.9746  136.7873  190.5835 N   0  0  0  0  0  0  0  0  0  0  0  0
  151.6976  136.1180  190.6343 C   0  0  0  0  0  0  0  0  0  0  0  0
  153.7921  137.0624  189.5705 C   0  0  0  0  0  0  0  0  0  0  0  0
  153.6957  136.8000  188.2230 C   0  0  0  0  0  0  0  0  0  0  0  0
  152.6595  136.1880  187.8297 O   0  0  0  0  0  0  0  0  0  0  0  0
  6  7  1  0  0  0
  7  8  2  0  0  0
  8  1  1  0  0  0
  1  2  2  0  0  0
  2  3  1  0  0  0
  3  4  1  0  0  0
  4 16  1  0  0  0
 16 17  1  0  0  0
 17 18  1  0  0  0
 18 19  2  0  0  0
 19 20  1  0  0  0
 20 21  1  0  0  0
 21 22  2  0  0  0
 22 23  1  0  0  0
 23 24  1  0  0  0
 23 25  1  0  0  0
 25 26  1  0  0  0
 26 27  2  0  0  0
  4  5  2  0  0  0
  7  9  1  0  0  0
  9 10  2  0  0  0
 10 11  1  0  0  0
 11 12  2  0  0  0
 12 13  1  0  0  0
 12 14  1  0  0  0
 14 15  2  0  0  0
  5  1  1  0  0  0
 15  9  1  0  0  0
 26 17  1  0  0  0
 25 20  2  0  0  0
M  END
> <minimizedAffinity>
-7.40807

> <CNNscore>
0.4513860643

> <CNNaffinity>
5.8191499710

> <CNN_VS>
2.6266832352

> <CNNaffinity_variance>
0.1176169142

$$$$
[H]/C(=C(\c1c([H])c([H])c(Cl)c([H])c1[H])C([H])([H])[H])c1noc(C([H])([H])n2c([H])nc3nc([H])n(C([H])([H])[H])c3c2=O)n1


 27 30  0  0  0  0  0  0  0  0999 V2000
  155.0401  139.4979  184.0193 C   0  0  0  0  0  0  0  0  0  0  0  0
  154.0271  139.8980  184.7937 N   0  0  0  0  0  0  0  0  0  0  0  0
  153.6591  138.9057  185.5478 O   0  0  0  0  0  0  0  0  0  0  0  0
  154.4086  137.8651  185.2844 C   0  0  0  0  0  0  0  0  0  0  0  0
  155.2773  138.2185  184.3310 N   0  0  0  0  0  0  0  0  0  0  0  0
  157.6948  140.2259  184.5115 C   0  0  0  0  0  0  0  0  0  0  0  0
  157.0185  140.6535  183.2474 C   0  0  0  0  0  0  0  0  0  0  0  0
  155.7836  140.3023  183.0364 C   0  0  0  0  0  0  0  0  0  0  0  0
  157.7308  141.4687  182.2630 C   0  0  0  0  0  0  0  0  0  0  0  0
  158.0556  141.0155  181.0078 C   0  0  0  0  0  0  0  0  0  0  0  0
  158.7290  141.8461  180.0925 C   0  0  0  0  0  0  0  0  0  0  0  0
  159.0884  143.1336  180.4093 C   0  0  0  0  0  0  0  0  0  0  0  0
  159.9306  144.1414  179.2407 Cl  0  0  0  0  0  0  0  0  0  0  0  0
  158.7677  143.5959  181.6622 C   0  0  0  0  0  0  0  0  0  0  0  0
  158.1058  142.7718  182.5531 C   0  0  0  0  0  0  0  0  0  0  0  0
  154.3785  136.4989  185.8797 C   0  0  0  0  0  0  0  0  0  0  0  0
  153.8438  136.5820  187.2341 N   0  0  0  0  0  0  0  0  0  0  0  0
  152.5385  136.3228  187.4057 C   0  0  0  0  0  0  0  0  0  0  0  0
  152.0130  136.3937  188.6419 N   0  0  0  0  0  0  0  0  0  0  0  0
  152.7969  136.7209  189.6848 C   0  0  0  0  0  0  0  0  0  0  0  0
  152.5612  136.8696  191.0195 N   0  0  0  0  0  0  0  0  0  0  0  0
  153.7251  137.2109  191.6066 C   0  0  0  0  0  0  0  0  0  0  0  0
  154.7068  137.2868  190.6841 N   0  0  0  0  0  0  0  0  0  0  0  0
  156.0645  137.6332  191.0270 C   0  0  0  0  0  0  0  0  0  0  0  0
  154.1345  136.9880  189.5206 C   0  0  0  0  0  0  0  0  0  0  0  0
  154.6465  136.9087  188.2456 C   0  0  0  0  0  0  0  0  0  0  0  0
  155.8801  137.1566  188.1056 O   0  0  0  0  0  0  0  0  0  0  0  0
  6  7  1  0  0  0
  7  8  2  0  0  0
  8  1  1  0  0  0
  1  2  2  0  0  0
  2  3  1  0  0  0
  3  4  1  0  0  0
  4 16  1  0  0  0
 16 17  1  0  0  0
 17 18  1  0  0  0
 18 19  2  0  0  0
 19 20  1  0  0  0
 20 21  1  0  0  0
 21 22  2  0  0  0
 22 23  1  0  0  0
 23 24  1  0  0  0
 23 25  1  0  0  0
 25 26  1  0  0  0
 26 27  2  0  0  0
  4  5  2  0  0  0
  7  9  1  0  0  0
  9 10  2  0  0  0
 10 11  1  0  0  0
 11 12  2  0  0  0
 12 13  1  0  0  0
 12 14  1  0  0  0
 14 15  2  0  0  0
  5  1  1  0  0  0
 15  9  1  0  0  0
 26 17  1  0  0  0
 25 20  2  0  0  0
M  END
> <minimizedAffinity>
-7.12269

> <CNNscore>
0.4393368363

> <CNNaffinity>
5.7891306877

> <CNN_VS>
2.5433783531

> <CNNaffinity_variance>
0.1278904974

$$$$
[H]/C(=C(\c1c([H])c([H])c(Cl)c([H])c1[H])C([H])([H])[H])c1noc(C([H])([H])n2c([H])nc3nc([H])n(C([H])([H])[H])c3c2=O)n1


 27 30  0  0  0  0  0  0  0  0999 V2000
  154.6183  138.1437  186.6707 C   0  0  0  0  0  0  0  0  0  0  0  0
  155.8712  137.6960  186.7956 N   0  0  0  0  0  0  0  0  0  0  0  0
  156.1719  137.6393  188.0586 O   0  0  0  0  0  0  0  0  0  0  0  0
  155.1438  138.0397  188.7632 C   0  0  0  0  0  0  0  0  0  0  0  0
  154.1639  138.3587  187.9108 N   0  0  0  0  0  0  0  0  0  0  0  0
  155.6985  139.6538  184.5797 C   0  0  0  0  0  0  0  0  0  0  0  0
  154.3429  139.0365  184.4409 C   0  0  0  0  0  0  0  0  0  0  0  0
  153.8593  138.3355  185.4246 C   0  0  0  0  0  0  0  0  0  0  0  0
  153.5612  139.2278  183.2188 C   0  0  0  0  0  0  0  0  0  0  0  0
  152.7756  138.2444  182.6692 C   0  0  0  0  0  0  0  0  0  0  0  0
  152.0312  138.4850  181.4992 C   0  0  0  0  0  0  0  0  0  0  0  0
  152.0562  139.7009  180.8604 C   0  0  0  0  0  0  0  0  0  0  0  0
  151.1145  139.9644  179.3994 Cl  0  0  0  0  0  0  0  0  0  0  0  0
  152.8389  140.6909  181.4025 C   0  0  0  0  0  0  0  0  0  0  0  0
  153.5656  140.4438  182.5522 C   0  0  0  0  0  0  0  0  0  0  0  0
  154.9935  138.1551  190.2417 C   0  0  0  0  0  0  0  0  0  0  0  0
  154.6070  136.8571  190.7831 N   0  0  0  0  0  0  0  0  0  0  0  0
  155.1741  135.7650  190.2483 C   0  0  0  0  0  0  0  0  0  0  0  0
  154.8370  134.5523  190.7227 N   0  0  0  0  0  0  0  0  0  0  0  0
  153.9419  134.4491  191.7213 C   0  0  0  0  0  0  0  0  0  0  0  0
  153.4130  133.3884  192.3953 N   0  0  0  0  0  0  0  0  0  0  0  0
  152.5497  133.8720  193.3100 C   0  0  0  0  0  0  0  0  0  0  0  0
  152.5075  135.2190  193.2432 N   0  0  0  0  0  0  0  0  0  0  0  0
  151.6664  136.0097  194.1083 C   0  0  0  0  0  0  0  0  0  0  0  0
  153.3553  135.5606  192.2763 C   0  0  0  0  0  0  0  0  0  0  0  0
  153.7176  136.7889  191.7723 C   0  0  0  0  0  0  0  0  0  0  0  0
  153.1713  137.8065  192.2910 O   0  0  0  0  0  0  0  0  0  0  0  0
  6  7  1  0  0  0
  7  8  2  0  0  0
  8  1  1  0  0  0
  1  2  2  0  0  0
  2  3  1  0  0  0
  3  4  1  0  0  0
  4 16  1  0  0  0
 16 17  1  0  0  0
 17 18  1  0  0  0
 18 19  2  0  0  0
 19 20  1  0  0  0
 20 21  1  0  0  0
 21 22  2  0  0  0
 22 23  1  0  0  0
 23 24  1  0  0  0
 23 25  1  0  0  0
 25 26  1  0  0  0
 26 27  2  0  0  0
  4  5  2  0  0  0
  7  9  1  0  0  0
  9 10  2  0  0  0
 10 11  1  0  0  0
 11 12  2  0  0  0
 12 13  1  0  0  0
 12 14  1  0  0  0
 14 15  2  0  0  0
  5  1  1  0  0  0
 15  9  1  0  0  0
 26 17  1  0  0  0
 25 20  2  0  0  0
M  END
> <minimizedAffinity>
-7.15533

> <CNNscore>
0.3946103454

> <CNNaffinity>
5.3468637466

> <CNN_VS>
2.1099276543

> <CNNaffinity_variance>
0.1342561543

$$$$
[H]/C(=C(\c1c([H])c([H])c(Cl)c([H])c1[H])C([H])([H])[H])c1noc(C([H])([H])n2c([H])nc3nc([H])n(C([H])([H])[H])c3c2=O)n1


 27 30  0  0  0  0  0  0  0  0999 V2000
  153.7945  139.0373  185.0727 C   0  0  0  0  0  0  0  0  0  0  0  0
  153.4223  138.3845  183.9677 N   0  0  0  0  0  0  0  0  0  0  0  0
  153.9225  138.9922  182.9337 O   0  0  0  0  0  0  0  0  0  0  0  0
  154.6139  140.0280  183.3372 C   0  0  0  0  0  0  0  0  0  0  0  0
  154.5442  140.0706  184.6720 N   0  0  0  0  0  0  0  0  0  0  0  0
  155.7864  138.0255  186.7545 C   0  0  0  0  0  0  0  0  0  0  0  0
  154.3920  138.2094  187.2643 C   0  0  0  0  0  0  0  0  0  0  0  0
  153.4804  138.6839  186.4664 C   0  0  0  0  0  0  0  0  0  0  0  0
  154.0507  137.8486  188.6406 C   0  0  0  0  0  0  0  0  0  0  0  0
  154.7498  138.3051  189.7312 C   0  0  0  0  0  0  0  0  0  0  0  0
  154.3705  137.9395  191.0363 C   0  0  0  0  0  0  0  0  0  0  0  0
  153.2960  137.1180  191.2765 C   0  0  0  0  0  0  0  0  0  0  0  0
  152.8529  136.6808  192.9207 Cl  0  0  0  0  0  0  0  0  0  0  0  0
  152.5904  136.6564  190.1922 C   0  0  0  0  0  0  0  0  0  0  0  0
  152.9714  137.0222  188.9148 C   0  0  0  0  0  0  0  0  0  0  0  0
  155.3725  141.0323  182.5384 C   0  0  0  0  0  0  0  0  0  0  0  0
  156.7691  141.0172  182.9584 N   0  0  0  0  0  0  0  0  0  0  0  0
  157.3170  139.8294  183.2575 C   0  0  0  0  0  0  0  0  0  0  0  0
  158.6023  139.7809  183.6512 N   0  0  0  0  0  0  0  0  0  0  0  0
  159.3188  140.9158  183.7393 C   0  0  0  0  0  0  0  0  0  0  0  0
  160.6072  141.1811  184.0983 N   0  0  0  0  0  0  0  0  0  0  0  0
  160.7940  142.5123  184.0039 C   0  0  0  0  0  0  0  0  0  0  0  0
  159.6580  143.1135  183.5932 N   0  0  0  0  0  0  0  0  0  0  0  0
  159.5641  144.5404  183.4028 C   0  0  0  0  0  0  0  0  0  0  0  0
  158.7680  142.1371  183.4352 C   0  0  0  0  0  0  0  0  0  0  0  0
  157.4513  142.1586  183.0355 C   0  0  0  0  0  0  0  0  0  0  0  0
  156.9537  143.2891  182.7576 O   0  0  0  0  0  0  0  0  0  0  0  0
  6  7  1  0  0  0
  7  8  2  0  0  0
  8  1  1  0  0  0
  1  2  2  0  0  0
  2  3  1  0  0  0
  3  4  1  0  0  0
  4 16  1  0  0  0
 16 17  1  0  0  0
 17 18  1  0  0  0
 18 19  2  0  0  0
 19 20  1  0  0  0
 20 21  1  0  0  0
 21 22  2  0  0  0
 22 23  1  0  0  0
 23 24  1  0  0  0
 23 25  1  0  0  0
 25 26  1  0  0  0
 26 27  2  0  0  0
  4  5  2  0  0  0
  7  9  1  0  0  0
  9 10  2  0  0  0
 10 11  1  0  0  0
 11 12  2  0  0  0
 12 13  1  0  0  0
 12 14  1  0  0  0
 14 15  2  0  0  0
  5  1  1  0  0  0
 15  9  1  0  0  0
 26 17  1  0  0  0
 25 20  2  0  0  0
M  END
> <minimizedAffinity>
-7.95834

> <CNNscore>
0.3907359242

> <CNNaffinity>
5.9989299774

> <CNN_VS>
2.3439974785

> <CNNaffinity_variance>
0.2259451598

$$$$
[H]/C(=C(\c1c([H])c([H])c(Cl)c([H])c1[H])C([H])([H])[H])c1noc(C([H])([H])n2c([H])nc3nc([H])n(C([H])([H])[H])c3c2=O)n1


 27 30  0  0  0  0  0  0  0  0999 V2000
  154.7417  138.7639  184.6246 C   0  0  0  0  0  0  0  0  0  0  0  0
  154.4687  138.7613  185.9328 N   0  0  0  0  0  0  0  0  0  0  0  0
  153.5439  137.8786  186.1659 O   0  0  0  0  0  0  0  0  0  0  0  0
  153.2055  137.3034  185.0396 C   0  0  0  0  0  0  0  0  0  0  0  0
  153.9451  137.8453  184.0661 N   0  0  0  0  0  0  0  0  0  0  0  0
  153.9366  140.9184  183.0341 C   0  0  0  0  0  0  0  0  0  0  0  0
  155.3889  140.5890  183.1770 C   0  0  0  0  0  0  0  0  0  0  0  0
  155.7427  139.5840  183.9237 C   0  0  0  0  0  0  0  0  0  0  0  0
  156.4020  141.3782  182.4758 C   0  0  0  0  0  0  0  0  0  0  0  0
  157.4878  140.8178  181.8486 C   0  0  0  0  0  0  0  0  0  0  0  0
  158.4263  141.6216  181.1747 C   0  0  0  0  0  0  0  0  0  0  0  0
  158.3009  142.9883  181.1145 C   0  0  0  0  0  0  0  0  0  0  0  0
  159.4943  143.9604  180.2652 Cl  0  0  0  0  0  0  0  0  0  0  0  0
  157.2182  143.5581  181.7387 C   0  0  0  0  0  0  0  0  0  0  0  0
  156.3023  142.7591  182.3972 C   0  0  0  0  0  0  0  0  0  0  0  0
  152.1973  136.2355  184.7848 C   0  0  0  0  0  0  0  0  0  0  0  0
  150.8877  136.7032  185.2248 N   0  0  0  0  0  0  0  0  0  0  0  0
  150.5661  136.5311  186.5161 C   0  0  0  0  0  0  0  0  0  0  0  0
  149.3647  136.9485  186.9537 N   0  0  0  0  0  0  0  0  0  0  0  0
  148.5054  137.5301  186.0977 C   0  0  0  0  0  0  0  0  0  0  0  0
  147.2500  138.0429  186.2392 N   0  0  0  0  0  0  0  0  0  0  0  0
  146.8574  138.5058  185.0360 C   0  0  0  0  0  0  0  0  0  0  0  0
  147.8281  138.3042  184.1208 N   0  0  0  0  0  0  0  0  0  0  0  0
  147.6844  138.7018  182.7415 C   0  0  0  0  0  0  0  0  0  0  0  0
  148.8244  137.7115  184.7738 C   0  0  0  0  0  0  0  0  0  0  0  0
  150.0597  137.2752  184.3522 C   0  0  0  0  0  0  0  0  0  0  0  0
  150.3436  137.4474  183.1305 O   0  0  0  0  0  0  0  0  0  0  0  0
  6  7  1  0  0  0
  7  8  2  0  0  0
  8  1  1  0  0  0
  1  2  2  0  0  0
  2  3  1  0  0  0
  3  4  1  0  0  0
  4 16  1  0  0  0
 16 17  1  0  0  0
 17 18  1  0  0  0
 18 19  2  0  0  0
 19 20  1  0  0  0
 20 21  1  0  0  0
 21 22  2  0  0  0
 22 23  1  0  0  0
 23 24  1  0  0  0
 23 25  1  0  0  0
 25 26  1  0  0  0
 26 27  2  0  0  0
  4  5  2  0  0  0
  7  9  1  0  0  0
  9 10  2  0  0  0
 10 11  1  0  0  0
 11 12  2  0  0  0
 12 13  1  0  0  0
 12 14  1  0  0  0
 14 15  2  0  0  0
  5  1  1  0  0  0
 15  9  1  0  0  0
 26 17  1  0  0  0
 25 20  2  0  0  0
M  END
> <minimizedAffinity>
-6.67121

> <CNNscore>
0.3669480085

> <CNNaffinity>
5.7910971642

> <CNN_VS>
2.1250314713

> <CNNaffinity_variance>
0.0574852750

$$$$
[H]/C(=C(\c1c([H])c([H])c(Cl)c([H])c1[H])C([H])([H])[H])c1noc(C([H])([H])n2c([H])nc3nc([H])n(C([H])([H])[H])c3c2=O)n1


 27 30  0  0  0  0  0  0  0  0999 V2000
  153.9495  139.0420  184.2556 C   0  0  0  0  0  0  0  0  0  0  0  0
  153.7341  139.2284  185.5612 N   0  0  0  0  0  0  0  0  0  0  0  0
  152.9972  138.2554  186.0073 O   0  0  0  0  0  0  0  0  0  0  0  0
  152.7256  137.4362  185.0229 C   0  0  0  0  0  0  0  0  0  0  0  0
  153.3136  137.9134  183.9206 N   0  0  0  0  0  0  0  0  0  0  0  0
  156.6547  139.5001  184.7955 C   0  0  0  0  0  0  0  0  0  0  0  0
  156.0135  140.1104  183.5896 C   0  0  0  0  0  0  0  0  0  0  0  0
  154.7541  139.8830  183.3550 C   0  0  0  0  0  0  0  0  0  0  0  0
  156.7879  140.9649  182.6889 C   0  0  0  0  0  0  0  0  0  0  0  0
  156.5277  142.3022  182.5152 C   0  0  0  0  0  0  0  0  0  0  0  0
  157.3130  143.0835  181.6469 C   0  0  0  0  0  0  0  0  0  0  0  0
  158.3639  142.5500  180.9411 C   0  0  0  0  0  0  0  0  0  0  0  0
  159.3218  143.5564  179.8639 Cl  0  0  0  0  0  0  0  0  0  0  0  0
  158.6321  141.2133  181.1082 C   0  0  0  0  0  0  0  0  0  0  0  0
  157.8546  140.4555  181.9639 C   0  0  0  0  0  0  0  0  0  0  0  0
  151.9212  136.1813  185.0270 C   0  0  0  0  0  0  0  0  0  0  0  0
  150.5905  136.4711  185.5489 N   0  0  0  0  0  0  0  0  0  0  0  0
  149.7196  137.0815  184.7308 C   0  0  0  0  0  0  0  0  0  0  0  0
  148.4848  137.3658  185.1821 N   0  0  0  0  0  0  0  0  0  0  0  0
  148.1395  137.0368  186.4398 C   0  0  0  0  0  0  0  0  0  0  0  0
  146.9945  137.1900  187.1640 N   0  0  0  0  0  0  0  0  0  0  0  0
  147.2100  136.6694  188.3881 C   0  0  0  0  0  0  0  0  0  0  0  0
  148.4662  136.1842  188.4727 N   0  0  0  0  0  0  0  0  0  0  0  0
  148.9765  135.5654  189.6717 C   0  0  0  0  0  0  0  0  0  0  0  0
  149.0231  136.4115  187.2858 C   0  0  0  0  0  0  0  0  0  0  0  0
  150.2797  136.1324  186.7990 C   0  0  0  0  0  0  0  0  0  0  0  0
  151.0859  135.5559  187.5869 O   0  0  0  0  0  0  0  0  0  0  0  0
  6  7  1  0  0  0
  7  8  2  0  0  0
  8  1  1  0  0  0
  1  2  2  0  0  0
  2  3  1  0  0  0
  3  4  1  0  0  0
  4 16  1  0  0  0
 16 17  1  0  0  0
 17 18  1  0  0  0
 18 19  2  0  0  0
 19 20  1  0  0  0
 20 21  1  0  0  0
 21 22  2  0  0  0
 22 23  1  0  0  0
 23 24  1  0  0  0
 23 25  1  0  0  0
 25 26  1  0  0  0
 26 27  2  0  0  0
  4  5  2  0  0  0
  7  9  1  0  0  0
  9 10  2  0  0  0
 10 11  1  0  0  0
 11 12  2  0  0  0
 12 13  1  0  0  0
 12 14  1  0  0  0
 14 15  2  0  0  0
  5  1  1  0  0  0
 15  9  1  0  0  0
 26 17  1  0  0  0
 25 20  2  0  0  0
M  END
> <minimizedAffinity>
-6.65934

> <CNNscore>
0.3606217802

> <CNNaffinity>
5.4993004799

> <CNN_VS>
1.9831675291

> <CNNaffinity_variance>
0.1083829626

$$$$
[H]/C(=C(\c1c([H])c([H])c(Cl)c([H])c1[H])C([H])([H])[H])c1noc(C([H])([H])n2c([H])nc3nc([H])n(C([H])([H])[H])c3c2=O)n1


 27 30  0  0  0  0  0  0  0  0999 V2000
  155.1581  139.8523  183.9752 C   0  0  0  0  0  0  0  0  0  0  0  0
  154.1428  139.5429  183.1633 N   0  0  0  0  0  0  0  0  0  0  0  0
  153.6037  138.4330  183.5710 O   0  0  0  0  0  0  0  0  0  0  0  0
  154.2435  138.0090  184.6316 C   0  0  0  0  0  0  0  0  0  0  0  0
  155.2183  138.8850  184.8977 N   0  0  0  0  0  0  0  0  0  0  0  0
  157.7938  139.6160  183.0712 C   0  0  0  0  0  0  0  0  0  0  0  0
  157.2576  140.9485  183.4894 C   0  0  0  0  0  0  0  0  0  0  0  0
  156.0278  141.0375  183.9047 C   0  0  0  0  0  0  0  0  0  0  0  0
  158.1080  142.1384  183.4454 C   0  0  0  0  0  0  0  0  0  0  0  0
  157.8609  143.2069  182.6186 C   0  0  0  0  0  0  0  0  0  0  0  0
  158.7027  144.3349  182.6258 C   0  0  0  0  0  0  0  0  0  0  0  0
  159.7980  144.4176  183.4508 C   0  0  0  0  0  0  0  0  0  0  0  0
  160.8283  145.8420  183.4310 Cl  0  0  0  0  0  0  0  0  0  0  0  0
  160.0533  143.3540  184.2815 C   0  0  0  0  0  0  0  0  0  0  0  0
  159.2197  142.2514  184.2665 C   0  0  0  0  0  0  0  0  0  0  0  0
  154.0076  136.7914  185.4585 C   0  0  0  0  0  0  0  0  0  0  0  0
  154.2346  137.1184  186.8617 N   0  0  0  0  0  0  0  0  0  0  0  0
  153.5264  138.1290  187.3885 C   0  0  0  0  0  0  0  0  0  0  0  0
  153.7141  138.4581  188.6792 N   0  0  0  0  0  0  0  0  0  0  0  0
  154.6032  137.7747  189.4218 C   0  0  0  0  0  0  0  0  0  0  0  0
  155.0032  137.8703  190.7218 N   0  0  0  0  0  0  0  0  0  0  0  0
  155.9338  136.9195  190.9362 C   0  0  0  0  0  0  0  0  0  0  0  0
  156.1450  136.2123  189.8067 N   0  0  0  0  0  0  0  0  0  0  0  0
  157.0917  135.1258  189.7408 C   0  0  0  0  0  0  0  0  0  0  0  0
  155.3335  136.7382  188.8928 C   0  0  0  0  0  0  0  0  0  0  0  0
  155.1223  136.4224  187.5701 C   0  0  0  0  0  0  0  0  0  0  0  0
  155.8003  135.4656  187.0926 O   0  0  0  0  0  0  0  0  0  0  0  0
  6  7  1  0  0  0
  7  8  2  0  0  0
  8  1  1  0  0  0
  1  2  2  0  0  0
  2  3  1  0  0  0
  3  4  1  0  0  0
  4 16  1  0  0  0
 16 17  1  0  0  0
 17 18  1  0  0  0
 18 19  2  0  0  0
 19 20  1  0  0  0
 20 21  1  0  0  0
 21 22  2  0  0  0
 22 23  1  0  0  0
 23 24  1  0  0  0
 23 25  1  0  0  0
 25 26  1  0  0  0
 26 27  2  0  0  0
  4  5  2  0  0  0
  7  9  1  0  0  0
  9 10  2  0  0  0
 10 11  1  0  0  0
 11 12  2  0  0  0
 12 13  1  0  0  0
 12 14  1  0  0  0
 14 15  2  0  0  0
  5  1  1  0  0  0
 15  9  1  0  0  0
 26 17  1  0  0  0
 25 20  2  0  0  0
M  END
> <minimizedAffinity>
-6.57831

> <CNNscore>
0.3422130644

> <CNNaffinity>
5.9695997238

> <CNN_VS>
2.0428750515

> <CNNaffinity_variance>
0.1005123109

$$$$
[H]c1nc(-c2c([H])nc(N3C([H])([H])C4([H])C([H])([H])C4([H])C3([H])[H])nc2[H])nc(N([H])C(=O)[C@@]([H])(n2c([H])nc3c2c(=O)n(C([H])([H])C#N)c(=O)n3C([H])([H])[H])C([H])([H])[H])c1[H]


 39 44  0  0  0  0  0  0  0  0999 V2000
  156.0700  134.7175  188.8719 C   0  0  0  0  0  0  0  0  0  0  0  0
  156.4286  133.4576  188.8782 O   0  0  0  0  0  0  0  0  0  0  0  0
  155.1924  135.0758  187.8904 N   0  0  0  0  0  0  0  0  0  0  0  0
  154.9192  134.2224  187.2261 H   0  0  0  0  0  0  0  0  0  0  0  0
  154.5034  136.2508  187.5410 C   0  0  0  0  0  0  0  0  0  0  0  0
  153.3505  136.6975  188.0717 C   0  0  0  0  0  0  0  0  0  0  0  0
  152.8057  137.9128  187.6398 C   0  0  0  0  0  0  0  0  0  0  0  0
  153.4190  138.6364  186.7022 N   0  0  0  0  0  0  0  0  0  0  0  0
  154.5699  138.2086  186.1584 C   0  0  0  0  0  0  0  0  0  0  0  0
  155.0713  137.0557  186.5797 N   0  0  0  0  0  0  0  0  0  0  0  0
  155.2447  139.0138  185.1204 C   0  0  0  0  0  0  0  0  0  0  0  0
  156.5605  139.3719  185.2310 C   0  0  0  0  0  0  0  0  0  0  0  0
  157.1220  140.1051  184.2522 N   0  0  0  0  0  0  0  0  0  0  0  0
  156.4479  140.5034  183.1669 C   0  0  0  0  0  0  0  0  0  0  0  0
  155.1617  140.1431  183.0765 N   0  0  0  0  0  0  0  0  0  0  0  0
  154.5357  139.4138  184.0125 C   0  0  0  0  0  0  0  0  0  0  0  0
  157.0863  141.2834  182.1509 N   0  0  0  0  0  0  0  0  0  0  0  0
  158.2131  140.8500  181.3674 C   0  0  0  0  0  0  0  0  0  0  0  0
  158.9245  142.1129  180.9772 C   0  0  0  0  0  0  0  0  0  0  0  0
  159.1865  143.1832  181.9883 C   0  0  0  0  0  0  0  0  0  0  0  0
  157.9611  143.2249  181.1435 C   0  0  0  0  0  0  0  0  0  0  0  0
  156.7222  142.6240  181.7295 C   0  0  0  0  0  0  0  0  0  0  0  0
  157.3073  134.5154  190.9409 C   0  0  0  0  0  0  0  0  0  0  0  0
  156.6874  135.5065  189.9216 C   0  0  0  0  0  0  0  0  0  0  0  0
  155.6715  136.3017  190.6455 N   0  0  0  0  0  0  0  0  0  0  0  0
  155.6297  137.6416  190.7163 C   0  0  0  0  0  0  0  0  0  0  0  0
  154.5766  137.9968  191.4464 N   0  0  0  0  0  0  0  0  0  0  0  0
  153.9091  136.9016  191.8685 C   0  0  0  0  0  0  0  0  0  0  0  0
  152.8156  136.7190  192.6150 N   0  0  0  0  0  0  0  0  0  0  0  0
  152.0614  137.8291  193.1632 C   0  0  0  0  0  0  0  0  0  0  0  0
  152.3928  135.4633  192.8715 C   0  0  0  0  0  0  0  0  0  0  0  0
  151.3690  135.2699  193.5693 O   0  0  0  0  0  0  0  0  0  0  0  0
  153.0438  134.3929  192.3953 N   0  0  0  0  0  0  0  0  0  0  0  0
  154.1530  134.5646  191.6375 C   0  0  0  0  0  0  0  0  0  0  0  0
  154.7765  133.5608  191.1833 O   0  0  0  0  0  0  0  0  0  0  0  0
  154.6270  135.8159  191.3450 C   0  0  0  0  0  0  0  0  0  0  0  0
  152.6043  133.0581  192.6624 C   0  0  0  0  0  0  0  0  0  0  0  0
  151.5961  132.6821  191.6711 C   0  0  0  0  0  0  0  0  0  0  0  0
  150.7906  132.3755  190.9019 N   0  0  0  0  0  0  0  0  0  0  0  0
 23 24  1  0  0  0
 24  1  1  0  0  0
  1  2  2  0  0  0
  1  3  1  0  0  0
  3  5  1  0  0  0
  5  6  2  0  0  0
  6  7  1  0  0  0
  7  8  2  0  0  0
  8  9  1  0  0  0
  9 10  2  0  0  0
  9 11  1  0  0  0
 11 12  2  0  0  0
 12 13  1  0  0  0
 13 14  2  0  0  0
 14 15  1  0  0  0
 15 16  2  0  0  0
 14 17  1  0  0  0
 17 18  1  0  0  0
 18 19  1  0  0  0
 19 20  1  0  0  0
 20 21  1  0  0  0
 21 22  1  0  0  0
 24 25  1  0  0  0
 25 26  1  0  0  0
 26 27  2  0  0  0
 27 28  1  0  0  0
 28 29  1  0  0  0
 29 30  1  0  0  0
 29 31  1  0  0  0
 31 32  2  0  0  0
 31 33  1  0  0  0
 33 37  1  0  0  0
 37 38  1  0  0  0
 38 39  3  0  0  0
 33 34  1  0  0  0
 34 35  2  0  0  0
 34 36  1  0  0  0
 10  5  1  0  0  0
 16 11  1  0  0  0
 22 17  1  0  0  0
 36 25  1  0  0  0
 21 19  1  0  0  0
 36 28  2  0  0  0
  3  4  1  0  0  0
M  END
> <minimizedAffinity>
-7.16512

> <CNNscore>
0.3152015507

> <CNNaffinity>
6.4081549644

> <CNN_VS>
2.0198602676

> <CNNaffinity_variance>
0.1141775697

$$$$
[H]c1nc(-c2c([H])nc(N3C([H])([H])C4([H])C([H])([H])C4([H])C3([H])[H])nc2[H])nc(N([H])C(=O)[C@@]([H])(n2c([H])nc3c2c(=O)n(C([H])([H])C#N)c(=O)n3C([H])([H])[H])C([H])([H])[H])c1[H]


 39 44  0  0  0  0  0  0  0  0999 V2000
  151.6300  139.4939  181.0719 C   0  0  0  0  0  0  0  0  0  0  0  0
  152.3788  139.7537  180.0289 O   0  0  0  0  0  0  0  0  0  0  0  0
  150.2953  139.3608  180.8210 N   0  0  0  0  0  0  0  0  0  0  0  0
  150.0441  139.5072  179.7441 H   0  0  0  0  0  0  0  0  0  0  0  0
  149.1598  139.0305  181.5818 C   0  0  0  0  0  0  0  0  0  0  0  0
  147.8736  139.2089  181.2298 C   0  0  0  0  0  0  0  0  0  0  0  0
  146.8487  138.7915  182.0875 C   0  0  0  0  0  0  0  0  0  0  0  0
  147.1342  138.2171  183.2569 N   0  0  0  0  0  0  0  0  0  0  0  0
  148.4110  138.0305  183.6284 C   0  0  0  0  0  0  0  0  0  0  0  0
  149.3685  138.4317  182.8034 N   0  0  0  0  0  0  0  0  0  0  0  0
  148.7215  137.3939  184.9244 C   0  0  0  0  0  0  0  0  0  0  0  0
  147.8414  137.4286  185.9714 C   0  0  0  0  0  0  0  0  0  0  0  0
  148.1789  136.8291  187.1279 N   0  0  0  0  0  0  0  0  0  0  0  0
  149.3445  136.1954  187.3030 C   0  0  0  0  0  0  0  0  0  0  0  0
  150.1923  136.1720  186.2673 N   0  0  0  0  0  0  0  0  0  0  0  0
  149.9241  136.7475  185.0854 C   0  0  0  0  0  0  0  0  0  0  0  0
  149.6614  135.5724  188.5519 N   0  0  0  0  0  0  0  0  0  0  0  0
  148.7200  135.3324  189.6138 C   0  0  0  0  0  0  0  0  0  0  0  0
  149.5438  135.3202  190.8686 C   0  0  0  0  0  0  0  0  0  0  0  0
  150.5726  136.3774  191.1148 C   0  0  0  0  0  0  0  0  0  0  0  0
  150.9498  135.0920  190.4647 C   0  0  0  0  0  0  0  0  0  0  0  0
  150.9602  135.0754  188.9684 C   0  0  0  0  0  0  0  0  0  0  0  0
  153.7099  140.1584  182.1134 C   0  0  0  0  0  0  0  0  0  0  0  0
  152.3715  139.4012  182.3156 C   0  0  0  0  0  0  0  0  0  0  0  0
  152.7064  137.9932  182.6222 N   0  0  0  0  0  0  0  0  0  0  0  0
  152.4370  136.9356  181.8405 C   0  0  0  0  0  0  0  0  0  0  0  0
  152.8887  135.8375  182.4393 N   0  0  0  0  0  0  0  0  0  0  0  0
  153.4607  136.1509  183.6215 C   0  0  0  0  0  0  0  0  0  0  0  0
  154.0464  135.4297  184.5824 N   0  0  0  0  0  0  0  0  0  0  0  0
  154.1853  133.9896  184.4901 C   0  0  0  0  0  0  0  0  0  0  0  0
  154.5271  136.0548  185.6776 C   0  0  0  0  0  0  0  0  0  0  0  0
  155.0805  135.3970  186.5905 O   0  0  0  0  0  0  0  0  0  0  0  0
  154.4314  137.3834  185.8258 N   0  0  0  0  0  0  0  0  0  0  0  0
  153.8403  138.1254  184.8592 C   0  0  0  0  0  0  0  0  0  0  0  0
  153.7433  139.3809  184.9890 O   0  0  0  0  0  0  0  0  0  0  0  0
  153.3353  137.5443  183.7264 C   0  0  0  0  0  0  0  0  0  0  0  0
  154.9367  138.0551  186.9832 C   0  0  0  0  0  0  0  0  0  0  0  0
  153.9514  137.9538  188.0599 C   0  0  0  0  0  0  0  0  0  0  0  0
  153.1866  137.8660  188.9213 N   0  0  0  0  0  0  0  0  0  0  0  0
 23 24  1  0  0  0
 24  1  1  0  0  0
  1  2  2  0  0  0
  1  3  1  0  0  0
  3  5  1  0  0  0
  5  6  2  0  0  0
  6  7  1  0  0  0
  7  8  2  0  0  0
  8  9  1  0  0  0
  9 10  2  0  0  0
  9 11  1  0  0  0
 11 12  2  0  0  0
 12 13  1  0  0  0
 13 14  2  0  0  0
 14 15  1  0  0  0
 15 16  2  0  0  0
 14 17  1  0  0  0
 17 18  1  0  0  0
 18 19  1  0  0  0
 19 20  1  0  0  0
 20 21  1  0  0  0
 21 22  1  0  0  0
 24 25  1  0  0  0
 25 26  1  0  0  0
 26 27  2  0  0  0
 27 28  1  0  0  0
 28 29  1  0  0  0
 29 30  1  0  0  0
 29 31  1  0  0  0
 31 32  2  0  0  0
 31 33  1  0  0  0
 33 37  1  0  0  0
 37 38  1  0  0  0
 38 39  3  0  0  0
 33 34  1  0  0  0
 34 35  2  0  0  0
 34 36  1  0  0  0
 10  5  1  0  0  0
 16 11  1  0  0  0
 22 17  1  0  0  0
 36 25  1  0  0  0
 21 19  1  0  0  0
 36 28  2  0  0  0
  3  4  1  0  0  0
M  END
> <minimizedAffinity>
-5.80967

> <CNNscore>
0.3010490835

> <CNNaffinity>
5.8711500168

> <CNN_VS>
1.7675043344

> <CNNaffinity_variance>
0.7903814912

$$$$
[H]c1nc(-c2c([H])nc(N3C([H])([H])C4([H])C([H])([H])C4([H])C3([H])[H])nc2[H])nc(N([H])C(=O)[C@@]([H])(n2c([H])nc3c2c(=O)n(C([H])([H])C#N)c(=O)n3C([H])([H])[H])C([H])([H])[H])c1[H]


 39 44  0  0  0  0  0  0  0  0999 V2000
  156.8884  134.2095  190.7631 C   0  0  0  0  0  0  0  0  0  0  0  0
  157.9773  133.4814  190.7816 O   0  0  0  0  0  0  0  0  0  0  0  0
  157.0611  135.5201  190.4249 N   0  0  0  0  0  0  0  0  0  0  0  0
  158.1282  135.7742  190.2220 H   0  0  0  0  0  0  0  0  0  0  0  0
  156.2132  136.6223  190.2166 C   0  0  0  0  0  0  0  0  0  0  0  0
  155.8415  137.5376  191.1300 C   0  0  0  0  0  0  0  0  0  0  0  0
  155.0156  138.6045  190.7560 C   0  0  0  0  0  0  0  0  0  0  0  0
  154.5896  138.7242  189.4978 N   0  0  0  0  0  0  0  0  0  0  0  0
  154.9476  137.8214  188.5704 C   0  0  0  0  0  0  0  0  0  0  0  0
  155.7303  136.8178  188.9426 N   0  0  0  0  0  0  0  0  0  0  0  0
  154.4729  137.9587  187.1787 C   0  0  0  0  0  0  0  0  0  0  0  0
  153.1662  137.7363  186.8397 C   0  0  0  0  0  0  0  0  0  0  0  0
  152.7918  137.8787  185.5550 N   0  0  0  0  0  0  0  0  0  0  0  0
  153.6449  138.2305  184.5858 C   0  0  0  0  0  0  0  0  0  0  0  0
  154.9190  138.4439  184.9369 N   0  0  0  0  0  0  0  0  0  0  0  0
  155.3642  138.3209  186.1966 C   0  0  0  0  0  0  0  0  0  0  0  0
  153.2019  138.3689  183.2320 N   0  0  0  0  0  0  0  0  0  0  0  0
  153.2622  139.5867  182.4672 C   0  0  0  0  0  0  0  0  0  0  0  0
  152.1532  139.4702  181.4622 C   0  0  0  0  0  0  0  0  0  0  0  0
  150.7926  139.0103  181.8790 C   0  0  0  0  0  0  0  0  0  0  0  0
  151.7972  138.0359  181.3704 C   0  0  0  0  0  0  0  0  0  0  0  0
  152.6260  137.3303  182.3972 C   0  0  0  0  0  0  0  0  0  0  0  0
  156.0875  131.9849  191.2757 C   0  0  0  0  0  0  0  0  0  0  0  0
  155.6879  133.4751  191.1167 C   0  0  0  0  0  0  0  0  0  0  0  0
  154.6896  133.5475  190.0273 N   0  0  0  0  0  0  0  0  0  0  0  0
  154.7893  132.9451  188.8318 C   0  0  0  0  0  0  0  0  0  0  0  0
  153.7045  133.2325  188.1184 N   0  0  0  0  0  0  0  0  0  0  0  0
  152.8747  134.0267  188.8281 C   0  0  0  0  0  0  0  0  0  0  0  0
  151.6882  134.5853  188.5700 N   0  0  0  0  0  0  0  0  0  0  0  0
  151.0036  134.3935  187.3065 C   0  0  0  0  0  0  0  0  0  0  0  0
  151.1012  135.3544  189.5108 C   0  0  0  0  0  0  0  0  0  0  0  0
  149.9881  135.8875  189.2891 O   0  0  0  0  0  0  0  0  0  0  0  0
  151.6800  135.5724  190.6999 N   0  0  0  0  0  0  0  0  0  0  0  0
  152.8820  135.0118  190.9738 C   0  0  0  0  0  0  0  0  0  0  0  0
  153.4384  135.2117  192.0931 O   0  0  0  0  0  0  0  0  0  0  0  0
  153.5232  134.2219  190.0567 C   0  0  0  0  0  0  0  0  0  0  0  0
  151.0666  136.3867  191.7033 C   0  0  0  0  0  0  0  0  0  0  0  0
  150.1322  135.5671  192.4752 C   0  0  0  0  0  0  0  0  0  0  0  0
  149.4088  134.9145  193.0959 N   0  0  0  0  0  0  0  0  0  0  0  0
 23 24  1  0  0  0
 24  1  1  0  0  0
  1  2  2  0  0  0
  1  3  1  0  0  0
  3  5  1  0  0  0
  5  6  2  0  0  0
  6  7  1  0  0  0
  7  8  2  0  0  0
  8  9  1  0  0  0
  9 10  2  0  0  0
  9 11  1  0  0  0
 11 12  2  0  0  0
 12 13  1  0  0  0
 13 14  2  0  0  0
 14 15  1  0  0  0
 15 16  2  0  0  0
 14 17  1  0  0  0
 17 18  1  0  0  0
 18 19  1  0  0  0
 19 20  1  0  0  0
 20 21  1  0  0  0
 21 22  1  0  0  0
 24 25  1  0  0  0
 25 26  1  0  0  0
 26 27  2  0  0  0
 27 28  1  0  0  0
 28 29  1  0  0  0
 29 30  1  0  0  0
 29 31  1  0  0  0
 31 32  2  0  0  0
 31 33  1  0  0  0
 33 37  1  0  0  0
 37 38  1  0  0  0
 38 39  3  0  0  0
 33 34  1  0  0  0
 34 35  2  0  0  0
 34 36  1  0  0  0
 10  5  1  0  0  0
 16 11  1  0  0  0
 22 17  1  0  0  0
 36 25  1  0  0  0
 21 19  1  0  0  0
 36 28  2  0  0  0
  3  4  1  0  0  0
M  END
> <minimizedAffinity>
-6.13216

> <CNNscore>
0.2727586925

> <CNNaffinity>
5.8635497093

> <CNN_VS>
1.5993341208

> <CNNaffinity_variance>
0.5493563414

$$$$
[H]c1nc(-c2c([H])nc(N3C([H])([H])C4([H])C([H])([H])C4([H])C3([H])[H])nc2[H])nc(N([H])C(=O)[C@@]([H])(n2c([H])nc3c2c(=O)n(C([H])([H])C#N)c(=O)n3C([H])([H])[H])C([H])([H])[H])c1[H]


 39 44  0  0  0  0  0  0  0  0999 V2000
  151.6266  133.9629  181.3341 C   0  0  0  0  0  0  0  0  0  0  0  0
  151.9218  132.9012  180.6259 O   0  0  0  0  0  0  0  0  0  0  0  0
  152.5872  134.9312  181.3734 N   0  0  0  0  0  0  0  0  0  0  0  0
  153.4980  134.6564  180.7909 H   0  0  0  0  0  0  0  0  0  0  0  0
  152.6905  136.2196  181.9270 C   0  0  0  0  0  0  0  0  0  0  0  0
  152.3000  137.3751  181.3589 C   0  0  0  0  0  0  0  0  0  0  0  0
  152.4373  138.5803  182.0579 C   0  0  0  0  0  0  0  0  0  0  0  0
  152.9549  138.5968  183.2871 N   0  0  0  0  0  0  0  0  0  0  0  0
  153.3521  137.4554  183.8724 C   0  0  0  0  0  0  0  0  0  0  0  0
  153.2143  136.3235  183.1956 N   0  0  0  0  0  0  0  0  0  0  0  0
  153.9247  137.4794  185.2336 C   0  0  0  0  0  0  0  0  0  0  0  0
  153.4102  136.7129  186.2433 C   0  0  0  0  0  0  0  0  0  0  0  0
  153.9752  136.7754  187.4631 N   0  0  0  0  0  0  0  0  0  0  0  0
  155.0253  137.5586  187.7365 C   0  0  0  0  0  0  0  0  0  0  0  0
  155.5147  138.3010  186.7357 N   0  0  0  0  0  0  0  0  0  0  0  0
  155.0034  138.2905  185.4954 C   0  0  0  0  0  0  0  0  0  0  0  0
  155.5932  137.5936  189.0497 N   0  0  0  0  0  0  0  0  0  0  0  0
  156.6449  136.7280  189.5145 C   0  0  0  0  0  0  0  0  0  0  0  0
  156.4479  136.6394  191.0000 C   0  0  0  0  0  0  0  0  0  0  0  0
  155.0874  136.4055  191.5754 C   0  0  0  0  0  0  0  0  0  0  0  0
  155.6052  137.7902  191.3972 C   0  0  0  0  0  0  0  0  0  0  0  0
  155.2249  138.4901  190.1305 C   0  0  0  0  0  0  0  0  0  0  0  0
  149.6127  132.6261  181.4337 C   0  0  0  0  0  0  0  0  0  0  0  0
  150.3173  133.9050  181.9568 C   0  0  0  0  0  0  0  0  0  0  0  0
  149.4901  135.0605  181.5457 N   0  0  0  0  0  0  0  0  0  0  0  0
  149.0052  135.2781  180.3129 C   0  0  0  0  0  0  0  0  0  0  0  0
  148.3072  136.4098  180.3235 N   0  0  0  0  0  0  0  0  0  0  0  0
  148.3203  136.9560  181.5582 C   0  0  0  0  0  0  0  0  0  0  0  0
  147.7879  138.0646  182.0818 N   0  0  0  0  0  0  0  0  0  0  0  0
  146.9921  138.9850  181.2935 C   0  0  0  0  0  0  0  0  0  0  0  0
  147.9928  138.3436  183.3862 C   0  0  0  0  0  0  0  0  0  0  0  0
  147.5020  139.3782  183.8972 O   0  0  0  0  0  0  0  0  0  0  0  0
  148.7185  137.5351  184.1709 N   0  0  0  0  0  0  0  0  0  0  0  0
  149.2631  136.4086  183.6525 C   0  0  0  0  0  0  0  0  0  0  0  0
  149.9513  135.6381  184.3840 O   0  0  0  0  0  0  0  0  0  0  0  0
  149.0873  136.0754  182.3356 C   0  0  0  0  0  0  0  0  0  0  0  0
  148.9424  137.8225  185.5542 C   0  0  0  0  0  0  0  0  0  0  0  0
  147.7478  137.4563  186.3154 C   0  0  0  0  0  0  0  0  0  0  0  0
  146.8156  137.1614  186.9307 N   0  0  0  0  0  0  0  0  0  0  0  0
 23 24  1  0  0  0
 24  1  1  0  0  0
  1  2  2  0  0  0
  1  3  1  0  0  0
  3  5  1  0  0  0
  5  6  2  0  0  0
  6  7  1  0  0  0
  7  8  2  0  0  0
  8  9  1  0  0  0
  9 10  2  0  0  0
  9 11  1  0  0  0
 11 12  2  0  0  0
 12 13  1  0  0  0
 13 14  2  0  0  0
 14 15  1  0  0  0
 15 16  2  0  0  0
 14 17  1  0  0  0
 17 18  1  0  0  0
 18 19  1  0  0  0
 19 20  1  0  0  0
 20 21  1  0  0  0
 21 22  1  0  0  0
 24 25  1  0  0  0
 25 26  1  0  0  0
 26 27  2  0  0  0
 27 28  1  0  0  0
 28 29  1  0  0  0
 29 30  1  0  0  0
 29 31  1  0  0  0
 31 32  2  0  0  0
 31 33  1  0  0  0
 33 37  1  0  0  0
 37 38  1  0  0  0
 38 39  3  0  0  0
 33 34  1  0  0  0
 34 35  2  0  0  0
 34 36  1  0  0  0
 10  5  1  0  0  0
 16 11  1  0  0  0
 22 17  1  0  0  0
 36 25  1  0  0  0
 21 19  1  0  0  0
 36 28  2  0  0  0
  3  4  1  0  0  0
M  END
> <minimizedAffinity>
-5.35141

> <CNNscore>
0.2200844586

> <CNNaffinity>
5.8521490097

> <CNN_VS>
1.2879670858

> <CNNaffinity_variance>
0.1952662170

$$$$
[H]c1nc(-c2c([H])nc(N3C([H])([H])C4([H])C([H])([H])C4([H])C3([H])[H])nc2[H])nc(N([H])C(=O)[C@@]([H])(n2c([H])nc3c2c(=O)n(C([H])([H])C#N)c(=O)n3C([H])([H])[H])C([H])([H])[H])c1[H]


 39 44  0  0  0  0  0  0  0  0999 V2000
  152.5006  138.1506  183.0039 C   0  0  0  0  0  0  0  0  0  0  0  0
  151.6106  138.7416  182.2458 O   0  0  0  0  0  0  0  0  0  0  0  0
  153.2858  138.9815  183.7487 N   0  0  0  0  0  0  0  0  0  0  0  0
  153.0480  140.0589  183.5842 H   0  0  0  0  0  0  0  0  0  0  0  0
  154.2907  138.8107  184.7174 C   0  0  0  0  0  0  0  0  0  0  0  0
  155.6109  139.0122  184.5539 C   0  0  0  0  0  0  0  0  0  0  0  0
  156.4852  138.8331  185.6327 C   0  0  0  0  0  0  0  0  0  0  0  0
  156.0222  138.4617  186.8271 N   0  0  0  0  0  0  0  0  0  0  0  0
  154.7085  138.2541  187.0119 C   0  0  0  0  0  0  0  0  0  0  0  0
  153.8953  138.4287  185.9792 N   0  0  0  0  0  0  0  0  0  0  0  0
  154.2012  137.8428  188.3366 C   0  0  0  0  0  0  0  0  0  0  0  0
  154.8738  138.1445  189.4892 C   0  0  0  0  0  0  0  0  0  0  0  0
  154.3616  137.7447  190.6676 N   0  0  0  0  0  0  0  0  0  0  0  0
  153.2158  137.0602  190.7654 C   0  0  0  0  0  0  0  0  0  0  0  0
  152.5721  136.7745  189.6268 N   0  0  0  0  0  0  0  0  0  0  0  0
  153.0223  137.1401  188.4170 C   0  0  0  0  0  0  0  0  0  0  0  0
  152.7092  136.6544  192.0409 N   0  0  0  0  0  0  0  0  0  0  0  0
  153.3380  135.6930  192.9078 C   0  0  0  0  0  0  0  0  0  0  0  0
  152.2171  135.1050  193.7148 C   0  0  0  0  0  0  0  0  0  0  0  0
  150.9457  134.6768  193.0538 C   0  0  0  0  0  0  0  0  0  0  0  0
  151.0767  136.0451  193.6262 C   0  0  0  0  0  0  0  0  0  0  0  0
  151.4969  137.1286  192.6835 C   0  0  0  0  0  0  0  0  0  0  0  0
  151.6567  136.3360  181.6445 C   0  0  0  0  0  0  0  0  0  0  0  0
  152.4866  136.7032  182.9023 C   0  0  0  0  0  0  0  0  0  0  0  0
  151.8035  136.1027  184.0690 N   0  0  0  0  0  0  0  0  0  0  0  0
  150.5055  136.2498  184.3783 C   0  0  0  0  0  0  0  0  0  0  0  0
  150.2519  135.5636  185.4887 N   0  0  0  0  0  0  0  0  0  0  0  0
  151.3739  134.9553  185.9292 C   0  0  0  0  0  0  0  0  0  0  0  0
  151.6475  134.1722  186.9773 N   0  0  0  0  0  0  0  0  0  0  0  0
  150.6342  133.7927  187.9422 C   0  0  0  0  0  0  0  0  0  0  0  0
  152.9055  133.7153  187.1502 C   0  0  0  0  0  0  0  0  0  0  0  0
  153.1833  132.9791  188.1265 O   0  0  0  0  0  0  0  0  0  0  0  0
  153.8892  134.0283  186.2954 N   0  0  0  0  0  0  0  0  0  0  0  0
  153.6248  134.8208  185.2294 C   0  0  0  0  0  0  0  0  0  0  0  0
  154.5464  135.1237  184.4162 O   0  0  0  0  0  0  0  0  0  0  0  0
  152.3664  135.3123  185.0043 C   0  0  0  0  0  0  0  0  0  0  0  0
  155.2259  133.5500  186.4705 C   0  0  0  0  0  0  0  0  0  0  0  0
  155.9588  134.4878  187.3213 C   0  0  0  0  0  0  0  0  0  0  0  0
  156.5523  135.2162  187.9934 N   0  0  0  0  0  0  0  0  0  0  0  0
 23 24  1  0  0  0
 24  1  1  0  0  0
  1  2  2  0  0  0
  1  3  1  0  0  0
  3  5  1  0  0  0
  5  6  2  0  0  0
  6  7  1  0  0  0
  7  8  2  0  0  0
  8  9  1  0  0  0
  9 10  2  0  0  0
  9 11  1  0  0  0
 11 12  2  0  0  0
 12 13  1  0  0  0
 13 14  2  0  0  0
 14 15  1  0  0  0
 15 16  2  0  0  0
 14 17  1  0  0  0
 17 18  1  0  0  0
 18 19  1  0  0  0
 19 20  1  0  0  0
 20 21  1  0  0  0
 21 22  1  0  0  0
 24 25  1  0  0  0
 25 26  1  0  0  0
 26 27  2  0  0  0
 27 28  1  0  0  0
 28 29  1  0  0  0
 29 30  1  0  0  0
 29 31  1  0  0  0
 31 32  2  0  0  0
 31 33  1  0  0  0
 33 37  1  0  0  0
 37 38  1  0  0  0
 38 39  3  0  0  0
 33 34  1  0  0  0
 34 35  2  0  0  0
 34 36  1  0  0  0
 10  5  1  0  0  0
 16 11  1  0  0  0
 22 17  1  0  0  0
 36 25  1  0  0  0
 21 19  1  0  0  0
 36 28  2  0  0  0
  3  4  1  0  0  0
M  END
> <minimizedAffinity>
-5.22138

> <CNNscore>
0.2035146505

> <CNNaffinity>
5.6903328896

> <CNN_VS>
1.1580661535

> <CNNaffinity_variance>
0.7174481750

$$$$
[H]c1nc(-c2c([H])nc(N3C([H])([H])C4([H])C([H])([H])C4([H])C3([H])[H])nc2[H])nc(N([H])C(=O)[C@@]([H])(n2c([H])nc3c2c(=O)n(C([H])([H])C#N)c(=O)n3C([H])([H])[H])C([H])([H])[H])c1[H]


 39 44  0  0  0  0  0  0  0  0999 V2000
  151.0417  134.8651  183.9710 C   0  0  0  0  0  0  0  0  0  0  0  0
  151.1172  133.7153  183.3479 O   0  0  0  0  0  0  0  0  0  0  0  0
  152.2258  135.3676  184.4266 N   0  0  0  0  0  0  0  0  0  0  0  0
  153.0908  134.7006  184.2004 H   0  0  0  0  0  0  0  0  0  0  0  0
  152.6327  136.5510  185.0679 C   0  0  0  0  0  0  0  0  0  0  0  0
  152.3794  136.9065  186.3406 C   0  0  0  0  0  0  0  0  0  0  0  0
  152.8884  138.1089  186.8460 C   0  0  0  0  0  0  0  0  0  0  0  0
  153.6245  138.9113  186.0759 N   0  0  0  0  0  0  0  0  0  0  0  0
  153.8884  138.5764  184.8026 C   0  0  0  0  0  0  0  0  0  0  0  0
  153.3985  137.4339  184.3409 N   0  0  0  0  0  0  0  0  0  0  0  0
  154.7040  139.4686  183.9541 C   0  0  0  0  0  0  0  0  0  0  0  0
  156.0175  139.7266  184.2370 C   0  0  0  0  0  0  0  0  0  0  0  0
  156.7109  140.5468  183.4262 N   0  0  0  0  0  0  0  0  0  0  0  0
  156.1712  141.1265  182.3475 C   0  0  0  0  0  0  0  0  0  0  0  0
  154.8850  140.8619  182.0871 N   0  0  0  0  0  0  0  0  0  0  0  0
  154.1320  140.0552  182.8501 C   0  0  0  0  0  0  0  0  0  0  0  0
  156.9471  141.9932  181.5139 N   0  0  0  0  0  0  0  0  0  0  0  0
  157.6226  141.5882  180.3092 C   0  0  0  0  0  0  0  0  0  0  0  0
  158.7740  142.5412  180.1696 C   0  0  0  0  0  0  0  0  0  0  0  0
  159.6410  142.8657  181.3442 C   0  0  0  0  0  0  0  0  0  0  0  0
  158.4682  143.7205  181.0110 C   0  0  0  0  0  0  0  0  0  0  0  0
  157.1887  143.4095  181.7219 C   0  0  0  0  0  0  0  0  0  0  0  0
  148.8944  134.4515  185.0056 C   0  0  0  0  0  0  0  0  0  0  0  0
  149.6930  135.3917  184.0655 C   0  0  0  0  0  0  0  0  0  0  0  0
  149.0254  135.3621  182.7456 N   0  0  0  0  0  0  0  0  0  0  0  0
  148.2731  134.3570  182.2704 C   0  0  0  0  0  0  0  0  0  0  0  0
  147.8381  134.6872  181.0579 N   0  0  0  0  0  0  0  0  0  0  0  0
  148.2949  135.9104  180.7141 C   0  0  0  0  0  0  0  0  0  0  0  0
  148.1520  136.6763  179.6280 N   0  0  0  0  0  0  0  0  0  0  0  0
  147.3650  136.2556  178.4854 C   0  0  0  0  0  0  0  0  0  0  0  0
  148.7567  137.8820  179.5856 C   0  0  0  0  0  0  0  0  0  0  0  0
  148.6352  138.6163  178.5764 O   0  0  0  0  0  0  0  0  0  0  0  0
  149.4984  138.3312  180.6075 N   0  0  0  0  0  0  0  0  0  0  0  0
  149.6506  137.5648  181.7137 C   0  0  0  0  0  0  0  0  0  0  0  0
  150.3498  137.9784  182.6846 O   0  0  0  0  0  0  0  0  0  0  0  0
  149.0594  136.3331  181.8117 C   0  0  0  0  0  0  0  0  0  0  0  0
  150.1441  139.6071  180.5719 C   0  0  0  0  0  0  0  0  0  0  0  0
  151.4912  139.4431  180.0251 C   0  0  0  0  0  0  0  0  0  0  0  0
  152.5620  139.3228  179.6085 N   0  0  0  0  0  0  0  0  0  0  0  0
 23 24  1  0  0  0
 24  1  1  0  0  0
  1  2  2  0  0  0
  1  3  1  0  0  0
  3  5  1  0  0  0
  5  6  2  0  0  0
  6  7  1  0  0  0
  7  8  2  0  0  0
  8  9  1  0  0  0
  9 10  2  0  0  0
  9 11  1  0  0  0
 11 12  2  0  0  0
 12 13  1  0  0  0
 13 14  2  0  0  0
 14 15  1  0  0  0
 15 16  2  0  0  0
 14 17  1  0  0  0
 17 18  1  0  0  0
 18 19  1  0  0  0
 19 20  1  0  0  0
 20 21  1  0  0  0
 21 22  1  0  0  0
 24 25  1  0  0  0
 25 26  1  0  0  0
 26 27  2  0  0  0
 27 28  1  0  0  0
 28 29  1  0  0  0
 29 30  1  0  0  0
 29 31  1  0  0  0
 31 32  2  0  0  0
 31 33  1  0  0  0
 33 37  1  0  0  0
 37 38  1  0  0  0
 38 39  3  0  0  0
 33 34  1  0  0  0
 34 35  2  0  0  0
 34 36  1  0  0  0
 10  5  1  0  0  0
 16 11  1  0  0  0
 22 17  1  0  0  0
 36 25  1  0  0  0
 21 19  1  0  0  0
 36 28  2  0  0  0
  3  4  1  0  0  0
M  END
> <minimizedAffinity>
-6.80178

> <CNNscore>
0.1741632968

> <CNNaffinity>
6.3081145287

> <CNN_VS>
1.0986419916

> <CNNaffinity_variance>
0.2577193677

$$$$
[H]c1nc(-c2c([H])nc(N3C([H])([H])C4([H])C([H])([H])C4([H])C3([H])[H])nc2[H])nc(N([H])C(=O)[C@@]([H])(n2c([H])nc3c2c(=O)n(C([H])([H])C#N)c(=O)n3C([H])([H])[H])C([H])([H])[H])c1[H]


 39 44  0  0  0  0  0  0  0  0999 V2000
  157.4536  134.6997  188.7946 C   0  0  0  0  0  0  0  0  0  0  0  0
  158.7010  134.2999  188.7949 O   0  0  0  0  0  0  0  0  0  0  0  0
  157.2677  136.0515  188.8057 N   0  0  0  0  0  0  0  0  0  0  0  0
  158.2290  136.6170  188.8235 H   0  0  0  0  0  0  0  0  0  0  0  0
  156.1569  136.9117  188.7465 C   0  0  0  0  0  0  0  0  0  0  0  0
  155.5568  137.5262  189.7821 C   0  0  0  0  0  0  0  0  0  0  0  0
  154.4764  138.3871  189.5546 C   0  0  0  0  0  0  0  0  0  0  0  0
  154.0316  138.6055  188.3163 N   0  0  0  0  0  0  0  0  0  0  0  0
  154.6151  138.0016  187.2685 C   0  0  0  0  0  0  0  0  0  0  0  0
  155.6372  137.1898  187.5027 N   0  0  0  0  0  0  0  0  0  0  0  0
  154.1185  138.2468  185.8994 C   0  0  0  0  0  0  0  0  0  0  0  0
  153.0978  137.5108  185.3624 C   0  0  0  0  0  0  0  0  0  0  0  0
  152.6866  137.7814  184.1100 N   0  0  0  0  0  0  0  0  0  0  0  0
  153.2340  138.7445  183.3592 C   0  0  0  0  0  0  0  0  0  0  0  0
  154.2312  139.4539  183.9019 N   0  0  0  0  0  0  0  0  0  0  0  0
  154.6935  139.2406  185.1432 C   0  0  0  0  0  0  0  0  0  0  0  0
  152.7647  138.9964  182.0309 N   0  0  0  0  0  0  0  0  0  0  0  0
  152.6958  140.2955  181.4152 C   0  0  0  0  0  0  0  0  0  0  0  0
  151.5929  140.1881  180.4025 C   0  0  0  0  0  0  0  0  0  0  0  0
  150.2890  139.5494  180.7611 C   0  0  0  0  0  0  0  0  0  0  0  0
  151.3794  138.7463  180.1419 C   0  0  0  0  0  0  0  0  0  0  0  0
  152.2851  138.0109  181.0789 C   0  0  0  0  0  0  0  0  0  0  0  0
  157.2818  132.2947  188.9919 C   0  0  0  0  0  0  0  0  0  0  0  0
  156.4914  133.6136  188.7885 C   0  0  0  0  0  0  0  0  0  0  0  0
  155.8143  133.5210  187.4765 N   0  0  0  0  0  0  0  0  0  0  0  0
  156.3799  133.1116  186.3299 C   0  0  0  0  0  0  0  0  0  0  0  0
  155.4663  133.1564  185.3647 N   0  0  0  0  0  0  0  0  0  0  0  0
  154.2876  133.5949  185.8562 C   0  0  0  0  0  0  0  0  0  0  0  0
  153.0871  133.8172  185.3121 N   0  0  0  0  0  0  0  0  0  0  0  0
  152.8218  133.5824  183.9063 C   0  0  0  0  0  0  0  0  0  0  0  0
  152.0837  134.2750  186.0898 C   0  0  0  0  0  0  0  0  0  0  0  0
  150.9498  134.4897  185.5995 O   0  0  0  0  0  0  0  0  0  0  0  0
  152.2617  134.5128  187.3968 N   0  0  0  0  0  0  0  0  0  0  0  0
  153.4733  134.2913  187.9601 C   0  0  0  0  0  0  0  0  0  0  0  0
  153.6532  134.5135  189.1933 O   0  0  0  0  0  0  0  0  0  0  0  0
  154.5272  133.8266  187.2189 C   0  0  0  0  0  0  0  0  0  0  0  0
  151.2050  134.9990  188.2293 C   0  0  0  0  0  0  0  0  0  0  0  0
  150.5186  133.8604  188.8400 C   0  0  0  0  0  0  0  0  0  0  0  0
  149.9932  132.9554  189.3293 N   0  0  0  0  0  0  0  0  0  0  0  0
 23 24  1  0  0  0
 24  1  1  0  0  0
  1  2  2  0  0  0
  1  3  1  0  0  0
  3  5  1  0  0  0
  5  6  2  0  0  0
  6  7  1  0  0  0
  7  8  2  0  0  0
  8  9  1  0  0  0
  9 10  2  0  0  0
  9 11  1  0  0  0
 11 12  2  0  0  0
 12 13  1  0  0  0
 13 14  2  0  0  0
 14 15  1  0  0  0
 15 16  2  0  0  0
 14 17  1  0  0  0
 17 18  1  0  0  0
 18 19  1  0  0  0
 19 20  1  0  0  0
 20 21  1  0  0  0
 21 22  1  0  0  0
 24 25  1  0  0  0
 25 26  1  0  0  0
 26 27  2  0  0  0
 27 28  1  0  0  0
 28 29  1  0  0  0
 29 30  1  0  0  0
 29 31  1  0  0  0
 31 32  2  0  0  0
 31 33  1  0  0  0
 33 37  1  0  0  0
 37 38  1  0  0  0
 38 39  3  0  0  0
 33 34  1  0  0  0
 34 35  2  0  0  0
 34 36  1  0  0  0
 10  5  1  0  0  0
 16 11  1  0  0  0
 22 17  1  0  0  0
 36 25  1  0  0  0
 21 19  1  0  0  0
 36 28  2  0  0  0
  3  4  1  0  0  0
M  END
> <minimizedAffinity>
-5.27308

> <CNNscore>
0.1738449037

> <CNNaffinity>
5.7847566605

> <CNN_VS>
1.0056505203

> <CNNaffinity_variance>
0.3715176880

$$$$
[H]c1nc(-c2c([H])nc(N3C([H])([H])C4([H])C([H])([H])C4([H])C3([H])[H])nc2[H])nc(N([H])C(=O)[C@@]([H])(n2c([H])nc3c2c(=O)n(C([H])([H])C#N)c(=O)n3C([H])([H])[H])C([H])([H])[H])c1[H]


 39 44  0  0  0  0  0  0  0  0999 V2000
  154.9955  137.3072  190.7031 C   0  0  0  0  0  0  0  0  0  0  0  0
  155.6431  138.3589  191.1396 O   0  0  0  0  0  0  0  0  0  0  0  0
  153.8956  137.5674  189.9386 N   0  0  0  0  0  0  0  0  0  0  0  0
  153.7105  138.6599  189.8104 H   0  0  0  0  0  0  0  0  0  0  0  0
  152.9639  136.7927  189.2252 C   0  0  0  0  0  0  0  0  0  0  0  0
  152.2188  135.7813  189.7072 C   0  0  0  0  0  0  0  0  0  0  0  0
  151.3033  135.1274  188.8739 C   0  0  0  0  0  0  0  0  0  0  0  0
  151.1610  135.4966  187.6002 N   0  0  0  0  0  0  0  0  0  0  0  0
  151.8953  136.5027  187.0984 C   0  0  0  0  0  0  0  0  0  0  0  0
  152.7571  137.1107  187.9021 N   0  0  0  0  0  0  0  0  0  0  0  0
  151.7338  136.9074  185.6872 C   0  0  0  0  0  0  0  0  0  0  0  0
  150.5580  136.7155  185.0145 C   0  0  0  0  0  0  0  0  0  0  0  0
  150.4696  137.1065  183.7299 N   0  0  0  0  0  0  0  0  0  0  0  0
  151.4863  137.6788  183.0745 C   0  0  0  0  0  0  0  0  0  0  0  0
  152.6285  137.8583  183.7494 N   0  0  0  0  0  0  0  0  0  0  0  0
  152.7896  137.4938  185.0305 C   0  0  0  0  0  0  0  0  0  0  0  0
  151.3471  138.0779  181.7072 N   0  0  0  0  0  0  0  0  0  0  0  0
  152.4366  138.4522  180.8445 C   0  0  0  0  0  0  0  0  0  0  0  0
  151.8313  139.3846  179.8357 C   0  0  0  0  0  0  0  0  0  0  0  0
  150.9143  140.4840  180.2684 C   0  0  0  0  0  0  0  0  0  0  0  0
  150.3678  139.1609  179.8585 C   0  0  0  0  0  0  0  0  0  0  0  0
  150.1103  138.1738  180.9533 C   0  0  0  0  0  0  0  0  0  0  0  0
  156.5584  136.3552  192.2854 C   0  0  0  0  0  0  0  0  0  0  0  0
  155.5753  136.0462  191.1262 C   0  0  0  0  0  0  0  0  0  0  0  0
  156.3646  135.4393  190.0320 N   0  0  0  0  0  0  0  0  0  0  0  0
  156.9281  136.1035  189.0105 C   0  0  0  0  0  0  0  0  0  0  0  0
  157.5584  135.2300  188.2307 N   0  0  0  0  0  0  0  0  0  0  0  0
  157.4212  133.9800  188.7222 C   0  0  0  0  0  0  0  0  0  0  0  0
  157.8492  132.7791  188.3205 N   0  0  0  0  0  0  0  0  0  0  0  0
  158.6489  132.6057  187.1238 C   0  0  0  0  0  0  0  0  0  0  0  0
  157.5310  131.6873  189.0470 C   0  0  0  0  0  0  0  0  0  0  0  0
  157.9226  130.5515  188.6880 O   0  0  0  0  0  0  0  0  0  0  0  0
  156.7949  131.7775  190.1634 N   0  0  0  0  0  0  0  0  0  0  0  0
  156.3555  132.9886  190.5811 C   0  0  0  0  0  0  0  0  0  0  0  0
  155.6586  133.0856  191.6335 O   0  0  0  0  0  0  0  0  0  0  0  0
  156.6487  134.1302  189.8836 C   0  0  0  0  0  0  0  0  0  0  0  0
  156.4514  130.6263  190.9397 C   0  0  0  0  0  0  0  0  0  0  0  0
  157.4196  130.4795  192.0267 C   0  0  0  0  0  0  0  0  0  0  0  0
  158.1918  130.3805  192.8803 N   0  0  0  0  0  0  0  0  0  0  0  0
 23 24  1  0  0  0
 24  1  1  0  0  0
  1  2  2  0  0  0
  1  3  1  0  0  0
  3  5  1  0  0  0
  5  6  2  0  0  0
  6  7  1  0  0  0
  7  8  2  0  0  0
  8  9  1  0  0  0
  9 10  2  0  0  0
  9 11  1  0  0  0
 11 12  2  0  0  0
 12 13  1  0  0  0
 13 14  2  0  0  0
 14 15  1  0  0  0
 15 16  2  0  0  0
 14 17  1  0  0  0
 17 18  1  0  0  0
 18 19  1  0  0  0
 19 20  1  0  0  0
 20 21  1  0  0  0
 21 22  1  0  0  0
 24 25  1  0  0  0
 25 26  1  0  0  0
 26 27  2  0  0  0
 27 28  1  0  0  0
 28 29  1  0  0  0
 29 30  1  0  0  0
 29 31  1  0  0  0
 31 32  2  0  0  0
 31 33  1  0  0  0
 33 37  1  0  0  0
 37 38  1  0  0  0
 38 39  3  0  0  0
 33 34  1  0  0  0
 34 35  2  0  0  0
 34 36  1  0  0  0
 10  5  1  0  0  0
 16 11  1  0  0  0
 22 17  1  0  0  0
 36 25  1  0  0  0
 21 19  1  0  0  0
 36 28  2  0  0  0
  3  4  1  0  0  0
M  END
> <minimizedAffinity>
-5.78912

> <CNNscore>
0.1591808200

> <CNNaffinity>
5.8198871613

> <CNN_VS>
0.9264144301

> <CNNaffinity_variance>
0.0454543605

$$$$
[H]c1nc(-c2c([H])nc(N3C([H])([H])C4([H])C([H])([H])C4([H])C3([H])[H])nc2[H])nc(N([H])C(=O)[C@@]([H])(n2c([H])nc3c2c(=O)n(C([H])([H])C#N)c(=O)n3C([H])([H])[H])C([H])([H])[H])c1[H]


 39 44  0  0  0  0  0  0  0  0999 V2000
  152.2668  136.5902  184.4480 C   0  0  0  0  0  0  0  0  0  0  0  0
  151.5444  135.5034  184.5621 O   0  0  0  0  0  0  0  0  0  0  0  0
  152.1039  137.2871  183.2863 N   0  0  0  0  0  0  0  0  0  0  0  0
  151.3716  136.8060  182.5959 H   0  0  0  0  0  0  0  0  0  0  0  0
  152.5953  138.4972  182.7653 C   0  0  0  0  0  0  0  0  0  0  0  0
  151.9795  139.3040  181.8820 C   0  0  0  0  0  0  0  0  0  0  0  0
  152.5873  140.5013  181.4856 C   0  0  0  0  0  0  0  0  0  0  0  0
  153.7771  140.8530  181.9751 N   0  0  0  0  0  0  0  0  0  0  0  0
  154.4097  140.0621  182.8568 C   0  0  0  0  0  0  0  0  0  0  0  0
  153.8191  138.9322  183.2211 N   0  0  0  0  0  0  0  0  0  0  0  0
  155.7271  140.4563  183.3956 C   0  0  0  0  0  0  0  0  0  0  0  0
  156.4386  141.4973  182.8646 C   0  0  0  0  0  0  0  0  0  0  0  0
  157.6330  141.8115  183.3989 N   0  0  0  0  0  0  0  0  0  0  0  0
  158.1616  141.1477  184.4338 C   0  0  0  0  0  0  0  0  0  0  0  0
  157.4507  140.1324  184.9397 N   0  0  0  0  0  0  0  0  0  0  0  0
  156.2540  139.7624  184.4590 C   0  0  0  0  0  0  0  0  0  0  0  0
  159.4366  141.5166  184.9690 N   0  0  0  0  0  0  0  0  0  0  0  0
  159.6515  142.0521  186.2875 C   0  0  0  0  0  0  0  0  0  0  0  0
  160.9004  142.8771  186.1736 C   0  0  0  0  0  0  0  0  0  0  0  0
  161.0869  143.8231  185.0303 C   0  0  0  0  0  0  0  0  0  0  0  0
  161.6079  142.4304  184.9520 C   0  0  0  0  0  0  0  0  0  0  0  0
  160.7203  141.4185  184.2982 C   0  0  0  0  0  0  0  0  0  0  0  0
  154.3808  135.9572  185.4395 C   0  0  0  0  0  0  0  0  0  0  0  0
  153.1203  136.8479  185.5928 C   0  0  0  0  0  0  0  0  0  0  0  0
  152.4490  136.4451  186.8480 N   0  0  0  0  0  0  0  0  0  0  0  0
  151.3582  135.6679  186.9388 C   0  0  0  0  0  0  0  0  0  0  0  0
  151.0468  135.5194  188.2230 N   0  0  0  0  0  0  0  0  0  0  0  0
  151.9229  136.1941  188.9978 C   0  0  0  0  0  0  0  0  0  0  0  0
  152.0452  136.3646  190.3179 N   0  0  0  0  0  0  0  0  0  0  0  0
  151.1269  135.7593  191.2624 C   0  0  0  0  0  0  0  0  0  0  0  0
  153.0538  137.1235  190.7954 C   0  0  0  0  0  0  0  0  0  0  0  0
  153.1867  137.2960  192.0303 O   0  0  0  0  0  0  0  0  0  0  0  0
  153.9374  137.7117  189.9771 N   0  0  0  0  0  0  0  0  0  0  0  0
  153.8245  137.5464  188.6376 C   0  0  0  0  0  0  0  0  0  0  0  0
  154.6526  138.0980  187.8551 O   0  0  0  0  0  0  0  0  0  0  0  0
  152.8210  136.7865  188.0975 C   0  0  0  0  0  0  0  0  0  0  0  0
  155.0091  138.5187  190.4733 C   0  0  0  0  0  0  0  0  0  0  0  0
  155.9697  137.6599  191.1662 C   0  0  0  0  0  0  0  0  0  0  0  0
  156.7149  136.9778  191.7265 N   0  0  0  0  0  0  0  0  0  0  0  0
 23 24  1  0  0  0
 24  1  1  0  0  0
  1  2  2  0  0  0
  1  3  1  0  0  0
  3  5  1  0  0  0
  5  6  2  0  0  0
  6  7  1  0  0  0
  7  8  2  0  0  0
  8  9  1  0  0  0
  9 10  2  0  0  0
  9 11  1  0  0  0
 11 12  2  0  0  0
 12 13  1  0  0  0
 13 14  2  0  0  0
 14 15  1  0  0  0
 15 16  2  0  0  0
 14 17  1  0  0  0
 17 18  1  0  0  0
 18 19  1  0  0  0
 19 20  1  0  0  0
 20 21  1  0  0  0
 21 22  1  0  0  0
 24 25  1  0  0  0
 25 26  1  0  0  0
 26 27  2  0  0  0
 27 28  1  0  0  0
 28 29  1  0  0  0
 29 30  1  0  0  0
 29 31  1  0  0  0
 31 32  2  0  0  0
 31 33  1  0  0  0
 33 37  1  0  0  0
 37 38  1  0  0  0
 38 39  3  0  0  0
 33 34  1  0  0  0
 34 35  2  0  0  0
 34 36  1  0  0  0
 10  5  1  0  0  0
 16 11  1  0  0  0
 22 17  1  0  0  0
 36 25  1  0  0  0
 21 19  1  0  0  0
 36 28  2  0  0  0
  3  4  1  0  0  0
M  END
> <minimizedAffinity>
-8.75695

> <CNNscore>
0.1497760564

> <CNNaffinity>
6.3287916183

> <CNN_VS>
0.9479014277

> <CNNaffinity_variance>
0.5098699927

$$$$
[H]c1nc(N2C([H])([H])C([H])([H])C([H])([H])[C@@]2([H])C(F)(F)F)nc([H])c1-c1nc(N([H])C(=O)C([H])([H])n2c([H])nc3c2c(=O)n(C([H])([H])C(=O)C([H])([H])[H])c(=O)n3C([H])([H])[H])c([H])c([H])c1[H]


 42 46  0  0  0  0  0  0  0  0999 V2000
  154.4547  138.5106  184.5009 C   0  0  0  0  0  0  0  0  0  0  0  0
  154.1985  139.1807  185.5275 O   0  0  0  0  0  0  0  0  0  0  0  0
  153.5652  137.5636  184.0112 N   0  0  0  0  0  0  0  0  0  0  0  0
  153.8633  137.0238  183.1158 H   0  0  0  0  0  0  0  0  0  0  0  0
  152.2973  137.2005  184.5273 C   0  0  0  0  0  0  0  0  0  0  0  0
  151.1574  137.2899  183.7906 C   0  0  0  0  0  0  0  0  0  0  0  0
  149.9259  136.9218  184.3670 C   0  0  0  0  0  0  0  0  0  0  0  0
  149.9460  136.4854  185.6635 C   0  0  0  0  0  0  0  0  0  0  0  0
  151.0943  136.3932  186.4119 C   0  0  0  0  0  0  0  0  0  0  0  0
  152.2412  136.7495  185.8348 N   0  0  0  0  0  0  0  0  0  0  0  0
  151.0694  135.9203  187.8107 C   0  0  0  0  0  0  0  0  0  0  0  0
  149.9288  135.6583  188.5173 C   0  0  0  0  0  0  0  0  0  0  0  0
  149.9706  135.2322  189.7903 N   0  0  0  0  0  0  0  0  0  0  0  0
  151.1463  135.0280  190.4759 C   0  0  0  0  0  0  0  0  0  0  0  0
  152.2504  135.2919  189.7605 N   0  0  0  0  0  0  0  0  0  0  0  0
  152.2620  135.7188  188.4885 C   0  0  0  0  0  0  0  0  0  0  0  0
  151.1260  134.5811  191.8038 N   0  0  0  0  0  0  0  0  0  0  0  0
  150.7361  133.2120  192.1906 C   0  0  0  0  0  0  0  0  0  0  0  0
  151.8896  132.8663  193.1185 C   0  0  0  0  0  0  0  0  0  0  0  0
  152.4543  134.2024  193.6076 C   0  0  0  0  0  0  0  0  0  0  0  0
  151.4259  135.1830  193.0411 C   0  0  0  0  0  0  0  0  0  0  0  0
  151.9062  136.5828  193.0822 C   0  0  0  0  0  0  0  0  0  0  0  0
  152.0198  136.8951  194.4641 F   0  0  0  0  0  0  0  0  0  0  0  0
  153.1839  136.7744  192.6017 F   0  0  0  0  0  0  0  0  0  0  0  0
  150.9904  137.4966  192.6194 F   0  0  0  0  0  0  0  0  0  0  0  0
  155.7769  138.8237  183.8760 C   0  0  0  0  0  0  0  0  0  0  0  0
  159.0407  141.9664  183.6258 N   0  0  0  0  0  0  0  0  0  0  0  0
  158.5674  143.0883  183.0663 C   0  0  0  0  0  0  0  0  0  0  0  0
  159.3443  144.0805  182.9253 O   0  0  0  0  0  0  0  0  0  0  0  0
  157.2915  143.2063  182.6446 N   0  0  0  0  0  0  0  0  0  0  0  0
  156.8224  144.4403  182.0458 C   0  0  0  0  0  0  0  0  0  0  0  0
  156.4137  142.1958  182.7628 C   0  0  0  0  0  0  0  0  0  0  0  0
  155.1241  142.0448  182.4198 N   0  0  0  0  0  0  0  0  0  0  0  0
  154.7875  140.7961  182.7778 C   0  0  0  0  0  0  0  0  0  0  0  0
  155.8599  140.1619  183.3451 N   0  0  0  0  0  0  0  0  0  0  0  0
  156.8893  141.0181  183.3449 C   0  0  0  0  0  0  0  0  0  0  0  0
  158.1916  140.9087  183.7702 C   0  0  0  0  0  0  0  0  0  0  0  0
  158.6249  139.8528  184.2902 O   0  0  0  0  0  0  0  0  0  0  0  0
  160.4287  141.8581  184.0768 C   0  0  0  0  0  0  0  0  0  0  0  0
  159.7082  142.2895  186.5593 C   0  0  0  0  0  0  0  0  0  0  0  0
  160.5558  142.5514  185.3714 C   0  0  0  0  0  0  0  0  0  0  0  0
  161.4185  143.4055  185.4858 O   0  0  0  0  0  0  0  0  0  0  0  0
 40 41  1  0  0  0
 41 42  2  0  0  0
 41 39  1  0  0  0
 39 27  1  0  0  0
 27 28  1  0  0  0
 28 29  2  0  0  0
 28 30  1  0  0  0
 30 31  1  0  0  0
 30 32  1  0  0  0
 32 33  1  0  0  0
 33 34  2  0  0  0
 34 35  1  0  0  0
 35 26  1  0  0  0
 26  1  1  0  0  0
  1  2  2  0  0  0
  1  3  1  0  0  0
  3  5  1  0  0  0
  5  6  2  0  0  0
  6  7  1  0  0  0
  7  8  2  0  0  0
  8  9  1  0  0  0
  9 10  2  0  0  0
  9 11  1  0  0  0
 11 12  2  0  0  0
 12 13  1  0  0  0
 13 14  2  0  0  0
 14 15  1  0  0  0
 15 16  2  0  0  0
 14 17  1  0  0  0
 17 18  1  0  0  0
 18 19  1  0  0  0
 19 20  1  0  0  0
 20 21  1  0  0  0
 21 22  1  0  0  0
 22 23  1  0  0  0
 22 24  1  0  0  0
 22 25  1  0  0  0
 35 36  1  0  0  0
 36 37  1  0  0  0
 37 38  2  0  0  0
 37 27  1  0  0  0
 36 32  2  0  0  0
 10  5  1  0  0  0
 16 11  1  0  0  0
 21 17  1  0  0  0
  3  4  1  0  0  0
M  END
> <minimizedAffinity>
-7.87741

> <CNNscore>
0.2953577936

> <CNNaffinity>
6.5180253983

> <CNN_VS>
1.9251495600

> <CNNaffinity_variance>
0.0820046216

$$$$
[H]c1nc(N2C([H])([H])C([H])([H])C([H])([H])[C@@]2([H])C(F)(F)F)nc([H])c1-c1nc(N([H])C(=O)C([H])([H])n2c([H])nc3c2c(=O)n(C([H])([H])C(=O)C([H])([H])[H])c(=O)n3C([H])([H])[H])c([H])c([H])c1[H]


 42 46  0  0  0  0  0  0  0  0999 V2000
  154.7897  138.2868  185.8914 C   0  0  0  0  0  0  0  0  0  0  0  0
  153.7588  138.8336  186.3461 O   0  0  0  0  0  0  0  0  0  0  0  0
  155.7423  137.7225  186.7293 N   0  0  0  0  0  0  0  0  0  0  0  0
  156.6089  137.2684  186.2552 H   0  0  0  0  0  0  0  0  0  0  0  0
  155.7369  137.6540  188.1439 C   0  0  0  0  0  0  0  0  0  0  0  0
  156.6419  138.3210  188.9095 C   0  0  0  0  0  0  0  0  0  0  0  0
  156.5879  138.2027  190.3122 C   0  0  0  0  0  0  0  0  0  0  0  0
  155.6068  137.4065  190.8370 C   0  0  0  0  0  0  0  0  0  0  0  0
  154.6904  136.7308  190.0683 C   0  0  0  0  0  0  0  0  0  0  0  0
  154.7709  136.8656  188.7451 N   0  0  0  0  0  0  0  0  0  0  0  0
  153.6498  135.8780  190.6771 C   0  0  0  0  0  0  0  0  0  0  0  0
  153.5111  134.5391  190.4385 C   0  0  0  0  0  0  0  0  0  0  0  0
  152.5409  133.8161  191.0213 N   0  0  0  0  0  0  0  0  0  0  0  0
  151.6221  134.3556  191.8923 C   0  0  0  0  0  0  0  0  0  0  0  0
  151.7800  135.6703  192.1097 N   0  0  0  0  0  0  0  0  0  0  0  0
  152.7311  136.4358  191.5531 C   0  0  0  0  0  0  0  0  0  0  0  0
  150.6324  133.5496  192.4703 N   0  0  0  0  0  0  0  0  0  0  0  0
  150.7832  132.9031  193.7876 C   0  0  0  0  0  0  0  0  0  0  0  0
  149.4577  133.2938  194.4214 C   0  0  0  0  0  0  0  0  0  0  0  0
  148.5027  133.5832  193.2606 C   0  0  0  0  0  0  0  0  0  0  0  0
  149.3476  133.1395  192.0650 C   0  0  0  0  0  0  0  0  0  0  0  0
  148.7926  133.6193  190.7791 C   0  0  0  0  0  0  0  0  0  0  0  0
  147.4612  133.1232  190.7421 F   0  0  0  0  0  0  0  0  0  0  0  0
  148.6309  134.9852  190.6882 F   0  0  0  0  0  0  0  0  0  0  0  0
  149.3797  133.0496  189.6752 F   0  0  0  0  0  0  0  0  0  0  0  0
  154.8881  138.3043  184.3992 C   0  0  0  0  0  0  0  0  0  0  0  0
  158.2693  141.2955  183.9381 N   0  0  0  0  0  0  0  0  0  0  0  0
  157.8173  142.4306  183.3874 C   0  0  0  0  0  0  0  0  0  0  0  0
  158.6287  143.3854  183.1928 O   0  0  0  0  0  0  0  0  0  0  0  0
  156.5278  142.6001  183.0295 N   0  0  0  0  0  0  0  0  0  0  0  0
  156.0831  143.8464  182.4378 C   0  0  0  0  0  0  0  0  0  0  0  0
  155.6139  141.6311  183.2067 C   0  0  0  0  0  0  0  0  0  0  0  0
  154.3029  141.5335  182.9321 N   0  0  0  0  0  0  0  0  0  0  0  0
  153.9309  140.3054  183.3246 C   0  0  0  0  0  0  0  0  0  0  0  0
  155.0022  139.6310  183.8456 N   0  0  0  0  0  0  0  0  0  0  0  0
  156.0668  140.4405  183.7807 C   0  0  0  0  0  0  0  0  0  0  0  0
  157.3833  140.2784  184.1407 C   0  0  0  0  0  0  0  0  0  0  0  0
  157.7961  139.2107  184.6531 O   0  0  0  0  0  0  0  0  0  0  0  0
  159.6726  141.1311  184.3194 C   0  0  0  0  0  0  0  0  0  0  0  0
  161.0078  142.9217  185.6900 C   0  0  0  0  0  0  0  0  0  0  0  0
  159.9228  141.9230  185.5372 C   0  0  0  0  0  0  0  0  0  0  0  0
  159.1894  141.7528  186.4964 O   0  0  0  0  0  0  0  0  0  0  0  0
 40 41  1  0  0  0
 41 42  2  0  0  0
 41 39  1  0  0  0
 39 27  1  0  0  0
 27 28  1  0  0  0
 28 29  2  0  0  0
 28 30  1  0  0  0
 30 31  1  0  0  0
 30 32  1  0  0  0
 32 33  1  0  0  0
 33 34  2  0  0  0
 34 35  1  0  0  0
 35 26  1  0  0  0
 26  1  1  0  0  0
  1  2  2  0  0  0
  1  3  1  0  0  0
  3  5  1  0  0  0
  5  6  2  0  0  0
  6  7  1  0  0  0
  7  8  2  0  0  0
  8  9  1  0  0  0
  9 10  2  0  0  0
  9 11  1  0  0  0
 11 12  2  0  0  0
 12 13  1  0  0  0
 13 14  2  0  0  0
 14 15  1  0  0  0
 15 16  2  0  0  0
 14 17  1  0  0  0
 17 18  1  0  0  0
 18 19  1  0  0  0
 19 20  1  0  0  0
 20 21  1  0  0  0
 21 22  1  0  0  0
 22 23  1  0  0  0
 22 24  1  0  0  0
 22 25  1  0  0  0
 35 36  1  0  0  0
 36 37  1  0  0  0
 37 38  2  0  0  0
 37 27  1  0  0  0
 36 32  2  0  0  0
 10  5  1  0  0  0
 16 11  1  0  0  0
 21 17  1  0  0  0
  3  4  1  0  0  0
M  END
> <minimizedAffinity>
-7.61719

> <CNNscore>
0.2688677013

> <CNNaffinity>
6.5371465683

> <CNN_VS>
1.7576276064

> <CNNaffinity_variance>
0.0832544193

$$$$
[H]c1nc(N2C([H])([H])C([H])([H])C([H])([H])[C@@]2([H])C(F)(F)F)nc([H])c1-c1nc(N([H])C(=O)C([H])([H])n2c([H])nc3c2c(=O)n(C([H])([H])C(=O)C([H])([H])[H])c(=O)n3C([H])([H])[H])c([H])c([H])c1[H]


 42 46  0  0  0  0  0  0  0  0999 V2000
  157.7845  140.2234  181.8049 C   0  0  0  0  0  0  0  0  0  0  0  0
  157.9864  139.0725  182.2559 O   0  0  0  0  0  0  0  0  0  0  0  0
  156.5539  140.8516  181.9424 N   0  0  0  0  0  0  0  0  0  0  0  0
  156.4604  141.8499  181.5220 H   0  0  0  0  0  0  0  0  0  0  0  0
  155.3831  140.3610  182.5701 C   0  0  0  0  0  0  0  0  0  0  0  0
  154.1360  140.6257  182.0959 C   0  0  0  0  0  0  0  0  0  0  0  0
  153.0113  140.1152  182.7732 C   0  0  0  0  0  0  0  0  0  0  0  0
  153.2415  139.3654  183.8943 C   0  0  0  0  0  0  0  0  0  0  0  0
  154.4987  139.0952  184.3774 C   0  0  0  0  0  0  0  0  0  0  0  0
  155.5396  139.5938  183.7117 N   0  0  0  0  0  0  0  0  0  0  0  0
  154.7011  138.2840  185.5948 C   0  0  0  0  0  0  0  0  0  0  0  0
  153.8058  137.3663  186.0692 C   0  0  0  0  0  0  0  0  0  0  0  0
  154.0456  136.6596  187.1859 N   0  0  0  0  0  0  0  0  0  0  0  0
  155.1940  136.7996  187.9313 C   0  0  0  0  0  0  0  0  0  0  0  0
  156.0558  137.7056  187.4446 N   0  0  0  0  0  0  0  0  0  0  0  0
  155.8633  138.4359  186.3355 C   0  0  0  0  0  0  0  0  0  0  0  0
  155.3883  136.0328  189.0879 N   0  0  0  0  0  0  0  0  0  0  0  0
  156.2072  134.8062  189.1169 C   0  0  0  0  0  0  0  0  0  0  0  0
  157.0599  135.0927  190.3423 C   0  0  0  0  0  0  0  0  0  0  0  0
  156.2714  136.1026  191.1799 C   0  0  0  0  0  0  0  0  0  0  0  0
  154.9446  136.1451  190.4196 C   0  0  0  0  0  0  0  0  0  0  0  0
  154.1061  137.2970  190.8221 C   0  0  0  0  0  0  0  0  0  0  0  0
  153.8216  137.0852  192.1985 F   0  0  0  0  0  0  0  0  0  0  0  0
  154.7476  138.5169  190.8089 F   0  0  0  0  0  0  0  0  0  0  0  0
  152.8641  137.3103  190.2346 F   0  0  0  0  0  0  0  0  0  0  0  0
  158.9675  140.8330  181.1226 C   0  0  0  0  0  0  0  0  0  0  0  0
  160.6038  142.8722  184.8316 N   0  0  0  0  0  0  0  0  0  0  0  0
  160.5705  144.2039  184.6859 C   0  0  0  0  0  0  0  0  0  0  0  0
  160.9832  144.9369  185.6348 O   0  0  0  0  0  0  0  0  0  0  0  0
  160.1135  144.8000  183.5654 N   0  0  0  0  0  0  0  0  0  0  0  0
  160.0949  146.2451  183.4524 C   0  0  0  0  0  0  0  0  0  0  0  0
  159.6611  144.0855  182.5212 C   0  0  0  0  0  0  0  0  0  0  0  0
  159.1790  144.4165  181.3122 N   0  0  0  0  0  0  0  0  0  0  0  0
  158.9040  143.2590  180.6916 C   0  0  0  0  0  0  0  0  0  0  0  0
  159.2104  142.2019  181.5056 N   0  0  0  0  0  0  0  0  0  0  0  0
  159.6874  142.6950  182.6554 C   0  0  0  0  0  0  0  0  0  0  0  0
  160.1559  142.0983  183.8014 C   0  0  0  0  0  0  0  0  0  0  0  0
  160.1851  140.8507  183.9261 O   0  0  0  0  0  0  0  0  0  0  0  0
  161.1036  142.2444  186.0554 C   0  0  0  0  0  0  0  0  0  0  0  0
  163.4090  142.6428  187.2362 C   0  0  0  0  0  0  0  0  0  0  0  0
  162.5757  142.3203  186.0532 C   0  0  0  0  0  0  0  0  0  0  0  0
  163.1625  142.1036  185.0065 O   0  0  0  0  0  0  0  0  0  0  0  0
 40 41  1  0  0  0
 41 42  2  0  0  0
 41 39  1  0  0  0
 39 27  1  0  0  0
 27 28  1  0  0  0
 28 29  2  0  0  0
 28 30  1  0  0  0
 30 31  1  0  0  0
 30 32  1  0  0  0
 32 33  1  0  0  0
 33 34  2  0  0  0
 34 35  1  0  0  0
 35 26  1  0  0  0
 26  1  1  0  0  0
  1  2  2  0  0  0
  1  3  1  0  0  0
  3  5  1  0  0  0
  5  6  2  0  0  0
  6  7  1  0  0  0
  7  8  2  0  0  0
  8  9  1  0  0  0
  9 10  2  0  0  0
  9 11  1  0  0  0
 11 12  2  0  0  0
 12 13  1  0  0  0
 13 14  2  0  0  0
 14 15  1  0  0  0
 15 16  2  0  0  0
 14 17  1  0  0  0
 17 18  1  0  0  0
 18 19  1  0  0  0
 19 20  1  0  0  0
 20 21  1  0  0  0
 21 22  1  0  0  0
 22 23  1  0  0  0
 22 24  1  0  0  0
 22 25  1  0  0  0
 35 36  1  0  0  0
 36 37  1  0  0  0
 37 38  2  0  0  0
 37 27  1  0  0  0
 36 32  2  0  0  0
 10  5  1  0  0  0
 16 11  1  0  0  0
 21 17  1  0  0  0
  3  4  1  0  0  0
M  END
> <minimizedAffinity>
-7.86669

> <CNNscore>
0.2504562438

> <CNNaffinity>
7.0973577499

> <CNN_VS>
1.7775775194

> <CNNaffinity_variance>
0.0574312620

$$$$
[H]c1nc(N2C([H])([H])C([H])([H])C([H])([H])[C@@]2([H])C(F)(F)F)nc([H])c1-c1nc(N([H])C(=O)C([H])([H])n2c([H])nc3c2c(=O)n(C([H])([H])C(=O)C([H])([H])[H])c(=O)n3C([H])([H])[H])c([H])c([H])c1[H]


 42 46  0  0  0  0  0  0  0  0999 V2000
  150.5616  136.2299  185.8795 C   0  0  0  0  0  0  0  0  0  0  0  0
  150.1167  137.3016  186.3509 O   0  0  0  0  0  0  0  0  0  0  0  0
  151.1797  136.1844  184.6370 N   0  0  0  0  0  0  0  0  0  0  0  0
  151.5374  135.2148  184.2996 H   0  0  0  0  0  0  0  0  0  0  0  0
  151.4148  137.2497  183.7339 C   0  0  0  0  0  0  0  0  0  0  0  0
  150.5055  137.6225  182.7936 C   0  0  0  0  0  0  0  0  0  0  0  0
  150.8053  138.6850  181.9187 C   0  0  0  0  0  0  0  0  0  0  0  0
  152.0205  139.2958  182.0673 C   0  0  0  0  0  0  0  0  0  0  0  0
  152.9424  138.9232  183.0152 C   0  0  0  0  0  0  0  0  0  0  0  0
  152.6256  137.9144  183.8259 N   0  0  0  0  0  0  0  0  0  0  0  0
  154.2450  139.6081  183.1377 C   0  0  0  0  0  0  0  0  0  0  0  0
  155.2729  139.1774  183.9294 C   0  0  0  0  0  0  0  0  0  0  0  0
  156.4353  139.8461  184.0011 N   0  0  0  0  0  0  0  0  0  0  0  0
  156.6824  141.0011  183.2947 C   0  0  0  0  0  0  0  0  0  0  0  0
  155.6586  141.4022  182.5257 N   0  0  0  0  0  0  0  0  0  0  0  0
  154.4794  140.7708  182.4195 C   0  0  0  0  0  0  0  0  0  0  0  0
  157.9166  141.6543  183.4100 N   0  0  0  0  0  0  0  0  0  0  0  0
  158.5749  141.9169  184.7038 C   0  0  0  0  0  0  0  0  0  0  0  0
  159.9747  141.4146  184.3891 C   0  0  0  0  0  0  0  0  0  0  0  0
  160.1156  141.4803  182.8662 C   0  0  0  0  0  0  0  0  0  0  0  0
  158.8225  142.2010  182.4807 C   0  0  0  0  0  0  0  0  0  0  0  0
  158.5390  142.1038  181.0309 C   0  0  0  0  0  0  0  0  0  0  0  0
  159.7208  142.5657  180.3905 F   0  0  0  0  0  0  0  0  0  0  0  0
  158.3923  140.8199  180.5511 F   0  0  0  0  0  0  0  0  0  0  0  0
  157.5733  142.9787  180.5952 F   0  0  0  0  0  0  0  0  0  0  0  0
  150.3639  135.0400  186.7636 C   0  0  0  0  0  0  0  0  0  0  0  0
  153.2168  136.2224  190.0885 N   0  0  0  0  0  0  0  0  0  0  0  0
  152.5516  136.3806  191.2410 C   0  0  0  0  0  0  0  0  0  0  0  0
  153.1963  136.7035  192.2840 O   0  0  0  0  0  0  0  0  0  0  0  0
  151.2170  136.2097  191.3377 N   0  0  0  0  0  0  0  0  0  0  0  0
  150.5390  136.3904  192.6062 C   0  0  0  0  0  0  0  0  0  0  0  0
  150.4712  135.8675  190.2736 C   0  0  0  0  0  0  0  0  0  0  0  0
  149.1574  135.6552  190.0935 N   0  0  0  0  0  0  0  0  0  0  0  0
  149.0035  135.3553  188.7946 C   0  0  0  0  0  0  0  0  0  0  0  0
  150.2150  135.3774  188.1577 N   0  0  0  0  0  0  0  0  0  0  0  0
  151.1481  135.6973  189.0632 C   0  0  0  0  0  0  0  0  0  0  0  0
  152.5082  135.8748  188.9761 C   0  0  0  0  0  0  0  0  0  0  0  0
  153.1204  135.7267  187.8916 O   0  0  0  0  0  0  0  0  0  0  0  0
  154.6654  136.4126  190.0041 C   0  0  0  0  0  0  0  0  0  0  0  0
  155.8035  138.5584  190.9882 C   0  0  0  0  0  0  0  0  0  0  0  0
  154.9482  137.8593  189.9993 C   0  0  0  0  0  0  0  0  0  0  0  0
  154.4473  138.5418  189.1217 O   0  0  0  0  0  0  0  0  0  0  0  0
 40 41  1  0  0  0
 41 42  2  0  0  0
 41 39  1  0  0  0
 39 27  1  0  0  0
 27 28  1  0  0  0
 28 29  2  0  0  0
 28 30  1  0  0  0
 30 31  1  0  0  0
 30 32  1  0  0  0
 32 33  1  0  0  0
 33 34  2  0  0  0
 34 35  1  0  0  0
 35 26  1  0  0  0
 26  1  1  0  0  0
  1  2  2  0  0  0
  1  3  1  0  0  0
  3  5  1  0  0  0
  5  6  2  0  0  0
  6  7  1  0  0  0
  7  8  2  0  0  0
  8  9  1  0  0  0
  9 10  2  0  0  0
  9 11  1  0  0  0
 11 12  2  0  0  0
 12 13  1  0  0  0
 13 14  2  0  0  0
 14 15  1  0  0  0
 15 16  2  0  0  0
 14 17  1  0  0  0
 17 18  1  0  0  0
 18 19  1  0  0  0
 19 20  1  0  0  0
 20 21  1  0  0  0
 21 22  1  0  0  0
 22 23  1  0  0  0
 22 24  1  0  0  0
 22 25  1  0  0  0
 35 36  1  0  0  0
 36 37  1  0  0  0
 37 38  2  0  0  0
 37 27  1  0  0  0
 36 32  2  0  0  0
 10  5  1  0  0  0
 16 11  1  0  0  0
 21 17  1  0  0  0
  3  4  1  0  0  0
M  END
> <minimizedAffinity>
-8.45404

> <CNNscore>
0.2413878888

> <CNNaffinity>
6.4794158936

> <CNN_VS>
1.5640525818

> <CNNaffinity_variance>
0.2099531144

$$$$
[H]c1nc(N2C([H])([H])C([H])([H])C([H])([H])[C@@]2([H])C(F)(F)F)nc([H])c1-c1nc(N([H])C(=O)C([H])([H])n2c([H])nc3c2c(=O)n(C([H])([H])C(=O)C([H])([H])[H])c(=O)n3C([H])([H])[H])c([H])c([H])c1[H]


 42 46  0  0  0  0  0  0  0  0999 V2000
  155.7281  137.6643  188.9834 C   0  0  0  0  0  0  0  0  0  0  0  0
  156.6429  138.4327  188.6074 O   0  0  0  0  0  0  0  0  0  0  0  0
  154.7398  137.2299  188.1101 N   0  0  0  0  0  0  0  0  0  0  0  0
  153.9812  136.5651  188.5155 H   0  0  0  0  0  0  0  0  0  0  0  0
  154.5845  137.5385  186.7366 C   0  0  0  0  0  0  0  0  0  0  0  0
  153.6653  136.9177  185.9494 C   0  0  0  0  0  0  0  0  0  0  0  0
  153.5683  137.2643  184.5874 C   0  0  0  0  0  0  0  0  0  0  0  0
  154.4225  138.2270  184.1231 C   0  0  0  0  0  0  0  0  0  0  0  0
  155.3524  138.8570  184.9139 C   0  0  0  0  0  0  0  0  0  0  0  0
  155.4164  138.5044  186.1972 N   0  0  0  0  0  0  0  0  0  0  0  0
  156.2582  139.8886  184.3695 C   0  0  0  0  0  0  0  0  0  0  0  0
  155.9082  141.1942  184.1655 C   0  0  0  0  0  0  0  0  0  0  0  0
  156.7773  142.0868  183.6638 N   0  0  0  0  0  0  0  0  0  0  0  0
  158.0703  141.7648  183.3199 C   0  0  0  0  0  0  0  0  0  0  0  0
  158.3886  140.4783  183.5298 N   0  0  0  0  0  0  0  0  0  0  0  0
  157.5584  139.5491  184.0277 C   0  0  0  0  0  0  0  0  0  0  0  0
  158.9318  142.7408  182.8014 N   0  0  0  0  0  0  0  0  0  0  0  0
  158.7708  143.3309  181.4590 C   0  0  0  0  0  0  0  0  0  0  0  0
  158.8925  144.8055  181.8077 C   0  0  0  0  0  0  0  0  0  0  0  0
  159.6661  144.8659  183.1273 C   0  0  0  0  0  0  0  0  0  0  0  0
  160.0716  143.4009  183.2994 C   0  0  0  0  0  0  0  0  0  0  0  0
  160.5511  143.1106  184.6697 C   0  0  0  0  0  0  0  0  0  0  0  0
  161.2222  141.8616  184.5706 F   0  0  0  0  0  0  0  0  0  0  0  0
  161.5261  143.9648  185.1385 F   0  0  0  0  0  0  0  0  0  0  0  0
  159.5421  142.8640  185.5692 F   0  0  0  0  0  0  0  0  0  0  0  0
  155.8054  137.2751  190.4253 C   0  0  0  0  0  0  0  0  0  0  0  0
  152.6375  135.2638  192.9771 N   0  0  0  0  0  0  0  0  0  0  0  0
  152.7413  133.9309  192.8864 C   0  0  0  0  0  0  0  0  0  0  0  0
  151.9371  133.2051  193.5456 O   0  0  0  0  0  0  0  0  0  0  0  0
  153.6710  133.3261  192.1187 N   0  0  0  0  0  0  0  0  0  0  0  0
  153.7472  131.8800  192.0519 C   0  0  0  0  0  0  0  0  0  0  0  0
  154.5550  134.0326  191.3940 C   0  0  0  0  0  0  0  0  0  0  0  0
  155.5470  133.6920  190.5553 N   0  0  0  0  0  0  0  0  0  0  0  0
  156.0742  134.8448  190.1149 C   0  0  0  0  0  0  0  0  0  0  0  0
  155.4184  135.9084  190.6740 N   0  0  0  0  0  0  0  0  0  0  0  0
  154.4624  135.4243  191.4769 C   0  0  0  0  0  0  0  0  0  0  0  0
  153.5105  136.0298  192.2618 C   0  0  0  0  0  0  0  0  0  0  0  0
  153.4206  137.2785  192.3372 O   0  0  0  0  0  0  0  0  0  0  0  0
  151.6215  135.9010  193.8158 C   0  0  0  0  0  0  0  0  0  0  0  0
  150.1597  136.2673  191.6717 C   0  0  0  0  0  0  0  0  0  0  0  0
  150.3374  135.8815  193.0921 C   0  0  0  0  0  0  0  0  0  0  0  0
  149.3407  135.5232  193.6962 O   0  0  0  0  0  0  0  0  0  0  0  0
 40 41  1  0  0  0
 41 42  2  0  0  0
 41 39  1  0  0  0
 39 27  1  0  0  0
 27 28  1  0  0  0
 28 29  2  0  0  0
 28 30  1  0  0  0
 30 31  1  0  0  0
 30 32  1  0  0  0
 32 33  1  0  0  0
 33 34  2  0  0  0
 34 35  1  0  0  0
 35 26  1  0  0  0
 26  1  1  0  0  0
  1  2  2  0  0  0
  1  3  1  0  0  0
  3  5  1  0  0  0
  5  6  2  0  0  0
  6  7  1  0  0  0
  7  8  2  0  0  0
  8  9  1  0  0  0
  9 10  2  0  0  0
  9 11  1  0  0  0
 11 12  2  0  0  0
 12 13  1  0  0  0
 13 14  2  0  0  0
 14 15  1  0  0  0
 15 16  2  0  0  0
 14 17  1  0  0  0
 17 18  1  0  0  0
 18 19  1  0  0  0
 19 20  1  0  0  0
 20 21  1  0  0  0
 21 22  1  0  0  0
 22 23  1  0  0  0
 22 24  1  0  0  0
 22 25  1  0  0  0
 35 36  1  0  0  0
 36 37  1  0  0  0
 37 38  2  0  0  0
 37 27  1  0  0  0
 36 32  2  0  0  0
 10  5  1  0  0  0
 16 11  1  0  0  0
 21 17  1  0  0  0
  3  4  1  0  0  0
M  END
> <minimizedAffinity>
-8.15132

> <CNNscore>
0.2326983213

> <CNNaffinity>
6.7507262230

> <CNN_VS>
1.5708826780

> <CNNaffinity_variance>
0.0074871616

$$$$
[H]c1nc(N2C([H])([H])C([H])([H])C([H])([H])[C@@]2([H])C(F)(F)F)nc([H])c1-c1nc(N([H])C(=O)C([H])([H])n2c([H])nc3c2c(=O)n(C([H])([H])C(=O)C([H])([H])[H])c(=O)n3C([H])([H])[H])c([H])c([H])c1[H]


 42 46  0  0  0  0  0  0  0  0999 V2000
  156.2503  139.3657  184.2193 C   0  0  0  0  0  0  0  0  0  0  0  0
  155.5953  140.4149  184.4156 O   0  0  0  0  0  0  0  0  0  0  0  0
  155.6557  138.1133  184.2960 N   0  0  0  0  0  0  0  0  0  0  0  0
  156.2941  137.2524  184.1133 H   0  0  0  0  0  0  0  0  0  0  0  0
  154.3048  137.7990  184.5822 C   0  0  0  0  0  0  0  0  0  0  0  0
  153.3026  138.0057  183.6862 C   0  0  0  0  0  0  0  0  0  0  0  0
  151.9776  137.6804  184.0370 C   0  0  0  0  0  0  0  0  0  0  0  0
  151.7688  137.1634  185.2864 C   0  0  0  0  0  0  0  0  0  0  0  0
  152.7773  136.9526  186.1951 C   0  0  0  0  0  0  0  0  0  0  0  0
  154.0183  137.2716  185.8296 N   0  0  0  0  0  0  0  0  0  0  0  0
  152.5060  136.3958  187.5356 C   0  0  0  0  0  0  0  0  0  0  0  0
  151.2554  136.1763  188.0423 C   0  0  0  0  0  0  0  0  0  0  0  0
  151.0723  135.6690  189.2723 N   0  0  0  0  0  0  0  0  0  0  0  0
  152.1122  135.3340  190.1092 C   0  0  0  0  0  0  0  0  0  0  0  0
  153.3283  135.5586  189.5885 N   0  0  0  0  0  0  0  0  0  0  0  0
  153.5640  136.0628  188.3676 C   0  0  0  0  0  0  0  0  0  0  0  0
  151.8581  134.8071  191.3825 N   0  0  0  0  0  0  0  0  0  0  0  0
  151.6679  133.3669  191.6386 C   0  0  0  0  0  0  0  0  0  0  0  0
  152.6049  133.1881  192.8223 C   0  0  0  0  0  0  0  0  0  0  0  0
  152.7536  134.5730  193.4573 C   0  0  0  0  0  0  0  0  0  0  0  0
  151.7198  135.3744  192.6640 C   0  0  0  0  0  0  0  0  0  0  0  0
  151.8851  136.8344  192.8450 C   0  0  0  0  0  0  0  0  0  0  0  0
  151.8881  137.0352  194.2521 F   0  0  0  0  0  0  0  0  0  0  0  0
  153.1047  137.3364  192.4445 F   0  0  0  0  0  0  0  0  0  0  0  0
  150.8075  137.5714  192.4166 F   0  0  0  0  0  0  0  0  0  0  0  0
  157.6948  139.5920  183.9049 C   0  0  0  0  0  0  0  0  0  0  0  0
  160.1099  143.3348  184.7719 N   0  0  0  0  0  0  0  0  0  0  0  0
  159.9578  144.2282  183.7848 C   0  0  0  0  0  0  0  0  0  0  0  0
  160.5569  145.3428  183.8664 O   0  0  0  0  0  0  0  0  0  0  0  0
  159.1895  143.9894  182.7021 N   0  0  0  0  0  0  0  0  0  0  0  0
  159.0531  144.9863  181.6586 C   0  0  0  0  0  0  0  0  0  0  0  0
  158.5262  142.8308  182.5501 C   0  0  0  0  0  0  0  0  0  0  0  0
  157.7270  142.3407  181.5885 N   0  0  0  0  0  0  0  0  0  0  0  0
  157.3721  141.1106  181.9906 C   0  0  0  0  0  0  0  0  0  0  0  0
  157.9441  140.8258  183.2012 N   0  0  0  0  0  0  0  0  0  0  0  0
  158.6721  141.8872  183.5702 C   0  0  0  0  0  0  0  0  0  0  0  0
  159.4583  142.1409  184.6686 C   0  0  0  0  0  0  0  0  0  0  0  0
  159.5957  141.2963  185.5855 O   0  0  0  0  0  0  0  0  0  0  0  0
  160.9483  143.6128  185.9388 C   0  0  0  0  0  0  0  0  0  0  0  0
  163.0795  142.4818  186.9618 C   0  0  0  0  0  0  0  0  0  0  0  0
  162.1829  142.8150  185.8291 C   0  0  0  0  0  0  0  0  0  0  0  0
  162.5004  142.3921  184.7303 O   0  0  0  0  0  0  0  0  0  0  0  0
 40 41  1  0  0  0
 41 42  2  0  0  0
 41 39  1  0  0  0
 39 27  1  0  0  0
 27 28  1  0  0  0
 28 29  2  0  0  0
 28 30  1  0  0  0
 30 31  1  0  0  0
 30 32  1  0  0  0
 32 33  1  0  0  0
 33 34  2  0  0  0
 34 35  1  0  0  0
 35 26  1  0  0  0
 26  1  1  0  0  0
  1  2  2  0  0  0
  1  3  1  0  0  0
  3  5  1  0  0  0
  5  6  2  0  0  0
  6  7  1  0  0  0
  7  8  2  0  0  0
  8  9  1  0  0  0
  9 10  2  0  0  0
  9 11  1  0  0  0
 11 12  2  0  0  0
 12 13  1  0  0  0
 13 14  2  0  0  0
 14 15  1  0  0  0
 15 16  2  0  0  0
 14 17  1  0  0  0
 17 18  1  0  0  0
 18 19  1  0  0  0
 19 20  1  0  0  0
 20 21  1  0  0  0
 21 22  1  0  0  0
 22 23  1  0  0  0
 22 24  1  0  0  0
 22 25  1  0  0  0
 35 36  1  0  0  0
 36 37  1  0  0  0
 37 38  2  0  0  0
 37 27  1  0  0  0
 36 32  2  0  0  0
 10  5  1  0  0  0
 16 11  1  0  0  0
 21 17  1  0  0  0
  3  4  1  0  0  0
M  END
> <minimizedAffinity>
-8.35337

> <CNNscore>
0.1615495980

> <CNNaffinity>
6.5046830177

> <CNN_VS>
1.0508289337

> <CNNaffinity_variance>
0.0684094205

$$$$
[H]c1nc(N2C([H])([H])C([H])([H])C([H])([H])[C@@]2([H])C(F)(F)F)nc([H])c1-c1nc(N([H])C(=O)C([H])([H])n2c([H])nc3c2c(=O)n(C([H])([H])C(=O)C([H])([H])[H])c(=O)n3C([H])([H])[H])c([H])c([H])c1[H]


 42 46  0  0  0  0  0  0  0  0999 V2000
  150.9908  136.1593  186.1777 C   0  0  0  0  0  0  0  0  0  0  0  0
  150.6193  137.2466  186.6761 O   0  0  0  0  0  0  0  0  0  0  0  0
  151.4878  136.0860  184.8833 N   0  0  0  0  0  0  0  0  0  0  0  0
  151.7877  135.1043  184.5252 H   0  0  0  0  0  0  0  0  0  0  0  0
  151.6635  137.1363  183.9496 C   0  0  0  0  0  0  0  0  0  0  0  0
  150.7181  137.4559  183.0254 C   0  0  0  0  0  0  0  0  0  0  0  0
  150.9592  138.5063  182.1182 C   0  0  0  0  0  0  0  0  0  0  0  0
  152.1566  139.1603  182.2200 C   0  0  0  0  0  0  0  0  0  0  0  0
  153.1147  138.8415  183.1515 C   0  0  0  0  0  0  0  0  0  0  0  0
  152.8531  137.8427  183.9937 N   0  0  0  0  0  0  0  0  0  0  0  0
  154.3962  139.5718  183.2231 C   0  0  0  0  0  0  0  0  0  0  0  0
  155.5039  139.1251  183.8882 C   0  0  0  0  0  0  0  0  0  0  0  0
  156.6421  139.8372  183.9197 N   0  0  0  0  0  0  0  0  0  0  0  0
  156.7838  141.0552  183.2948 C   0  0  0  0  0  0  0  0  0  0  0  0
  155.6833  141.4708  182.6494 N   0  0  0  0  0  0  0  0  0  0  0  0
  154.5240  140.7979  182.5883 C   0  0  0  0  0  0  0  0  0  0  0  0
  157.9978  141.7515  183.3624 N   0  0  0  0  0  0  0  0  0  0  0  0
  158.6839  142.0597  184.6315 C   0  0  0  0  0  0  0  0  0  0  0  0
  160.0904  141.5990  184.2843 C   0  0  0  0  0  0  0  0  0  0  0  0
  160.1848  141.6415  182.7570 C   0  0  0  0  0  0  0  0  0  0  0  0
  158.8573  142.3112  182.3975 C   0  0  0  0  0  0  0  0  0  0  0  0
  158.5354  142.1781  180.9585 C   0  0  0  0  0  0  0  0  0  0  0  0
  159.7117  142.5912  180.2760 F   0  0  0  0  0  0  0  0  0  0  0  0
  158.3459  140.8846  180.5215 F   0  0  0  0  0  0  0  0  0  0  0  0
  157.5806  143.0634  180.5201 F   0  0  0  0  0  0  0  0  0  0  0  0
  150.8475  134.9833  187.0905 C   0  0  0  0  0  0  0  0  0  0  0  0
  151.6724  136.0295  191.4284 N   0  0  0  0  0  0  0  0  0  0  0  0
  152.9230  135.6835  191.7630 C   0  0  0  0  0  0  0  0  0  0  0  0
  153.3301  135.9127  192.9418 O   0  0  0  0  0  0  0  0  0  0  0  0
  153.7712  135.0980  190.8927 N   0  0  0  0  0  0  0  0  0  0  0  0
  155.1165  134.7418  191.2984 C   0  0  0  0  0  0  0  0  0  0  0  0
  153.4072  134.8260  189.6281 C   0  0  0  0  0  0  0  0  0  0  0  0
  154.0319  134.2496  188.5884 N   0  0  0  0  0  0  0  0  0  0  0  0
  153.1456  134.2394  187.5809 C   0  0  0  0  0  0  0  0  0  0  0  0
  151.9668  134.8077  187.9826 N   0  0  0  0  0  0  0  0  0  0  0  0
  152.1066  135.1808  189.2609 C   0  0  0  0  0  0  0  0  0  0  0  0
  151.2505  135.7761  190.1562 C   0  0  0  0  0  0  0  0  0  0  0  0
  150.0809  136.0935  189.8331 O   0  0  0  0  0  0  0  0  0  0  0  0
  150.7670  136.6638  192.3874 C   0  0  0  0  0  0  0  0  0  0  0  0
  150.4683  135.3983  194.6627 C   0  0  0  0  0  0  0  0  0  0  0  0
  150.1643  135.6133  193.2277 C   0  0  0  0  0  0  0  0  0  0  0  0
  149.3542  134.8594  192.7156 O   0  0  0  0  0  0  0  0  0  0  0  0
 40 41  1  0  0  0
 41 42  2  0  0  0
 41 39  1  0  0  0
 39 27  1  0  0  0
 27 28  1  0  0  0
 28 29  2  0  0  0
 28 30  1  0  0  0
 30 31  1  0  0  0
 30 32  1  0  0  0
 32 33  1  0  0  0
 33 34  2  0  0  0
 34 35  1  0  0  0
 35 26  1  0  0  0
 26  1  1  0  0  0
  1  2  2  0  0  0
  1  3  1  0  0  0
  3  5  1  0  0  0
  5  6  2  0  0  0
  6  7  1  0  0  0
  7  8  2  0  0  0
  8  9  1  0  0  0
  9 10  2  0  0  0
  9 11  1  0  0  0
 11 12  2  0  0  0
 12 13  1  0  0  0
 13 14  2  0  0  0
 14 15  1  0  0  0
 15 16  2  0  0  0
 14 17  1  0  0  0
 17 18  1  0  0  0
 18 19  1  0  0  0
 19 20  1  0  0  0
 20 21  1  0  0  0
 21 22  1  0  0  0
 22 23  1  0  0  0
 22 24  1  0  0  0
 22 25  1  0  0  0
 35 36  1  0  0  0
 36 37  1  0  0  0
 37 38  2  0  0  0
 37 27  1  0  0  0
 36 32  2  0  0  0
 10  5  1  0  0  0
 16 11  1  0  0  0
 21 17  1  0  0  0
  3  4  1  0  0  0
M  END
> <minimizedAffinity>
-7.71784

> <CNNscore>
0.1418652385

> <CNNaffinity>
6.2953386307

> <CNN_VS>
0.8930897117

> <CNNaffinity_variance>
0.2896597981

$$$$
[H]c1nc(N2C([H])([H])C([H])([H])C([H])([H])[C@@]2([H])C(F)(F)F)nc([H])c1-c1nc(N([H])C(=O)C([H])([H])n2c([H])nc3c2c(=O)n(C([H])([H])C(=O)C([H])([H])[H])c(=O)n3C([H])([H])[H])c([H])c([H])c1[H]


 42 46  0  0  0  0  0  0  0  0999 V2000
  155.6362  137.0258  188.3828 C   0  0  0  0  0  0  0  0  0  0  0  0
  156.5673  136.6655  187.6266 O   0  0  0  0  0  0  0  0  0  0  0  0
  154.4373  137.5115  187.8780 N   0  0  0  0  0  0  0  0  0  0  0  0
  153.6803  137.8041  188.6013 H   0  0  0  0  0  0  0  0  0  0  0  0
  154.0584  137.6779  186.5236 C   0  0  0  0  0  0  0  0  0  0  0  0
  153.1389  136.8776  185.9202 C   0  0  0  0  0  0  0  0  0  0  0  0
  152.8134  137.0902  184.5662 C   0  0  0  0  0  0  0  0  0  0  0  0
  153.4541  138.1120  183.9202 C   0  0  0  0  0  0  0  0  0  0  0  0
  154.3834  138.9231  184.5249 C   0  0  0  0  0  0  0  0  0  0  0  0
  154.6669  138.6936  185.8064 N   0  0  0  0  0  0  0  0  0  0  0  0
  155.0544  140.0128  183.7879 C   0  0  0  0  0  0  0  0  0  0  0  0
  154.5830  140.5675  182.6308 C   0  0  0  0  0  0  0  0  0  0  0  0
  155.2410  141.5563  182.0040 N   0  0  0  0  0  0  0  0  0  0  0  0
  156.4245  142.0833  182.4682 C   0  0  0  0  0  0  0  0  0  0  0  0
  156.8654  141.5222  183.6046 N   0  0  0  0  0  0  0  0  0  0  0  0
  156.2463  140.5338  184.2680 C   0  0  0  0  0  0  0  0  0  0  0  0
  157.0647  143.1160  181.7702 N   0  0  0  0  0  0  0  0  0  0  0  0
  156.9329  144.5399  182.1325 C   0  0  0  0  0  0  0  0  0  0  0  0
  158.3978  144.9462  182.1241 C   0  0  0  0  0  0  0  0  0  0  0  0
  159.1123  143.9348  181.2242 C   0  0  0  0  0  0  0  0  0  0  0  0
  157.9255  143.1542  180.6564 C   0  0  0  0  0  0  0  0  0  0  0  0
  158.3457  141.8922  180.0064 C   0  0  0  0  0  0  0  0  0  0  0  0
  157.2379  141.5007  179.2066 F   0  0  0  0  0  0  0  0  0  0  0  0
  159.3724  142.0201  179.0956 F   0  0  0  0  0  0  0  0  0  0  0  0
  158.4990  140.8431  180.8804 F   0  0  0  0  0  0  0  0  0  0  0  0
  155.9384  136.8853  189.8407 C   0  0  0  0  0  0  0  0  0  0  0  0
  152.1358  135.0584  191.5126 N   0  0  0  0  0  0  0  0  0  0  0  0
  152.3655  133.8086  191.9379 C   0  0  0  0  0  0  0  0  0  0  0  0
  151.4110  133.1469  192.4467 O   0  0  0  0  0  0  0  0  0  0  0  0
  153.5768  133.2221  191.8462 N   0  0  0  0  0  0  0  0  0  0  0  0
  153.7795  131.8674  192.3206 C   0  0  0  0  0  0  0  0  0  0  0  0
  154.6327  133.8641  191.3184 C   0  0  0  0  0  0  0  0  0  0  0  0
  155.9114  133.5177  191.0980 N   0  0  0  0  0  0  0  0  0  0  0  0
  156.4913  134.5820  190.5221 C   0  0  0  0  0  0  0  0  0  0  0  0
  155.5828  135.5962  190.3805 N   0  0  0  0  0  0  0  0  0  0  0  0
  154.4122  135.1690  190.8704 C   0  0  0  0  0  0  0  0  0  0  0  0
  153.1735  135.7564  190.9680 C   0  0  0  0  0  0  0  0  0  0  0  0
  152.9691  136.9261  190.5644 O   0  0  0  0  0  0  0  0  0  0  0  0
  150.8139  135.6771  191.6207 C   0  0  0  0  0  0  0  0  0  0  0  0
  151.6213  137.0224  193.7198 C   0  0  0  0  0  0  0  0  0  0  0  0
  150.6417  136.1763  192.9969 C   0  0  0  0  0  0  0  0  0  0  0  0
  149.6218  135.8779  193.5950 O   0  0  0  0  0  0  0  0  0  0  0  0
 40 41  1  0  0  0
 41 42  2  0  0  0
 41 39  1  0  0  0
 39 27  1  0  0  0
 27 28  1  0  0  0
 28 29  2  0  0  0
 28 30  1  0  0  0
 30 31  1  0  0  0
 30 32  1  0  0  0
 32 33  1  0  0  0
 33 34  2  0  0  0
 34 35  1  0  0  0
 35 26  1  0  0  0
 26  1  1  0  0  0
  1  2  2  0  0  0
  1  3  1  0  0  0
  3  5  1  0  0  0
  5  6  2  0  0  0
  6  7  1  0  0  0
  7  8  2  0  0  0
  8  9  1  0  0  0
  9 10  2  0  0  0
  9 11  1  0  0  0
 11 12  2  0  0  0
 12 13  1  0  0  0
 13 14  2  0  0  0
 14 15  1  0  0  0
 15 16  2  0  0  0
 14 17  1  0  0  0
 17 18  1  0  0  0
 18 19  1  0  0  0
 19 20  1  0  0  0
 20 21  1  0  0  0
 21 22  1  0  0  0
 22 23  1  0  0  0
 22 24  1  0  0  0
 22 25  1  0  0  0
 35 36  1  0  0  0
 36 37  1  0  0  0
 37 38  2  0  0  0
 37 27  1  0  0  0
 36 32  2  0  0  0
 10  5  1  0  0  0
 16 11  1  0  0  0
 21 17  1  0  0  0
  3  4  1  0  0  0
M  END
> <minimizedAffinity>
-8.20396

> <CNNscore>
0.1414160877

> <CNNaffinity>
6.2437906265

> <CNN_VS>
0.8829724193

> <CNNaffinity_variance>
0.0756314322

$$$$
[H]c1nc(N2C([H])([H])C([H])([H])C([H])([H])[C@@]2([H])C(F)(F)F)nc([H])c1-c1nc(N([H])C(=O)C([H])([H])n2c([H])nc3c2c(=O)n(C([H])([H])C(=O)C([H])([H])[H])c(=O)n3C([H])([H])[H])c([H])c([H])c1[H]


 42 46  0  0  0  0  0  0  0  0999 V2000
  155.1441  137.7937  188.5930 C   0  0  0  0  0  0  0  0  0  0  0  0
  156.2105  137.8488  187.9385 O   0  0  0  0  0  0  0  0  0  0  0  0
  153.9052  137.8628  187.9698 N   0  0  0  0  0  0  0  0  0  0  0  0
  153.0279  137.8089  188.6096 H   0  0  0  0  0  0  0  0  0  0  0  0
  153.6237  137.9934  186.5880 C   0  0  0  0  0  0  0  0  0  0  0  0
  152.5131  137.4553  186.0161 C   0  0  0  0  0  0  0  0  0  0  0  0
  152.2967  137.6132  184.6332 C   0  0  0  0  0  0  0  0  0  0  0  0
  153.2362  138.3142  183.9275 C   0  0  0  0  0  0  0  0  0  0  0  0
  154.3595  138.8596  184.5001 C   0  0  0  0  0  0  0  0  0  0  0  0
  154.5321  138.6910  185.8105 N   0  0  0  0  0  0  0  0  0  0  0  0
  155.3507  139.6058  183.6991 C   0  0  0  0  0  0  0  0  0  0  0  0
  155.0331  140.5104  182.7246 C   0  0  0  0  0  0  0  0  0  0  0  0
  155.9813  141.1568  182.0269 N   0  0  0  0  0  0  0  0  0  0  0  0
  157.3283  140.9642  182.2330 C   0  0  0  0  0  0  0  0  0  0  0  0
  157.6132  140.0723  183.1942 N   0  0  0  0  0  0  0  0  0  0  0  0
  156.7044  139.4013  183.9184 C   0  0  0  0  0  0  0  0  0  0  0  0
  158.2714  141.6693  181.4735 N   0  0  0  0  0  0  0  0  0  0  0  0
  158.6345  141.3023  180.0916 C   0  0  0  0  0  0  0  0  0  0  0  0
  158.5247  142.6639  179.4245 C   0  0  0  0  0  0  0  0  0  0  0  0
  158.6949  143.6972  180.5410 C   0  0  0  0  0  0  0  0  0  0  0  0
  159.0753  142.7990  181.7194 C   0  0  0  0  0  0  0  0  0  0  0  0
  158.9756  143.5059  183.0164 C   0  0  0  0  0  0  0  0  0  0  0  0
  157.6090  143.8794  183.1307 F   0  0  0  0  0  0  0  0  0  0  0  0
  159.1889  142.7179  184.1270 F   0  0  0  0  0  0  0  0  0  0  0  0
  159.6416  144.7074  183.0452 F   0  0  0  0  0  0  0  0  0  0  0  0
  155.3350  137.6518  190.0695 C   0  0  0  0  0  0  0  0  0  0  0  0
  151.9555  134.8403  191.1948 N   0  0  0  0  0  0  0  0  0  0  0  0
  152.4450  133.6674  191.6194 C   0  0  0  0  0  0  0  0  0  0  0  0
  151.6381  132.7606  191.9860 O   0  0  0  0  0  0  0  0  0  0  0  0
  153.7681  133.4102  191.6731 N   0  0  0  0  0  0  0  0  0  0  0  0
  154.2528  132.1266  192.1408 C   0  0  0  0  0  0  0  0  0  0  0  0
  154.6797  134.3244  191.3006 C   0  0  0  0  0  0  0  0  0  0  0  0
  156.0213  134.3231  191.2405 N   0  0  0  0  0  0  0  0  0  0  0  0
  156.3739  135.5284  190.7675 C   0  0  0  0  0  0  0  0  0  0  0  0
  155.2596  136.2876  190.5309 N   0  0  0  0  0  0  0  0  0  0  0  0
  154.1875  135.5541  190.8557 C   0  0  0  0  0  0  0  0  0  0  0  0
  152.8372  135.8050  190.8043 C   0  0  0  0  0  0  0  0  0  0  0  0
  152.3898  136.9056  190.4026 O   0  0  0  0  0  0  0  0  0  0  0  0
  150.5161  135.0999  191.1437 C   0  0  0  0  0  0  0  0  0  0  0  0
  149.2568  134.6706  193.4015 C   0  0  0  0  0  0  0  0  0  0  0  0
  150.0663  135.5101  192.4862 C   0  0  0  0  0  0  0  0  0  0  0  0
  150.3772  136.6200  192.8842 O   0  0  0  0  0  0  0  0  0  0  0  0
 40 41  1  0  0  0
 41 42  2  0  0  0
 41 39  1  0  0  0
 39 27  1  0  0  0
 27 28  1  0  0  0
 28 29  2  0  0  0
 28 30  1  0  0  0
 30 31  1  0  0  0
 30 32  1  0  0  0
 32 33  1  0  0  0
 33 34  2  0  0  0
 34 35  1  0  0  0
 35 26  1  0  0  0
 26  1  1  0  0  0
  1  2  2  0  0  0
  1  3  1  0  0  0
  3  5  1  0  0  0
  5  6  2  0  0  0
  6  7  1  0  0  0
  7  8  2  0  0  0
  8  9  1  0  0  0
  9 10  2  0  0  0
  9 11  1  0  0  0
 11 12  2  0  0  0
 12 13  1  0  0  0
 13 14  2  0  0  0
 14 15  1  0  0  0
 15 16  2  0  0  0
 14 17  1  0  0  0
 17 18  1  0  0  0
 18 19  1  0  0  0
 19 20  1  0  0  0
 20 21  1  0  0  0
 21 22  1  0  0  0
 22 23  1  0  0  0
 22 24  1  0  0  0
 22 25  1  0  0  0
 35 36  1  0  0  0
 36 37  1  0  0  0
 37 38  2  0  0  0
 37 27  1  0  0  0
 36 32  2  0  0  0
 10  5  1  0  0  0
 16 11  1  0  0  0
 21 17  1  0  0  0
  3  4  1  0  0  0
M  END
> <minimizedAffinity>
-8.04551

> <CNNscore>
0.1323626339

> <CNNaffinity>
6.4195947647

> <CNN_VS>
0.8497144580

> <CNNaffinity_variance>
0.0319310650

$$$$
[H]c1nc([H])c(N([H])C(=O)[C@@]([H])(n2c([H])nc3c2c(=O)n(C([H])([H])C(=O)C([H])([H])[H])c(=O)n3C([H])([H])[H])C([H])([H])[H])nc1-c1c([H])nc(N2C([H])([H])C3([H])C([H])([H])C3([H])C2([H])[H])c([H])c1[H]


 40 45  0  0  0  0  0  0  0  0999 V2000
  155.9694  134.8721  188.6218 C   0  0  0  0  0  0  0  0  0  0  0  0
  156.4085  133.6034  188.3705 O   0  0  0  0  0  0  0  0  0  0  0  0
  155.1935  135.3156  187.5919 N   0  0  0  0  0  0  0  0  0  0  0  0
  155.0932  134.5344  186.7798 H   0  0  0  0  0  0  0  0  0  0  0  0
  154.4843  136.4594  187.1918 C   0  0  0  0  0  0  0  0  0  0  0  0
  153.2240  136.8387  187.5782 C   0  0  0  0  0  0  0  0  0  0  0  0
  152.6721  137.9530  187.0755 N   0  0  0  0  0  0  0  0  0  0  0  0
  153.3292  138.7303  186.1845 C   0  0  0  0  0  0  0  0  0  0  0  0
  154.5931  138.3986  185.7638 C   0  0  0  0  0  0  0  0  0  0  0  0
  155.1160  137.2924  186.2751 N   0  0  0  0  0  0  0  0  0  0  0  0
  155.3676  139.2013  184.7955 C   0  0  0  0  0  0  0  0  0  0  0  0
  154.8013  139.8102  183.7058 C   0  0  0  0  0  0  0  0  0  0  0  0
  155.6035  140.5583  182.8304 C   0  0  0  0  0  0  0  0  0  0  0  0
  156.9577  140.7075  183.0255 C   0  0  0  0  0  0  0  0  0  0  0  0
  157.4783  140.0957  184.1054 N   0  0  0  0  0  0  0  0  0  0  0  0
  156.7282  139.3735  184.9579 C   0  0  0  0  0  0  0  0  0  0  0  0
  157.7806  141.4673  182.1395 N   0  0  0  0  0  0  0  0  0  0  0  0
  158.4389  140.9731  180.9472 C   0  0  0  0  0  0  0  0  0  0  0  0
  158.1589  142.0845  179.9497 C   0  0  0  0  0  0  0  0  0  0  0  0
  159.1831  143.1387  179.8637 C   0  0  0  0  0  0  0  0  0  0  0  0
  158.0576  143.3504  180.7971 C   0  0  0  0  0  0  0  0  0  0  0  0
  158.1363  142.8682  182.2262 C   0  0  0  0  0  0  0  0  0  0  0  0
  157.1091  134.3543  190.8017 C   0  0  0  0  0  0  0  0  0  0  0  0
  156.4596  135.3657  189.9095 C   0  0  0  0  0  0  0  0  0  0  0  0
  155.5426  136.1967  190.6469 N   0  0  0  0  0  0  0  0  0  0  0  0
  155.6187  137.5013  190.8986 C   0  0  0  0  0  0  0  0  0  0  0  0
  154.5995  137.9631  191.6281 N   0  0  0  0  0  0  0  0  0  0  0  0
  153.8174  136.8772  191.8603 C   0  0  0  0  0  0  0  0  0  0  0  0
  152.6665  136.7339  192.5432 N   0  0  0  0  0  0  0  0  0  0  0  0
  152.0584  137.8837  193.1758 C   0  0  0  0  0  0  0  0  0  0  0  0
  152.1058  135.5193  192.6222 C   0  0  0  0  0  0  0  0  0  0  0  0
  151.0133  135.3546  193.2637 O   0  0  0  0  0  0  0  0  0  0  0  0
  152.6609  134.4431  192.0394 N   0  0  0  0  0  0  0  0  0  0  0  0
  153.8292  134.5381  191.3347 C   0  0  0  0  0  0  0  0  0  0  0  0
  154.3142  133.5045  190.8080 O   0  0  0  0  0  0  0  0  0  0  0  0
  154.4078  135.7807  191.2491 C   0  0  0  0  0  0  0  0  0  0  0  0
  152.0241  133.1465  192.1492 C   0  0  0  0  0  0  0  0  0  0  0  0
  152.6287  132.3212  193.2197 C   0  0  0  0  0  0  0  0  0  0  0  0
  153.2640  131.0050  192.9946 C   0  0  0  0  0  0  0  0  0  0  0  0
  152.5945  132.7652  194.3534 O   0  0  0  0  0  0  0  0  0  0  0  0
 23 24  1  0  0  0
 24  1  1  0  0  0
  1  2  2  0  0  0
  1  3  1  0  0  0
  3  5  1  0  0  0
  5  6  2  0  0  0
  6  7  1  0  0  0
  7  8  2  0  0  0
  8  9  1  0  0  0
  9 10  2  0  0  0
  9 11  1  0  0  0
 11 12  2  0  0  0
 12 13  1  0  0  0
 13 14  2  0  0  0
 14 15  1  0  0  0
 15 16  2  0  0  0
 14 17  1  0  0  0
 17 18  1  0  0  0
 18 19  1  0  0  0
 19 20  1  0  0  0
 20 21  1  0  0  0
 21 22  1  0  0  0
 24 25  1  0  0  0
 25 26  1  0  0  0
 26 27  2  0  0  0
 27 28  1  0  0  0
 28 29  1  0  0  0
 29 30  1  0  0  0
 29 31  1  0  0  0
 31 32  2  0  0  0
 31 33  1  0  0  0
 33 37  1  0  0  0
 37 38  1  0  0  0
 38 39  1  0  0  0
 38 40  2  0  0  0
 33 34  1  0  0  0
 34 35  2  0  0  0
 34 36  1  0  0  0
 10  5  1  0  0  0
 16 11  1  0  0  0
 22 17  1  0  0  0
 36 25  1  0  0  0
 21 19  1  0  0  0
 36 28  2  0  0  0
  3  4  1  0  0  0
M  END
> <minimizedAffinity>
-7.69219

> <CNNscore>
0.3073341846

> <CNNaffinity>
6.3724966049

> <CNN_VS>
1.9584860802

> <CNNaffinity_variance>
0.0731738284

$$$$
[H]c1nc([H])c(N([H])C(=O)[C@@]([H])(n2c([H])nc3c2c(=O)n(C([H])([H])C(=O)C([H])([H])[H])c(=O)n3C([H])([H])[H])C([H])([H])[H])nc1-c1c([H])nc(N2C([H])([H])C3([H])C([H])([H])C3([H])C2([H])[H])c([H])c1[H]


 40 45  0  0  0  0  0  0  0  0999 V2000
  154.2452  134.2694  183.7420 C   0  0  0  0  0  0  0  0  0  0  0  0
  153.8439  133.5970  182.6229 O   0  0  0  0  0  0  0  0  0  0  0  0
  153.7981  135.5570  183.7046 N   0  0  0  0  0  0  0  0  0  0  0  0
  153.2017  135.7636  182.7657 H   0  0  0  0  0  0  0  0  0  0  0  0
  153.8595  136.7415  184.4561 C   0  0  0  0  0  0  0  0  0  0  0  0
  154.0946  138.0119  183.9955 C   0  0  0  0  0  0  0  0  0  0  0  0
  154.1533  139.0399  184.8549 N   0  0  0  0  0  0  0  0  0  0  0  0
  153.9843  138.8628  186.1853 C   0  0  0  0  0  0  0  0  0  0  0  0
  153.7454  137.6131  186.7008 C   0  0  0  0  0  0  0  0  0  0  0  0
  153.6926  136.6139  185.8305 N   0  0  0  0  0  0  0  0  0  0  0  0
  153.5505  137.3481  188.1408 C   0  0  0  0  0  0  0  0  0  0  0  0
  154.3067  137.9390  189.1194 C   0  0  0  0  0  0  0  0  0  0  0  0
  154.0606  137.6373  190.4677 C   0  0  0  0  0  0  0  0  0  0  0  0
  153.0744  136.7579  190.8527 C   0  0  0  0  0  0  0  0  0  0  0  0
  152.3525  136.1973  189.8647 N   0  0  0  0  0  0  0  0  0  0  0  0
  152.5712  136.4719  188.5655 C   0  0  0  0  0  0  0  0  0  0  0  0
  152.8177  136.4460  192.2225 N   0  0  0  0  0  0  0  0  0  0  0  0
  151.9569  137.1866  193.1225 C   0  0  0  0  0  0  0  0  0  0  0  0
  151.1962  136.0710  193.8193 C   0  0  0  0  0  0  0  0  0  0  0  0
  151.7895  135.5806  195.0745 C   0  0  0  0  0  0  0  0  0  0  0  0
  152.1606  134.8873  193.8236 C   0  0  0  0  0  0  0  0  0  0  0  0
  153.3438  135.3476  193.0056 C   0  0  0  0  0  0  0  0  0  0  0  0
  155.6314  132.1902  184.0149 C   0  0  0  0  0  0  0  0  0  0  0  0
  155.0255  133.4109  184.6343 C   0  0  0  0  0  0  0  0  0  0  0  0
  154.4061  133.1002  185.8972 N   0  0  0  0  0  0  0  0  0  0  0  0
  153.2776  132.4346  186.1300 C   0  0  0  0  0  0  0  0  0  0  0  0
  152.9779  132.3321  187.4277 N   0  0  0  0  0  0  0  0  0  0  0  0
  153.9851  132.9788  188.0697 C   0  0  0  0  0  0  0  0  0  0  0  0
  154.2123  133.2050  189.3768 N   0  0  0  0  0  0  0  0  0  0  0  0
  153.2834  132.7025  190.3651 C   0  0  0  0  0  0  0  0  0  0  0  0
  155.3028  133.8964  189.7358 C   0  0  0  0  0  0  0  0  0  0  0  0
  155.5432  134.1254  190.9694 O   0  0  0  0  0  0  0  0  0  0  0  0
  156.1732  134.3690  188.8274 N   0  0  0  0  0  0  0  0  0  0  0  0
  155.9859  134.1647  187.4881 C   0  0  0  0  0  0  0  0  0  0  0  0
  156.8246  134.6272  186.6734 O   0  0  0  0  0  0  0  0  0  0  0  0
  154.8707  133.4556  187.1143 C   0  0  0  0  0  0  0  0  0  0  0  0
  157.3398  135.1133  189.2561 C   0  0  0  0  0  0  0  0  0  0  0  0
  158.5589  134.2729  189.2697 C   0  0  0  0  0  0  0  0  0  0  0  0
  159.6652  134.3990  188.2966 C   0  0  0  0  0  0  0  0  0  0  0  0
  158.6445  133.4277  190.1426 O   0  0  0  0  0  0  0  0  0  0  0  0
 23 24  1  0  0  0
 24  1  1  0  0  0
  1  2  2  0  0  0
  1  3  1  0  0  0
  3  5  1  0  0  0
  5  6  2  0  0  0
  6  7  1  0  0  0
  7  8  2  0  0  0
  8  9  1  0  0  0
  9 10  2  0  0  0
  9 11  1  0  0  0
 11 12  2  0  0  0
 12 13  1  0  0  0
 13 14  2  0  0  0
 14 15  1  0  0  0
 15 16  2  0  0  0
 14 17  1  0  0  0
 17 18  1  0  0  0
 18 19  1  0  0  0
 19 20  1  0  0  0
 20 21  1  0  0  0
 21 22  1  0  0  0
 24 25  1  0  0  0
 25 26  1  0  0  0
 26 27  2  0  0  0
 27 28  1  0  0  0
 28 29  1  0  0  0
 29 30  1  0  0  0
 29 31  1  0  0  0
 31 32  2  0  0  0
 31 33  1  0  0  0
 33 37  1  0  0  0
 37 38  1  0  0  0
 38 39  1  0  0  0
 38 40  2  0  0  0
 33 34  1  0  0  0
 34 35  2  0  0  0
 34 36  1  0  0  0
 10  5  1  0  0  0
 16 11  1  0  0  0
 22 17  1  0  0  0
 36 25  1  0  0  0
 21 19  1  0  0  0
 36 28  2  0  0  0
  3  4  1  0  0  0
M  END
> <minimizedAffinity>
-5.54403

> <CNNscore>
0.2526035011

> <CNNaffinity>
5.8394937515

> <CNN_VS>
1.4750765562

> <CNNaffinity_variance>
0.7879801989

$$$$
[H]c1nc([H])c(N([H])C(=O)[C@@]([H])(n2c([H])nc3c2c(=O)n(C([H])([H])C(=O)C([H])([H])[H])c(=O)n3C([H])([H])[H])C([H])([H])[H])nc1-c1c([H])nc(N2C([H])([H])C3([H])C([H])([H])C3([H])C2([H])[H])c([H])c1[H]


 40 45  0  0  0  0  0  0  0  0999 V2000
  151.0671  133.7611  189.5895 C   0  0  0  0  0  0  0  0  0  0  0  0
  150.0159  132.9458  189.8989 O   0  0  0  0  0  0  0  0  0  0  0  0
  150.8811  134.3256  188.3623 N   0  0  0  0  0  0  0  0  0  0  0  0
  149.9066  133.9925  187.8941 H   0  0  0  0  0  0  0  0  0  0  0  0
  151.5309  135.1844  187.4614 C   0  0  0  0  0  0  0  0  0  0  0  0
  151.3508  136.5367  187.3186 C   0  0  0  0  0  0  0  0  0  0  0  0
  152.0324  137.2117  186.3811 N   0  0  0  0  0  0  0  0  0  0  0  0
  152.9083  136.5924  185.5571 C   0  0  0  0  0  0  0  0  0  0  0  0
  153.1281  135.2410  185.6566 C   0  0  0  0  0  0  0  0  0  0  0  0
  152.4418  134.5968  186.5907 N   0  0  0  0  0  0  0  0  0  0  0  0
  154.0696  134.5016  184.7914 C   0  0  0  0  0  0  0  0  0  0  0  0
  155.0352  133.6617  185.2824 C   0  0  0  0  0  0  0  0  0  0  0  0
  155.8929  132.9924  184.3959 C   0  0  0  0  0  0  0  0  0  0  0  0
  155.8017  133.1480  183.0315 C   0  0  0  0  0  0  0  0  0  0  0  0
  154.8422  133.9803  182.5863 N   0  0  0  0  0  0  0  0  0  0  0  0
  154.0090  134.6323  183.4178 C   0  0  0  0  0  0  0  0  0  0  0  0
  156.6706  132.4703  182.1230 N   0  0  0  0  0  0  0  0  0  0  0  0
  156.9395  132.8502  180.7509 C   0  0  0  0  0  0  0  0  0  0  0  0
  158.4476  132.6841  180.6684 C   0  0  0  0  0  0  0  0  0  0  0  0
  158.9210  131.3674  180.2102 C   0  0  0  0  0  0  0  0  0  0  0  0
  158.7710  131.5740  181.6655 C   0  0  0  0  0  0  0  0  0  0  0  0
  157.4613  131.2803  182.3578 C   0  0  0  0  0  0  0  0  0  0  0  0
  151.7262  133.0065  191.8950 C   0  0  0  0  0  0  0  0  0  0  0  0
  152.0648  133.7819  190.6601 C   0  0  0  0  0  0  0  0  0  0  0  0
  152.5956  135.0798  190.9904 N   0  0  0  0  0  0  0  0  0  0  0  0
  152.1125  135.9867  191.8359 C   0  0  0  0  0  0  0  0  0  0  0  0
  152.8482  137.0999  191.9003 N   0  0  0  0  0  0  0  0  0  0  0  0
  153.8731  136.8902  191.0340 C   0  0  0  0  0  0  0  0  0  0  0  0
  154.9150  137.6641  190.6777 N   0  0  0  0  0  0  0  0  0  0  0  0
  155.0747  138.9727  191.2729 C   0  0  0  0  0  0  0  0  0  0  0  0
  155.7877  137.2010  189.7722 C   0  0  0  0  0  0  0  0  0  0  0  0
  156.7859  137.9143  189.4160 O   0  0  0  0  0  0  0  0  0  0  0  0
  155.6503  135.9873  189.2116 N   0  0  0  0  0  0  0  0  0  0  0  0
  154.6088  135.1645  189.5413 C   0  0  0  0  0  0  0  0  0  0  0  0
  154.5181  134.0381  188.9898 O   0  0  0  0  0  0  0  0  0  0  0  0
  153.7119  135.6332  190.4698 C   0  0  0  0  0  0  0  0  0  0  0  0
  156.6147  135.5235  188.2352 C   0  0  0  0  0  0  0  0  0  0  0  0
  157.7801  134.8709  188.8743 C   0  0  0  0  0  0  0  0  0  0  0  0
  159.0893  134.6783  188.2142 C   0  0  0  0  0  0  0  0  0  0  0  0
  157.6394  134.4716  190.0164 O   0  0  0  0  0  0  0  0  0  0  0  0
 23 24  1  0  0  0
 24  1  1  0  0  0
  1  2  2  0  0  0
  1  3  1  0  0  0
  3  5  1  0  0  0
  5  6  2  0  0  0
  6  7  1  0  0  0
  7  8  2  0  0  0
  8  9  1  0  0  0
  9 10  2  0  0  0
  9 11  1  0  0  0
 11 12  2  0  0  0
 12 13  1  0  0  0
 13 14  2  0  0  0
 14 15  1  0  0  0
 15 16  2  0  0  0
 14 17  1  0  0  0
 17 18  1  0  0  0
 18 19  1  0  0  0
 19 20  1  0  0  0
 20 21  1  0  0  0
 21 22  1  0  0  0
 24 25  1  0  0  0
 25 26  1  0  0  0
 26 27  2  0  0  0
 27 28  1  0  0  0
 28 29  1  0  0  0
 29 30  1  0  0  0
 29 31  1  0  0  0
 31 32  2  0  0  0
 31 33  1  0  0  0
 33 37  1  0  0  0
 37 38  1  0  0  0
 38 39  1  0  0  0
 38 40  2  0  0  0
 33 34  1  0  0  0
 34 35  2  0  0  0
 34 36  1  0  0  0
 10  5  1  0  0  0
 16 11  1  0  0  0
 22 17  1  0  0  0
 36 25  1  0  0  0
 21 19  1  0  0  0
 36 28  2  0  0  0
  3  4  1  0  0  0
M  END
> <minimizedAffinity>
-5.90011

> <CNNscore>
0.2404366732

> <CNNaffinity>
5.7556433678

> <CNN_VS>
1.3838677406

> <CNNaffinity_variance>
0.2906392813

$$$$
[H]c1nc([H])c(N([H])C(=O)[C@@]([H])(n2c([H])nc3c2c(=O)n(C([H])([H])C(=O)C([H])([H])[H])c(=O)n3C([H])([H])[H])C([H])([H])[H])nc1-c1c([H])nc(N2C([H])([H])C3([H])C([H])([H])C3([H])C2([H])[H])c([H])c1[H]


 40 45  0  0  0  0  0  0  0  0999 V2000
  150.9324  136.9438  185.4718 C   0  0  0  0  0  0  0  0  0  0  0  0
  149.6344  137.1312  185.8530 O   0  0  0  0  0  0  0  0  0  0  0  0
  151.7786  137.3792  186.4483 N   0  0  0  0  0  0  0  0  0  0  0  0
  151.2122  137.7863  187.3390 H   0  0  0  0  0  0  0  0  0  0  0  0
  153.1530  137.5121  186.7030 C   0  0  0  0  0  0  0  0  0  0  0  0
  153.8576  137.0112  187.7680 C   0  0  0  0  0  0  0  0  0  0  0  0
  155.1714  137.2562  187.8816 N   0  0  0  0  0  0  0  0  0  0  0  0
  155.8374  137.9935  186.9637 C   0  0  0  0  0  0  0  0  0  0  0  0
  155.1822  138.5185  185.8776 C   0  0  0  0  0  0  0  0  0  0  0  0
  153.8840  138.2623  185.7887 N   0  0  0  0  0  0  0  0  0  0  0  0
  155.8466  139.3305  184.8380 C   0  0  0  0  0  0  0  0  0  0  0  0
  157.1705  139.6808  184.8946 C   0  0  0  0  0  0  0  0  0  0  0  0
  157.7312  140.4543  183.8666 C   0  0  0  0  0  0  0  0  0  0  0  0
  156.9930  140.8820  182.7866 C   0  0  0  0  0  0  0  0  0  0  0  0
  155.6971  140.5189  182.7652 N   0  0  0  0  0  0  0  0  0  0  0  0
  155.1387  139.7779  183.7398 C   0  0  0  0  0  0  0  0  0  0  0  0
  157.5564  141.6691  181.7365 N   0  0  0  0  0  0  0  0  0  0  0  0
  157.3797  143.0944  181.5457 C   0  0  0  0  0  0  0  0  0  0  0  0
  158.7926  143.5450  181.2150 C   0  0  0  0  0  0  0  0  0  0  0  0
  159.1347  143.5753  179.7833 C   0  0  0  0  0  0  0  0  0  0  0  0
  159.4354  142.3390  180.5344 C   0  0  0  0  0  0  0  0  0  0  0  0
  158.4107  141.2357  180.6507 C   0  0  0  0  0  0  0  0  0  0  0  0
  151.9155  135.1435  184.0187 C   0  0  0  0  0  0  0  0  0  0  0  0
  151.0203  136.3368  184.1429 C   0  0  0  0  0  0  0  0  0  0  0  0
  151.2239  137.2552  183.0518 N   0  0  0  0  0  0  0  0  0  0  0  0
  152.2222  138.1142  182.8614 C   0  0  0  0  0  0  0  0  0  0  0  0
  152.0996  138.8335  181.7425 N   0  0  0  0  0  0  0  0  0  0  0  0
  150.9406  138.4051  181.1786 C   0  0  0  0  0  0  0  0  0  0  0  0
  150.3053  138.7737  180.0507 N   0  0  0  0  0  0  0  0  0  0  0  0
  150.8793  139.7966  179.2044 C   0  0  0  0  0  0  0  0  0  0  0  0
  149.1461  138.1799  179.7352 C   0  0  0  0  0  0  0  0  0  0  0  0
  148.5221  138.5102  178.6704 O   0  0  0  0  0  0  0  0  0  0  0  0
  148.6022  137.2287  180.5132 N   0  0  0  0  0  0  0  0  0  0  0  0
  149.2098  136.8201  181.6684 C   0  0  0  0  0  0  0  0  0  0  0  0
  148.6636  135.9287  182.3671 O   0  0  0  0  0  0  0  0  0  0  0  0
  150.3988  137.4242  181.9963 C   0  0  0  0  0  0  0  0  0  0  0  0
  147.3463  136.6118  180.1378 C   0  0  0  0  0  0  0  0  0  0  0  0
  147.5235  135.5978  179.0734 C   0  0  0  0  0  0  0  0  0  0  0  0
  146.7435  135.5675  177.8174 C   0  0  0  0  0  0  0  0  0  0  0  0
  148.3682  134.7394  179.2554 O   0  0  0  0  0  0  0  0  0  0  0  0
 23 24  1  0  0  0
 24  1  1  0  0  0
  1  2  2  0  0  0
  1  3  1  0  0  0
  3  5  1  0  0  0
  5  6  2  0  0  0
  6  7  1  0  0  0
  7  8  2  0  0  0
  8  9  1  0  0  0
  9 10  2  0  0  0
  9 11  1  0  0  0
 11 12  2  0  0  0
 12 13  1  0  0  0
 13 14  2  0  0  0
 14 15  1  0  0  0
 15 16  2  0  0  0
 14 17  1  0  0  0
 17 18  1  0  0  0
 18 19  1  0  0  0
 19 20  1  0  0  0
 20 21  1  0  0  0
 21 22  1  0  0  0
 24 25  1  0  0  0
 25 26  1  0  0  0
 26 27  2  0  0  0
 27 28  1  0  0  0
 28 29  1  0  0  0
 29 30  1  0  0  0
 29 31  1  0  0  0
 31 32  2  0  0  0
 31 33  1  0  0  0
 33 37  1  0  0  0
 37 38  1  0  0  0
 38 39  1  0  0  0
 38 40  2  0  0  0
 33 34  1  0  0  0
 34 35  2  0  0  0
 34 36  1  0  0  0
 10  5  1  0  0  0
 16 11  1  0  0  0
 22 17  1  0  0  0
 36 25  1  0  0  0
 21 19  1  0  0  0
 36 28  2  0  0  0
  3  4  1  0  0  0
M  END
> <minimizedAffinity>
-7.75559

> <CNNscore>
0.2224873751

> <CNNaffinity>
6.5478754044

> <CNN_VS>
1.4568196535

> <CNNaffinity_variance>
0.1493657529

$$$$
[H]c1nc([H])c(N([H])C(=O)[C@@]([H])(n2c([H])nc3c2c(=O)n(C([H])([H])C(=O)C([H])([H])[H])c(=O)n3C([H])([H])[H])C([H])([H])[H])nc1-c1c([H])nc(N2C([H])([H])C3([H])C([H])([H])C3([H])C2([H])[H])c([H])c1[H]


 40 45  0  0  0  0  0  0  0  0999 V2000
  151.8366  136.1386  185.0210 C   0  0  0  0  0  0  0  0  0  0  0  0
  151.8405  134.7751  184.9418 O   0  0  0  0  0  0  0  0  0  0  0  0
  152.3155  136.6798  183.8648 N   0  0  0  0  0  0  0  0  0  0  0  0
  152.5977  135.8799  183.1162 H   0  0  0  0  0  0  0  0  0  0  0  0
  152.6016  137.9324  183.2987 C   0  0  0  0  0  0  0  0  0  0  0  0
  151.8538  138.6247  182.3804 C   0  0  0  0  0  0  0  0  0  0  0  0
  152.2860  139.8048  181.9119 N   0  0  0  0  0  0  0  0  0  0  0  0
  153.4558  140.3457  182.3228 C   0  0  0  0  0  0  0  0  0  0  0  0
  154.2436  139.6966  183.2408 C   0  0  0  0  0  0  0  0  0  0  0  0
  153.7943  138.5318  183.6879 N   0  0  0  0  0  0  0  0  0  0  0  0
  155.5301  140.2293  183.7336 C   0  0  0  0  0  0  0  0  0  0  0  0
  156.0047  141.4701  183.3961 C   0  0  0  0  0  0  0  0  0  0  0  0
  157.2369  141.9072  183.9061 C   0  0  0  0  0  0  0  0  0  0  0  0
  157.9999  141.1273  184.7450 C   0  0  0  0  0  0  0  0  0  0  0  0
  157.5021  139.9156  185.0542 N   0  0  0  0  0  0  0  0  0  0  0  0
  156.3232  139.4761  184.5768 C   0  0  0  0  0  0  0  0  0  0  0  0
  159.2546  141.5650  185.2683 N   0  0  0  0  0  0  0  0  0  0  0  0
  160.5017  141.6583  184.5367 C   0  0  0  0  0  0  0  0  0  0  0  0
  161.0347  143.0057  184.9941 C   0  0  0  0  0  0  0  0  0  0  0  0
  161.9283  142.9754  186.1638 C   0  0  0  0  0  0  0  0  0  0  0  0
  160.4856  143.1807  186.4079 C   0  0  0  0  0  0  0  0  0  0  0  0
  159.5606  142.0047  186.6135 C   0  0  0  0  0  0  0  0  0  0  0  0
  150.0335  137.3605  186.2760 C   0  0  0  0  0  0  0  0  0  0  0  0
  151.3229  136.6008  186.3112 C   0  0  0  0  0  0  0  0  0  0  0  0
  152.2839  137.2472  187.1678 N   0  0  0  0  0  0  0  0  0  0  0  0
  153.0716  138.2861  186.9010 C   0  0  0  0  0  0  0  0  0  0  0  0
  153.8617  138.6311  187.9213 N   0  0  0  0  0  0  0  0  0  0  0  0
  153.5587  137.7502  188.9096 C   0  0  0  0  0  0  0  0  0  0  0  0
  154.0404  137.6067  190.1581 N   0  0  0  0  0  0  0  0  0  0  0  0
  155.0624  138.5088  190.6420 C   0  0  0  0  0  0  0  0  0  0  0  0
  153.5585  136.6234  190.9306 C   0  0  0  0  0  0  0  0  0  0  0  0
  153.9975  136.4647  192.1198 O   0  0  0  0  0  0  0  0  0  0  0  0
  152.6095  135.7786  190.4928 N   0  0  0  0  0  0  0  0  0  0  0  0
  152.0886  135.8841  189.2327 C   0  0  0  0  0  0  0  0  0  0  0  0
  151.2039  135.0701  188.8640 O   0  0  0  0  0  0  0  0  0  0  0  0
  152.5777  136.8908  188.4368 C   0  0  0  0  0  0  0  0  0  0  0  0
  152.1156  134.7273  191.3586 C   0  0  0  0  0  0  0  0  0  0  0  0
  150.8259  135.0894  191.9896 C   0  0  0  0  0  0  0  0  0  0  0  0
  150.5633  136.3811  192.6600 C   0  0  0  0  0  0  0  0  0  0  0  0
  149.9324  134.2628  191.9474 O   0  0  0  0  0  0  0  0  0  0  0  0
 23 24  1  0  0  0
 24  1  1  0  0  0
  1  2  2  0  0  0
  1  3  1  0  0  0
  3  5  1  0  0  0
  5  6  2  0  0  0
  6  7  1  0  0  0
  7  8  2  0  0  0
  8  9  1  0  0  0
  9 10  2  0  0  0
  9 11  1  0  0  0
 11 12  2  0  0  0
 12 13  1  0  0  0
 13 14  2  0  0  0
 14 15  1  0  0  0
 15 16  2  0  0  0
 14 17  1  0  0  0
 17 18  1  0  0  0
 18 19  1  0  0  0
 19 20  1  0  0  0
 20 21  1  0  0  0
 21 22  1  0  0  0
 24 25  1  0  0  0
 25 26  1  0  0  0
 26 27  2  0  0  0
 27 28  1  0  0  0
 28 29  1  0  0  0
 29 30  1  0  0  0
 29 31  1  0  0  0
 31 32  2  0  0  0
 31 33  1  0  0  0
 33 37  1  0  0  0
 37 38  1  0  0  0
 38 39  1  0  0  0
 38 40  2  0  0  0
 33 34  1  0  0  0
 34 35  2  0  0  0
 34 36  1  0  0  0
 10  5  1  0  0  0
 16 11  1  0  0  0
 22 17  1  0  0  0
 36 25  1  0  0  0
 21 19  1  0  0  0
 36 28  2  0  0  0
  3  4  1  0  0  0
M  END
> <minimizedAffinity>
-8.67664

> <CNNscore>
0.2167537510

> <CNNaffinity>
6.4721693993

> <CNN_VS>
1.4028669596

> <CNNaffinity_variance>
0.3380122781

$$$$
[H]c1nc([H])c(N([H])C(=O)[C@@]([H])(n2c([H])nc3c2c(=O)n(C([H])([H])C(=O)C([H])([H])[H])c(=O)n3C([H])([H])[H])C([H])([H])[H])nc1-c1c([H])nc(N2C([H])([H])C3([H])C([H])([H])C3([H])C2([H])[H])c([H])c1[H]


 40 45  0  0  0  0  0  0  0  0999 V2000
  151.0563  139.3466  179.8934 C   0  0  0  0  0  0  0  0  0  0  0  0
  151.1877  140.1632  178.8065 O   0  0  0  0  0  0  0  0  0  0  0  0
  152.1183  139.5052  180.7339 N   0  0  0  0  0  0  0  0  0  0  0  0
  152.8506  140.2719  180.3393 H   0  0  0  0  0  0  0  0  0  0  0  0
  152.6213  138.9978  181.9426 C   0  0  0  0  0  0  0  0  0  0  0  0
  152.0923  137.9924  182.7113 C   0  0  0  0  0  0  0  0  0  0  0  0
  152.6820  137.6450  183.8647 N   0  0  0  0  0  0  0  0  0  0  0  0
  153.8022  138.2637  184.3031 C   0  0  0  0  0  0  0  0  0  0  0  0
  154.3748  139.2757  183.5735 C   0  0  0  0  0  0  0  0  0  0  0  0
  153.7724  139.6005  182.4375 N   0  0  0  0  0  0  0  0  0  0  0  0
  155.5966  139.9927  183.9916 C   0  0  0  0  0  0  0  0  0  0  0  0
  156.5799  139.4151  184.7521 C   0  0  0  0  0  0  0  0  0  0  0  0
  157.7136  140.1613  185.1088 C   0  0  0  0  0  0  0  0  0  0  0  0
  157.8804  141.4707  184.7192 C   0  0  0  0  0  0  0  0  0  0  0  0
  156.8948  142.0041  183.9738 N   0  0  0  0  0  0  0  0  0  0  0  0
  155.7991  141.3073  183.6201 C   0  0  0  0  0  0  0  0  0  0  0  0
  159.0312  142.2365  185.0779 N   0  0  0  0  0  0  0  0  0  0  0  0
  159.5303  142.4543  186.4205 C   0  0  0  0  0  0  0  0  0  0  0  0
  161.0248  142.2499  186.2377 C   0  0  0  0  0  0  0  0  0  0  0  0
  161.8039  143.4637  185.9417 C   0  0  0  0  0  0  0  0  0  0  0  0
  161.3014  142.6752  184.7977 C   0  0  0  0  0  0  0  0  0  0  0  0
  159.9396  142.9516  184.2061 C   0  0  0  0  0  0  0  0  0  0  0  0
  149.0616  138.6296  178.5422 C   0  0  0  0  0  0  0  0  0  0  0  0
  149.8258  138.5570  179.8273 C   0  0  0  0  0  0  0  0  0  0  0  0
  148.9470  138.6785  180.9623 N   0  0  0  0  0  0  0  0  0  0  0  0
  148.2997  139.7544  181.4031 C   0  0  0  0  0  0  0  0  0  0  0  0
  147.5706  139.5255  182.4987 N   0  0  0  0  0  0  0  0  0  0  0  0
  147.7666  138.2110  182.7788 C   0  0  0  0  0  0  0  0  0  0  0  0
  147.2959  137.4275  183.7667 N   0  0  0  0  0  0  0  0  0  0  0  0
  146.4017  137.9820  184.7593 C   0  0  0  0  0  0  0  0  0  0  0  0
  147.6694  136.1412  183.8087 C   0  0  0  0  0  0  0  0  0  0  0  0
  147.2375  135.3749  184.7352 O   0  0  0  0  0  0  0  0  0  0  0  0
  148.4998  135.6140  182.8929 N   0  0  0  0  0  0  0  0  0  0  0  0
  149.0041  136.3694  181.8704 C   0  0  0  0  0  0  0  0  0  0  0  0
  149.7800  135.8353  181.0375 O   0  0  0  0  0  0  0  0  0  0  0  0
  148.6237  137.6882  181.8214 C   0  0  0  0  0  0  0  0  0  0  0  0
  148.8810  134.2188  182.9741 C   0  0  0  0  0  0  0  0  0  0  0  0
  150.2481  134.0486  183.5170 C   0  0  0  0  0  0  0  0  0  0  0  0
  150.7196  134.6503  184.7828 C   0  0  0  0  0  0  0  0  0  0  0  0
  151.0244  133.3677  182.8710 O   0  0  0  0  0  0  0  0  0  0  0  0
 23 24  1  0  0  0
 24  1  1  0  0  0
  1  2  2  0  0  0
  1  3  1  0  0  0
  3  5  1  0  0  0
  5  6  2  0  0  0
  6  7  1  0  0  0
  7  8  2  0  0  0
  8  9  1  0  0  0
  9 10  2  0  0  0
  9 11  1  0  0  0
 11 12  2  0  0  0
 12 13  1  0  0  0
 13 14  2  0  0  0
 14 15  1  0  0  0
 15 16  2  0  0  0
 14 17  1  0  0  0
 17 18  1  0  0  0
 18 19  1  0  0  0
 19 20  1  0  0  0
 20 21  1  0  0  0
 21 22  1  0  0  0
 24 25  1  0  0  0
 25 26  1  0  0  0
 26 27  2  0  0  0
 27 28  1  0  0  0
 28 29  1  0  0  0
 29 30  1  0  0  0
 29 31  1  0  0  0
 31 32  2  0  0  0
 31 33  1  0  0  0
 33 37  1  0  0  0
 37 38  1  0  0  0
 38 39  1  0  0  0
 38 40  2  0  0  0
 33 34  1  0  0  0
 34 35  2  0  0  0
 34 36  1  0  0  0
 10  5  1  0  0  0
 16 11  1  0  0  0
 22 17  1  0  0  0
 36 25  1  0  0  0
 21 19  1  0  0  0
 36 28  2  0  0  0
  3  4  1  0  0  0
M  END
> <minimizedAffinity>
-8.00246

> <CNNscore>
0.2137687802

> <CNNaffinity>
6.4339089394

> <CNN_VS>
1.3753688335

> <CNNaffinity_variance>
0.1472806185

$$$$
[H]c1nc([H])c(N([H])C(=O)[C@@]([H])(n2c([H])nc3c2c(=O)n(C([H])([H])C(=O)C([H])([H])[H])c(=O)n3C([H])([H])[H])C([H])([H])[H])nc1-c1c([H])nc(N2C([H])([H])C3([H])C([H])([H])C3([H])C2([H])[H])c([H])c1[H]


 40 45  0  0  0  0  0  0  0  0999 V2000
  152.6167  138.5076  182.8655 C   0  0  0  0  0  0  0  0  0  0  0  0
  153.1879  139.1749  181.8196 O   0  0  0  0  0  0  0  0  0  0  0  0
  151.3640  138.0868  182.5291 N   0  0  0  0  0  0  0  0  0  0  0  0
  151.0955  138.3831  181.4707 H   0  0  0  0  0  0  0  0  0  0  0  0
  150.2668  137.4131  183.0889 C   0  0  0  0  0  0  0  0  0  0  0  0
  149.1061  137.0400  182.4604 C   0  0  0  0  0  0  0  0  0  0  0  0
  148.1336  136.4261  183.1506 N   0  0  0  0  0  0  0  0  0  0  0  0
  148.2618  136.1566  184.4699 C   0  0  0  0  0  0  0  0  0  0  0  0
  149.4023  136.5070  185.1489 C   0  0  0  0  0  0  0  0  0  0  0  0
  150.3482  137.1130  184.4441 N   0  0  0  0  0  0  0  0  0  0  0  0
  149.6094  136.2426  186.5872 C   0  0  0  0  0  0  0  0  0  0  0  0
  148.5793  136.0099  187.4612 C   0  0  0  0  0  0  0  0  0  0  0  0
  148.8561  135.7648  188.8150 C   0  0  0  0  0  0  0  0  0  0  0  0
  150.1409  135.7483  189.3081 C   0  0  0  0  0  0  0  0  0  0  0  0
  151.1261  135.9808  188.4209 N   0  0  0  0  0  0  0  0  0  0  0  0
  150.8839  136.2181  187.1186 C   0  0  0  0  0  0  0  0  0  0  0  0
  150.4307  135.4995  190.6842 N   0  0  0  0  0  0  0  0  0  0  0  0
  151.4901  136.1113  191.4603 C   0  0  0  0  0  0  0  0  0  0  0  0
  150.7761  136.4448  192.7594 C   0  0  0  0  0  0  0  0  0  0  0  0
  150.8443  135.4140  193.8085 C   0  0  0  0  0  0  0  0  0  0  0  0
  149.6885  135.3811  192.8887 C   0  0  0  0  0  0  0  0  0  0  0  0
  149.7506  134.6032  191.5956 C   0  0  0  0  0  0  0  0  0  0  0  0
  154.7132  139.3423  183.9730 C   0  0  0  0  0  0  0  0  0  0  0  0
  153.5150  138.4463  184.0193 C   0  0  0  0  0  0  0  0  0  0  0  0
  153.8728  137.1220  184.4592 N   0  0  0  0  0  0  0  0  0  0  0  0
  154.0214  136.0155  183.7351 C   0  0  0  0  0  0  0  0  0  0  0  0
  154.3490  134.9435  184.4618 N   0  0  0  0  0  0  0  0  0  0  0  0
  154.4132  135.3964  185.7407 C   0  0  0  0  0  0  0  0  0  0  0  0
  154.6897  134.7686  186.8986 N   0  0  0  0  0  0  0  0  0  0  0  0
  154.9999  133.3558  186.8937 C   0  0  0  0  0  0  0  0  0  0  0  0
  154.6710  135.4724  188.0389 C   0  0  0  0  0  0  0  0  0  0  0  0
  154.9300  134.9019  189.1523 O   0  0  0  0  0  0  0  0  0  0  0  0
  154.3839  136.7851  188.0570 N   0  0  0  0  0  0  0  0  0  0  0  0
  154.0968  137.4671  186.9068 C   0  0  0  0  0  0  0  0  0  0  0  0
  153.8312  138.6945  186.9709 O   0  0  0  0  0  0  0  0  0  0  0  0
  154.1157  136.7513  185.7348 C   0  0  0  0  0  0  0  0  0  0  0  0
  154.3727  137.5103  189.3111 C   0  0  0  0  0  0  0  0  0  0  0  0
  155.7409  137.8287  189.7791 C   0  0  0  0  0  0  0  0  0  0  0  0
  156.2267  137.5815  191.1538 C   0  0  0  0  0  0  0  0  0  0  0  0
  156.5056  138.3255  188.9716 O   0  0  0  0  0  0  0  0  0  0  0  0
 23 24  1  0  0  0
 24  1  1  0  0  0
  1  2  2  0  0  0
  1  3  1  0  0  0
  3  5  1  0  0  0
  5  6  2  0  0  0
  6  7  1  0  0  0
  7  8  2  0  0  0
  8  9  1  0  0  0
  9 10  2  0  0  0
  9 11  1  0  0  0
 11 12  2  0  0  0
 12 13  1  0  0  0
 13 14  2  0  0  0
 14 15  1  0  0  0
 15 16  2  0  0  0
 14 17  1  0  0  0
 17 18  1  0  0  0
 18 19  1  0  0  0
 19 20  1  0  0  0
 20 21  1  0  0  0
 21 22  1  0  0  0
 24 25  1  0  0  0
 25 26  1  0  0  0
 26 27  2  0  0  0
 27 28  1  0  0  0
 28 29  1  0  0  0
 29 30  1  0  0  0
 29 31  1  0  0  0
 31 32  2  0  0  0
 31 33  1  0  0  0
 33 37  1  0  0  0
 37 38  1  0  0  0
 38 39  1  0  0  0
 38 40  2  0  0  0
 33 34  1  0  0  0
 34 35  2  0  0  0
 34 36  1  0  0  0
 10  5  1  0  0  0
 16 11  1  0  0  0
 22 17  1  0  0  0
 36 25  1  0  0  0
 21 19  1  0  0  0
 36 28  2  0  0  0
  3  4  1  0  0  0
M  END
> <minimizedAffinity>
-5.90380

> <CNNscore>
0.2076402754

> <CNNaffinity>
5.9071149826

> <CNN_VS>
1.2265549898

> <CNNaffinity_variance>
0.4608573318

$$$$
[H]c1nc([H])c(N([H])C(=O)[C@@]([H])(n2c([H])nc3c2c(=O)n(C([H])([H])C(=O)C([H])([H])[H])c(=O)n3C([H])([H])[H])C([H])([H])[H])nc1-c1c([H])nc(N2C([H])([H])C3([H])C([H])([H])C3([H])C2([H])[H])c([H])c1[H]


 40 45  0  0  0  0  0  0  0  0999 V2000
  150.2833  135.3340  185.5045 C   0  0  0  0  0  0  0  0  0  0  0  0
  150.4313  133.9914  185.7065 O   0  0  0  0  0  0  0  0  0  0  0  0
  150.2932  135.6144  184.1702 N   0  0  0  0  0  0  0  0  0  0  0  0
  150.4166  134.6772  183.5487 H   0  0  0  0  0  0  0  0  0  0  0  0
  150.2233  136.7135  183.2993 C   0  0  0  0  0  0  0  0  0  0  0  0
  149.1804  137.0663  182.4812 C   0  0  0  0  0  0  0  0  0  0  0  0
  149.2851  138.1367  181.6798 N   0  0  0  0  0  0  0  0  0  0  0  0
  150.4051  138.8947  181.6514 C   0  0  0  0  0  0  0  0  0  0  0  0
  151.4789  138.5880  182.4499 C   0  0  0  0  0  0  0  0  0  0  0  0
  151.3503  137.5251  183.2323 N   0  0  0  0  0  0  0  0  0  0  0  0
  152.7307  139.3719  182.4703 C   0  0  0  0  0  0  0  0  0  0  0  0
  153.7514  139.1288  183.3522 C   0  0  0  0  0  0  0  0  0  0  0  0
  154.9119  139.9168  183.3091 C   0  0  0  0  0  0  0  0  0  0  0  0
  155.0686  140.9400  182.4021 C   0  0  0  0  0  0  0  0  0  0  0  0
  154.0459  141.1492  181.5524 N   0  0  0  0  0  0  0  0  0  0  0  0
  152.9241  140.4062  181.5758 C   0  0  0  0  0  0  0  0  0  0  0  0
  156.2464  141.7460  182.3518 N   0  0  0  0  0  0  0  0  0  0  0  0
  156.6920  142.6754  183.3701 C   0  0  0  0  0  0  0  0  0  0  0  0
  158.1778  142.3673  183.4486 C   0  0  0  0  0  0  0  0  0  0  0  0
  159.0453  143.1793  182.5791 C   0  0  0  0  0  0  0  0  0  0  0  0
  158.5507  141.8932  182.0461 C   0  0  0  0  0  0  0  0  0  0  0  0
  157.2394  141.8177  181.3004 C   0  0  0  0  0  0  0  0  0  0  0  0
  148.9545  136.9348  186.9155 C   0  0  0  0  0  0  0  0  0  0  0  0
  150.1590  136.0578  186.7705 C   0  0  0  0  0  0  0  0  0  0  0  0
  151.3498  136.7315  187.2214 N   0  0  0  0  0  0  0  0  0  0  0  0
  152.1422  137.5623  186.5486 C   0  0  0  0  0  0  0  0  0  0  0  0
  153.1793  138.0056  187.2643 N   0  0  0  0  0  0  0  0  0  0  0  0
  153.0410  137.4157  188.4798 C   0  0  0  0  0  0  0  0  0  0  0  0
  153.7899  137.4818  189.5962 N   0  0  0  0  0  0  0  0  0  0  0  0
  154.9744  138.3116  189.6186 C   0  0  0  0  0  0  0  0  0  0  0  0
  153.4181  136.7715  190.6700 C   0  0  0  0  0  0  0  0  0  0  0  0
  154.1103  136.8160  191.7429 O   0  0  0  0  0  0  0  0  0  0  0  0
  152.3202  135.9965  190.6619 N   0  0  0  0  0  0  0  0  0  0  0  0
  151.5273  135.8968  189.5520 C   0  0  0  0  0  0  0  0  0  0  0  0
  150.5108  135.1575  189.5883 O   0  0  0  0  0  0  0  0  0  0  0  0
  151.9025  136.6236  188.4488 C   0  0  0  0  0  0  0  0  0  0  0  0
  151.9529  135.2428  191.8432 C   0  0  0  0  0  0  0  0  0  0  0  0
  150.8705  135.9035  192.6076 C   0  0  0  0  0  0  0  0  0  0  0  0
  149.6459  135.2184  193.0741 C   0  0  0  0  0  0  0  0  0  0  0  0
  151.0090  137.0866  192.8623 O   0  0  0  0  0  0  0  0  0  0  0  0
 23 24  1  0  0  0
 24  1  1  0  0  0
  1  2  2  0  0  0
  1  3  1  0  0  0
  3  5  1  0  0  0
  5  6  2  0  0  0
  6  7  1  0  0  0
  7  8  2  0  0  0
  8  9  1  0  0  0
  9 10  2  0  0  0
  9 11  1  0  0  0
 11 12  2  0  0  0
 12 13  1  0  0  0
 13 14  2  0  0  0
 14 15  1  0  0  0
 15 16  2  0  0  0
 14 17  1  0  0  0
 17 18  1  0  0  0
 18 19  1  0  0  0
 19 20  1  0  0  0
 20 21  1  0  0  0
 21 22  1  0  0  0
 24 25  1  0  0  0
 25 26  1  0  0  0
 26 27  2  0  0  0
 27 28  1  0  0  0
 28 29  1  0  0  0
 29 30  1  0  0  0
 29 31  1  0  0  0
 31 32  2  0  0  0
 31 33  1  0  0  0
 33 37  1  0  0  0
 37 38  1  0  0  0
 38 39  1  0  0  0
 38 40  2  0  0  0
 33 34  1  0  0  0
 34 35  2  0  0  0
 34 36  1  0  0  0
 10  5  1  0  0  0
 16 11  1  0  0  0
 22 17  1  0  0  0
 36 25  1  0  0  0
 21 19  1  0  0  0
 36 28  2  0  0  0
  3  4  1  0  0  0
M  END
> <minimizedAffinity>
-7.35758

> <CNNscore>
0.1904007047

> <CNNaffinity>
6.3849372864

> <CNN_VS>
1.2156965733

> <CNNaffinity_variance>
0.0644831657

$$$$
[H]c1nc([H])c(N([H])C(=O)[C@@]([H])(n2c([H])nc3c2c(=O)n(C([H])([H])C(=O)C([H])([H])[H])c(=O)n3C([H])([H])[H])C([H])([H])[H])nc1-c1c([H])nc(N2C([H])([H])C3([H])C([H])([H])C3([H])C2([H])[H])c([H])c1[H]


 40 45  0  0  0  0  0  0  0  0999 V2000
  155.1532  137.0076  190.0923 C   0  0  0  0  0  0  0  0  0  0  0  0
  155.6820  137.6688  191.1641 O   0  0  0  0  0  0  0  0  0  0  0  0
  154.9689  137.8684  189.0509 N   0  0  0  0  0  0  0  0  0  0  0  0
  155.2978  138.9181  189.3152 H   0  0  0  0  0  0  0  0  0  0  0  0
  154.4703  137.8811  187.7385 C   0  0  0  0  0  0  0  0  0  0  0  0
  153.3307  137.2769  187.2717 C   0  0  0  0  0  0  0  0  0  0  0  0
  153.0088  137.3587  185.9723 N   0  0  0  0  0  0  0  0  0  0  0  0
  153.7839  138.0303  185.0904 C   0  0  0  0  0  0  0  0  0  0  0  0
  154.9349  138.6546  185.5029 C   0  0  0  0  0  0  0  0  0  0  0  0
  155.2310  138.5584  186.7920 N   0  0  0  0  0  0  0  0  0  0  0  0
  155.8262  139.4052  184.5953 C   0  0  0  0  0  0  0  0  0  0  0  0
  157.1284  139.7029  184.9027 C   0  0  0  0  0  0  0  0  0  0  0  0
  157.9141  140.4196  183.9870 C   0  0  0  0  0  0  0  0  0  0  0  0
  157.4215  140.8422  182.7733 C   0  0  0  0  0  0  0  0  0  0  0  0
  156.1394  140.5317  182.5063 N   0  0  0  0  0  0  0  0  0  0  0  0
  155.3678  139.8456  183.3693 C   0  0  0  0  0  0  0  0  0  0  0  0
  158.2147  141.5716  181.8362 N   0  0  0  0  0  0  0  0  0  0  0  0
  158.3080  141.3177  180.4128 C   0  0  0  0  0  0  0  0  0  0  0  0
  158.2250  142.7213  179.8368 C   0  0  0  0  0  0  0  0  0  0  0  0
  159.5135  143.4002  179.6204 C   0  0  0  0  0  0  0  0  0  0  0  0
  158.8314  143.6190  180.9127 C   0  0  0  0  0  0  0  0  0  0  0  0
  159.0842  142.7022  182.0860 C   0  0  0  0  0  0  0  0  0  0  0  0
  154.0510  135.2735  191.5403 C   0  0  0  0  0  0  0  0  0  0  0  0
  154.9478  135.5882  190.3839 C   0  0  0  0  0  0  0  0  0  0  0  0
  156.1406  134.7810  190.4163 N   0  0  0  0  0  0  0  0  0  0  0  0
  156.9747  134.5677  191.4310 C   0  0  0  0  0  0  0  0  0  0  0  0
  157.9996  133.7698  191.1191 N   0  0  0  0  0  0  0  0  0  0  0  0
  157.8079  133.4515  189.8127 C   0  0  0  0  0  0  0  0  0  0  0  0
  158.5226  132.6898  188.9639 N   0  0  0  0  0  0  0  0  0  0  0  0
  159.7265  132.0347  189.4261 C   0  0  0  0  0  0  0  0  0  0  0  0
  158.0991  132.5546  187.6996 C   0  0  0  0  0  0  0  0  0  0  0  0
  158.7579  131.8373  186.8729 O   0  0  0  0  0  0  0  0  0  0  0  0
  156.9827  133.1583  187.2578 N   0  0  0  0  0  0  0  0  0  0  0  0
  156.2229  133.9418  188.0820 C   0  0  0  0  0  0  0  0  0  0  0  0
  155.1874  134.4896  187.6253 O   0  0  0  0  0  0  0  0  0  0  0  0
  156.6513  134.0830  189.3792 C   0  0  0  0  0  0  0  0  0  0  0  0
  156.5591  132.9883  185.8828 C   0  0  0  0  0  0  0  0  0  0  0  0
  155.8979  131.6816  185.6644 C   0  0  0  0  0  0  0  0  0  0  0  0
  154.6811  131.2372  186.3777 C   0  0  0  0  0  0  0  0  0  0  0  0
  156.3971  130.9339  184.8426 O   0  0  0  0  0  0  0  0  0  0  0  0
 23 24  1  0  0  0
 24  1  1  0  0  0
  1  2  2  0  0  0
  1  3  1  0  0  0
  3  5  1  0  0  0
  5  6  2  0  0  0
  6  7  1  0  0  0
  7  8  2  0  0  0
  8  9  1  0  0  0
  9 10  2  0  0  0
  9 11  1  0  0  0
 11 12  2  0  0  0
 12 13  1  0  0  0
 13 14  2  0  0  0
 14 15  1  0  0  0
 15 16  2  0  0  0
 14 17  1  0  0  0
 17 18  1  0  0  0
 18 19  1  0  0  0
 19 20  1  0  0  0
 20 21  1  0  0  0
 21 22  1  0  0  0
 24 25  1  0  0  0
 25 26  1  0  0  0
 26 27  2  0  0  0
 27 28  1  0  0  0
 28 29  1  0  0  0
 29 30  1  0  0  0
 29 31  1  0  0  0
 31 32  2  0  0  0
 31 33  1  0  0  0
 33 37  1  0  0  0
 37 38  1  0  0  0
 38 39  1  0  0  0
 38 40  2  0  0  0
 33 34  1  0  0  0
 34 35  2  0  0  0
 34 36  1  0  0  0
 10  5  1  0  0  0
 16 11  1  0  0  0
 22 17  1  0  0  0
 36 25  1  0  0  0
 21 19  1  0  0  0
 36 28  2  0  0  0
  3  4  1  0  0  0
M  END
> <minimizedAffinity>
-7.51701

> <CNNscore>
0.1722670346

> <CNNaffinity>
6.3084974289

> <CNN_VS>
1.0867460966

> <CNNaffinity_variance>
0.2070782185

$$$$
[H]c1sc(N([H])C(=O)C([H])([H])n2c([H])c([H])c3c2c(=O)n(C([H])([H])[H])c(=O)n3C([H])([H])[H])nc1-c1c([H])c([H])c(C(F)(F)F)c(F)c1[H]


 34 37  0  0  0  0  0  0  0  0999 V2000
  153.8742  137.2771  185.7550 C   0  0  0  0  0  0  0  0  0  0  0  0
  153.4099  136.1002  185.9449 O   0  0  0  0  0  0  0  0  0  0  0  0
  154.4511  137.5114  184.4988 N   0  0  0  0  0  0  0  0  0  0  0  0
  154.4852  136.7381  183.7762 H   0  0  0  0  0  0  0  0  0  0  0  0
  154.9955  138.7950  184.1476 C   0  0  0  0  0  0  0  0  0  0  0  0
  156.2090  139.2502  184.3984 N   0  0  0  0  0  0  0  0  0  0  0  0
  156.5444  140.4387  184.0040 C   0  0  0  0  0  0  0  0  0  0  0  0
  155.5926  141.1733  183.3311 C   0  0  0  0  0  0  0  0  0  0  0  0
  154.2768  140.0871  183.3176 S   0  0  0  0  0  0  0  0  0  0  0  0
  157.9150  140.9683  184.2796 C   0  0  0  0  0  0  0  0  0  0  0  0
  158.8931  141.0093  183.3156 C   0  0  0  0  0  0  0  0  0  0  0  0
  160.1557  141.4999  183.5789 C   0  0  0  0  0  0  0  0  0  0  0  0
  160.4899  141.9731  184.8316 C   0  0  0  0  0  0  0  0  0  0  0  0
  159.5172  141.9365  185.8046 C   0  0  0  0  0  0  0  0  0  0  0  0
  159.7941  142.3850  187.0366 F   0  0  0  0  0  0  0  0  0  0  0  0
  158.2377  141.4360  185.5261 C   0  0  0  0  0  0  0  0  0  0  0  0
  161.8551  142.4899  185.0690 C   0  0  0  0  0  0  0  0  0  0  0  0
  162.8006  141.9355  184.2585 F   0  0  0  0  0  0  0  0  0  0  0  0
  162.2639  142.2372  186.3868 F   0  0  0  0  0  0  0  0  0  0  0  0
  161.8935  143.8586  184.9233 F   0  0  0  0  0  0  0  0  0  0  0  0
  153.7547  138.2478  186.8624 C   0  0  0  0  0  0  0  0  0  0  0  0
  156.4101  136.3438  191.9175 C   0  0  0  0  0  0  0  0  0  0  0  0
  155.2030  136.5351  191.1056 N   0  0  0  0  0  0  0  0  0  0  0  0
  155.3922  137.1088  189.9054 C   0  0  0  0  0  0  0  0  0  0  0  0
  156.4649  137.5888  189.2011 C   0  0  0  0  0  0  0  0  0  0  0  0
  155.9880  138.0575  188.0178 C   0  0  0  0  0  0  0  0  0  0  0  0
  154.6491  137.8802  187.9715 N   0  0  0  0  0  0  0  0  0  0  0  0
  154.2602  137.3036  189.1105 C   0  0  0  0  0  0  0  0  0  0  0  0
  153.0276  136.9009  189.5970 C   0  0  0  0  0  0  0  0  0  0  0  0
  152.0210  137.0799  188.8789 O   0  0  0  0  0  0  0  0  0  0  0  0
  152.8789  136.3229  190.8195 N   0  0  0  0  0  0  0  0  0  0  0  0
  151.5596  135.9447  191.2232 C   0  0  0  0  0  0  0  0  0  0  0  0
  153.9873  136.1557  191.5459 C   0  0  0  0  0  0  0  0  0  0  0  0
  153.8862  135.6243  192.6812 O   0  0  0  0  0  0  0  0  0  0  0  0
 22 23  1  0  0  0
 23 24  1  0  0  0
 24 25  1  0  0  0
 25 26  2  0  0  0
 26 27  1  0  0  0
 27 21  1  0  0  0
 21  1  1  0  0  0
  1  2  2  0  0  0
  1  3  1  0  0  0
  3  5  1  0  0  0
  5  6  2  0  0  0
  6  7  1  0  0  0
  7  8  2  0  0  0
  8  9  1  0  0  0
  7 10  1  0  0  0
 10 11  2  0  0  0
 11 12  1  0  0  0
 12 13  2  0  0  0
 13 14  1  0  0  0
 14 15  1  0  0  0
 14 16  2  0  0  0
 13 17  1  0  0  0
 17 18  1  0  0  0
 17 19  1  0  0  0
 17 20  1  0  0  0
 27 28  1  0  0  0
 28 29  1  0  0  0
 29 30  2  0  0  0
 29 31  1  0  0  0
 31 32  1  0  0  0
 31 33  1  0  0  0
 33 34  2  0  0  0
 33 23  1  0  0  0
 28 24  2  0  0  0
  9  5  1  0  0  0
 16 10  1  0  0  0
  3  4  1  0  0  0
M  END
> <minimizedAffinity>
-9.16671

> <CNNscore>
0.5243169665

> <CNNaffinity>
6.5481276512

> <CNN_VS>
3.4332945347

> <CNNaffinity_variance>
0.1568923295

$$$$
[H]c1sc(N([H])C(=O)C([H])([H])n2c([H])c([H])c3c2c(=O)n(C([H])([H])[H])c(=O)n3C([H])([H])[H])nc1-c1c([H])c([H])c(C(F)(F)F)c(F)c1[H]


 34 37  0  0  0  0  0  0  0  0999 V2000
  153.9940  136.9391  185.0387 C   0  0  0  0  0  0  0  0  0  0  0  0
  153.5328  135.7511  184.9259 O   0  0  0  0  0  0  0  0  0  0  0  0
  154.3179  137.5859  183.8377 N   0  0  0  0  0  0  0  0  0  0  0  0
  154.1786  137.0906  182.9122 H   0  0  0  0  0  0  0  0  0  0  0  0
  154.8296  138.9295  183.8199 C   0  0  0  0  0  0  0  0  0  0  0  0
  156.0695  139.3214  184.0469 N   0  0  0  0  0  0  0  0  0  0  0  0
  156.3673  140.5815  183.9851 C   0  0  0  0  0  0  0  0  0  0  0  0
  155.3487  141.4573  183.6791 C   0  0  0  0  0  0  0  0  0  0  0  0
  154.0292  140.3901  183.5023 S   0  0  0  0  0  0  0  0  0  0  0  0
  157.7671  141.0412  184.2389 C   0  0  0  0  0  0  0  0  0  0  0  0
  158.7492  140.9649  183.2811 C   0  0  0  0  0  0  0  0  0  0  0  0
  160.0388  141.3916  183.5241 C   0  0  0  0  0  0  0  0  0  0  0  0
  160.3972  141.9166  184.7492 C   0  0  0  0  0  0  0  0  0  0  0  0
  159.4207  141.9975  185.7156 C   0  0  0  0  0  0  0  0  0  0  0  0
  159.7206  142.5002  186.9211 F   0  0  0  0  0  0  0  0  0  0  0  0
  158.1137  141.5610  185.4580 C   0  0  0  0  0  0  0  0  0  0  0  0
  161.7909  142.3615  184.9656 C   0  0  0  0  0  0  0  0  0  0  0  0
  162.7011  141.7160  184.1825 F   0  0  0  0  0  0  0  0  0  0  0  0
  162.1851  142.1445  186.2941 F   0  0  0  0  0  0  0  0  0  0  0  0
  161.9104  143.7176  184.7585 F   0  0  0  0  0  0  0  0  0  0  0  0
  154.1338  137.4934  186.4011 C   0  0  0  0  0  0  0  0  0  0  0  0
  157.3022  134.6848  190.6793 C   0  0  0  0  0  0  0  0  0  0  0  0
  156.4817  135.8180  190.2372 N   0  0  0  0  0  0  0  0  0  0  0  0
  156.0576  135.7691  188.9632 C   0  0  0  0  0  0  0  0  0  0  0  0
  156.1942  134.9010  187.9121 C   0  0  0  0  0  0  0  0  0  0  0  0
  155.5114  135.4327  186.8640 C   0  0  0  0  0  0  0  0  0  0  0  0
  154.9563  136.6065  187.2388 N   0  0  0  0  0  0  0  0  0  0  0  0
  155.2742  136.8352  188.5146 C   0  0  0  0  0  0  0  0  0  0  0  0
  154.9842  137.8647  189.3944 C   0  0  0  0  0  0  0  0  0  0  0  0
  154.2834  138.8140  188.9837 O   0  0  0  0  0  0  0  0  0  0  0  0
  155.4337  137.8760  190.6784 N   0  0  0  0  0  0  0  0  0  0  0  0
  155.0743  138.9893  191.5018 C   0  0  0  0  0  0  0  0  0  0  0  0
  156.1790  136.8372  191.0651 C   0  0  0  0  0  0  0  0  0  0  0  0
  156.6111  136.8153  192.2458 O   0  0  0  0  0  0  0  0  0  0  0  0
 22 23  1  0  0  0
 23 24  1  0  0  0
 24 25  1  0  0  0
 25 26  2  0  0  0
 26 27  1  0  0  0
 27 21  1  0  0  0
 21  1  1  0  0  0
  1  2  2  0  0  0
  1  3  1  0  0  0
  3  5  1  0  0  0
  5  6  2  0  0  0
  6  7  1  0  0  0
  7  8  2  0  0  0
  8  9  1  0  0  0
  7 10  1  0  0  0
 10 11  2  0  0  0
 11 12  1  0  0  0
 12 13  2  0  0  0
 13 14  1  0  0  0
 14 15  1  0  0  0
 14 16  2  0  0  0
 13 17  1  0  0  0
 17 18  1  0  0  0
 17 19  1  0  0  0
 17 20  1  0  0  0
 27 28  1  0  0  0
 28 29  1  0  0  0
 29 30  2  0  0  0
 29 31  1  0  0  0
 31 32  1  0  0  0
 31 33  1  0  0  0
 33 34  2  0  0  0
 33 23  1  0  0  0
 28 24  2  0  0  0
  9  5  1  0  0  0
 16 10  1  0  0  0
  3  4  1  0  0  0
M  END
> <minimizedAffinity>
-8.85652

> <CNNscore>
0.4956840873

> <CNNaffinity>
6.6740393639

> <CNN_VS>
3.3082151413

> <CNNaffinity_variance>
0.1070503816

$$$$
[H]c1sc(N([H])C(=O)C([H])([H])n2c([H])c([H])c3c2c(=O)n(C([H])([H])[H])c(=O)n3C([H])([H])[H])nc1-c1c([H])c([H])c(C(F)(F)F)c(F)c1[H]


 34 37  0  0  0  0  0  0  0  0999 V2000
  153.4145  137.0019  184.7376 C   0  0  0  0  0  0  0  0  0  0  0  0
  152.6691  136.0066  185.0385 O   0  0  0  0  0  0  0  0  0  0  0  0
  152.9041  137.8770  183.7683 N   0  0  0  0  0  0  0  0  0  0  0  0
  151.9572  137.6933  183.3313 H   0  0  0  0  0  0  0  0  0  0  0  0
  153.6314  139.0447  183.3501 C   0  0  0  0  0  0  0  0  0  0  0  0
  154.8245  139.4377  183.7559 N   0  0  0  0  0  0  0  0  0  0  0  0
  155.3444  140.5213  183.2700 C   0  0  0  0  0  0  0  0  0  0  0  0
  154.6039  141.2146  182.3376 C   0  0  0  0  0  0  0  0  0  0  0  0
  153.2042  140.2447  182.2310 S   0  0  0  0  0  0  0  0  0  0  0  0
  156.6949  140.9793  183.7188 C   0  0  0  0  0  0  0  0  0  0  0  0
  157.2734  140.5290  184.8808 C   0  0  0  0  0  0  0  0  0  0  0  0
  158.5207  140.9572  185.2873 C   0  0  0  0  0  0  0  0  0  0  0  0
  159.2434  141.8625  184.5371 C   0  0  0  0  0  0  0  0  0  0  0  0
  158.6728  142.3198  183.3711 C   0  0  0  0  0  0  0  0  0  0  0  0
  159.3361  143.1999  182.6087 F   0  0  0  0  0  0  0  0  0  0  0  0
  157.4050  141.8781  182.9675 C   0  0  0  0  0  0  0  0  0  0  0  0
  160.5763  142.2939  185.0110 C   0  0  0  0  0  0  0  0  0  0  0  0
  160.8111  142.0088  186.3232 F   0  0  0  0  0  0  0  0  0  0  0  0
  160.7325  143.6808  184.8716 F   0  0  0  0  0  0  0  0  0  0  0  0
  161.5742  141.7284  184.2490 F   0  0  0  0  0  0  0  0  0  0  0  0
  154.7127  137.1207  185.4329 C   0  0  0  0  0  0  0  0  0  0  0  0
  154.7437  138.1239  191.3678 C   0  0  0  0  0  0  0  0  0  0  0  0
  155.2354  137.3900  190.1962 N   0  0  0  0  0  0  0  0  0  0  0  0
  154.7053  137.7526  189.0161 C   0  0  0  0  0  0  0  0  0  0  0  0
  153.7802  138.6699  188.5919 C   0  0  0  0  0  0  0  0  0  0  0  0
  153.6794  138.5404  187.2426 C   0  0  0  0  0  0  0  0  0  0  0  0
  154.5173  137.5675  186.8211 N   0  0  0  0  0  0  0  0  0  0  0  0
  155.1548  137.0705  187.8830 C   0  0  0  0  0  0  0  0  0  0  0  0
  156.1057  136.0757  188.0383 C   0  0  0  0  0  0  0  0  0  0  0  0
  156.5011  135.4709  187.0190 O   0  0  0  0  0  0  0  0  0  0  0  0
  156.6179  135.7387  189.2527 N   0  0  0  0  0  0  0  0  0  0  0  0
  157.5961  134.6958  189.2988 C   0  0  0  0  0  0  0  0  0  0  0  0
  156.1601  136.4163  190.3089 C   0  0  0  0  0  0  0  0  0  0  0  0
  156.6120  136.1306  191.4470 O   0  0  0  0  0  0  0  0  0  0  0  0
 22 23  1  0  0  0
 23 24  1  0  0  0
 24 25  1  0  0  0
 25 26  2  0  0  0
 26 27  1  0  0  0
 27 21  1  0  0  0
 21  1  1  0  0  0
  1  2  2  0  0  0
  1  3  1  0  0  0
  3  5  1  0  0  0
  5  6  2  0  0  0
  6  7  1  0  0  0
  7  8  2  0  0  0
  8  9  1  0  0  0
  7 10  1  0  0  0
 10 11  2  0  0  0
 11 12  1  0  0  0
 12 13  2  0  0  0
 13 14  1  0  0  0
 14 15  1  0  0  0
 14 16  2  0  0  0
 13 17  1  0  0  0
 17 18  1  0  0  0
 17 19  1  0  0  0
 17 20  1  0  0  0
 27 28  1  0  0  0
 28 29  1  0  0  0
 29 30  2  0  0  0
 29 31  1  0  0  0
 31 32  1  0  0  0
 31 33  1  0  0  0
 33 34  2  0  0  0
 33 23  1  0  0  0
 28 24  2  0  0  0
  9  5  1  0  0  0
 16 10  1  0  0  0
  3  4  1  0  0  0
M  END
> <minimizedAffinity>
-8.38649

> <CNNscore>
0.4947615266

> <CNNaffinity>
6.6929998398

> <CNN_VS>
3.3114387989

> <CNNaffinity_variance>
0.1387748122

$$$$
[H]c1sc(N([H])C(=O)C([H])([H])n2c([H])c([H])c3c2c(=O)n(C([H])([H])[H])c(=O)n3C([H])([H])[H])nc1-c1c([H])c([H])c(C(F)(F)F)c(F)c1[H]


 34 37  0  0  0  0  0  0  0  0999 V2000
  153.2265  136.5899  186.0775 C   0  0  0  0  0  0  0  0  0  0  0  0
  152.7707  135.7809  186.9576 O   0  0  0  0  0  0  0  0  0  0  0  0
  152.3247  136.9744  185.0752 N   0  0  0  0  0  0  0  0  0  0  0  0
  151.3354  136.5970  185.0761 H   0  0  0  0  0  0  0  0  0  0  0  0
  152.7017  137.8921  184.0344 C   0  0  0  0  0  0  0  0  0  0  0  0
  153.7661  138.6720  183.9960 N   0  0  0  0  0  0  0  0  0  0  0  0
  153.9624  139.4423  182.9720 C   0  0  0  0  0  0  0  0  0  0  0  0
  153.0271  139.4005  181.9613 C   0  0  0  0  0  0  0  0  0  0  0  0
  151.9276  138.2454  182.5679 S   0  0  0  0  0  0  0  0  0  0  0  0
  155.1633  140.3308  182.9132 C   0  0  0  0  0  0  0  0  0  0  0  0
  155.1225  141.5827  182.3489 C   0  0  0  0  0  0  0  0  0  0  0  0
  156.2361  142.3963  182.2990 C   0  0  0  0  0  0  0  0  0  0  0  0
  157.4458  141.9817  182.8182 C   0  0  0  0  0  0  0  0  0  0  0  0
  157.4974  140.7290  183.3858 C   0  0  0  0  0  0  0  0  0  0  0  0
  158.6499  140.2823  183.9034 F   0  0  0  0  0  0  0  0  0  0  0  0
  156.3600  139.9108  183.4312 C   0  0  0  0  0  0  0  0  0  0  0  0
  158.6133  142.8864  182.7429 C   0  0  0  0  0  0  0  0  0  0  0  0
  158.3326  144.0999  182.1889 F   0  0  0  0  0  0  0  0  0  0  0  0
  159.6350  142.3216  181.9654 F   0  0  0  0  0  0  0  0  0  0  0  0
  159.1612  143.0847  183.9906 F   0  0  0  0  0  0  0  0  0  0  0  0
  154.6321  137.0255  186.2097 C   0  0  0  0  0  0  0  0  0  0  0  0
  157.3405  134.4073  190.9044 C   0  0  0  0  0  0  0  0  0  0  0  0
  156.6010  135.5344  190.3250 N   0  0  0  0  0  0  0  0  0  0  0  0
  156.2787  135.4145  189.0262 C   0  0  0  0  0  0  0  0  0  0  0  0
  156.4662  134.4744  188.0473 C   0  0  0  0  0  0  0  0  0  0  0  0
  155.8899  134.9568  186.9149 C   0  0  0  0  0  0  0  0  0  0  0  0
  155.3510  136.1702  187.1671 N   0  0  0  0  0  0  0  0  0  0  0  0
  155.5743  136.4730  188.4476 C   0  0  0  0  0  0  0  0  0  0  0  0
  155.2537  137.5677  189.2330 C   0  0  0  0  0  0  0  0  0  0  0  0
  154.6241  138.5096  188.7064 O   0  0  0  0  0  0  0  0  0  0  0  0
  155.5991  137.6500  190.5463 N   0  0  0  0  0  0  0  0  0  0  0  0
  155.2171  138.8266  191.2648 C   0  0  0  0  0  0  0  0  0  0  0  0
  156.2716  136.6157  191.0585 C   0  0  0  0  0  0  0  0  0  0  0  0
  156.6068  136.6586  192.2698 O   0  0  0  0  0  0  0  0  0  0  0  0
 22 23  1  0  0  0
 23 24  1  0  0  0
 24 25  1  0  0  0
 25 26  2  0  0  0
 26 27  1  0  0  0
 27 21  1  0  0  0
 21  1  1  0  0  0
  1  2  2  0  0  0
  1  3  1  0  0  0
  3  5  1  0  0  0
  5  6  2  0  0  0
  6  7  1  0  0  0
  7  8  2  0  0  0
  8  9  1  0  0  0
  7 10  1  0  0  0
 10 11  2  0  0  0
 11 12  1  0  0  0
 12 13  2  0  0  0
 13 14  1  0  0  0
 14 15  1  0  0  0
 14 16  2  0  0  0
 13 17  1  0  0  0
 17 18  1  0  0  0
 17 19  1  0  0  0
 17 20  1  0  0  0
 27 28  1  0  0  0
 28 29  1  0  0  0
 29 30  2  0  0  0
 29 31  1  0  0  0
 31 32  1  0  0  0
 31 33  1  0  0  0
 33 34  2  0  0  0
 33 23  1  0  0  0
 28 24  2  0  0  0
  9  5  1  0  0  0
 16 10  1  0  0  0
  3  4  1  0  0  0
M  END
> <minimizedAffinity>
-7.51268

> <CNNscore>
0.4430606365

> <CNNaffinity>
6.3809518814

> <CNN_VS>
2.8271486759

> <CNNaffinity_variance>
0.0695071444

$$$$
[H]c1sc(N([H])C(=O)C([H])([H])n2c([H])c([H])c3c2c(=O)n(C([H])([H])[H])c(=O)n3C([H])([H])[H])nc1-c1c([H])c([H])c(C(F)(F)F)c(F)c1[H]


 34 37  0  0  0  0  0  0  0  0999 V2000
  154.9849  141.2595  182.8644 C   0  0  0  0  0  0  0  0  0  0  0  0
  154.7692  142.4308  182.3974 O   0  0  0  0  0  0  0  0  0  0  0  0
  153.9572  140.7144  183.6470 N   0  0  0  0  0  0  0  0  0  0  0  0
  153.0713  141.2673  183.8222 H   0  0  0  0  0  0  0  0  0  0  0  0
  154.0626  139.3994  184.2189 C   0  0  0  0  0  0  0  0  0  0  0  0
  154.4417  139.0823  185.4431 N   0  0  0  0  0  0  0  0  0  0  0  0
  154.4760  137.8376  185.8037 C   0  0  0  0  0  0  0  0  0  0  0  0
  154.1064  136.8978  184.8665 C   0  0  0  0  0  0  0  0  0  0  0  0
  153.7345  137.8868  183.5267 S   0  0  0  0  0  0  0  0  0  0  0  0
  154.9024  137.4625  187.1866 C   0  0  0  0  0  0  0  0  0  0  0  0
  155.6528  136.3408  187.4438 C   0  0  0  0  0  0  0  0  0  0  0  0
  156.0420  136.0020  188.7237 C   0  0  0  0  0  0  0  0  0  0  0  0
  155.6902  136.7827  189.8061 C   0  0  0  0  0  0  0  0  0  0  0  0
  154.9384  137.9088  189.5592 C   0  0  0  0  0  0  0  0  0  0  0  0
  154.5723  138.6984  190.5781 F   0  0  0  0  0  0  0  0  0  0  0  0
  154.5485  138.2435  188.2549 C   0  0  0  0  0  0  0  0  0  0  0  0
  156.1291  136.3817  191.1602 C   0  0  0  0  0  0  0  0  0  0  0  0
  155.1029  136.0516  191.9947 F   0  0  0  0  0  0  0  0  0  0  0  0
  156.8321  137.4211  191.7869 F   0  0  0  0  0  0  0  0  0  0  0  0
  157.0075  135.3230  191.0974 F   0  0  0  0  0  0  0  0  0  0  0  0
  156.2737  140.6168  182.5342 C   0  0  0  0  0  0  0  0  0  0  0  0
  160.6565  142.9171  185.9591 C   0  0  0  0  0  0  0  0  0  0  0  0
  159.8163  142.9711  184.7574 N   0  0  0  0  0  0  0  0  0  0  0  0
  158.9193  141.9791  184.6278 C   0  0  0  0  0  0  0  0  0  0  0  0
  158.5615  140.8735  185.3535 C   0  0  0  0  0  0  0  0  0  0  0  0
  157.5614  140.2550  184.6718 C   0  0  0  0  0  0  0  0  0  0  0  0
  157.2912  140.9486  183.5439 N   0  0  0  0  0  0  0  0  0  0  0  0
  158.1055  142.0048  183.4928 C   0  0  0  0  0  0  0  0  0  0  0  0
  158.2671  143.0344  182.5807 C   0  0  0  0  0  0  0  0  0  0  0  0
  157.5350  143.0483  181.5685 O   0  0  0  0  0  0  0  0  0  0  0  0
  159.1885  144.0210  182.7495 N   0  0  0  0  0  0  0  0  0  0  0  0
  159.2707  145.0367  181.7453 C   0  0  0  0  0  0  0  0  0  0  0  0
  159.9450  143.9575  183.8485 C   0  0  0  0  0  0  0  0  0  0  0  0
  160.8070  144.8536  184.0361 O   0  0  0  0  0  0  0  0  0  0  0  0
 22 23  1  0  0  0
 23 24  1  0  0  0
 24 25  1  0  0  0
 25 26  2  0  0  0
 26 27  1  0  0  0
 27 21  1  0  0  0
 21  1  1  0  0  0
  1  2  2  0  0  0
  1  3  1  0  0  0
  3  5  1  0  0  0
  5  6  2  0  0  0
  6  7  1  0  0  0
  7  8  2  0  0  0
  8  9  1  0  0  0
  7 10  1  0  0  0
 10 11  2  0  0  0
 11 12  1  0  0  0
 12 13  2  0  0  0
 13 14  1  0  0  0
 14 15  1  0  0  0
 14 16  2  0  0  0
 13 17  1  0  0  0
 17 18  1  0  0  0
 17 19  1  0  0  0
 17 20  1  0  0  0
 27 28  1  0  0  0
 28 29  1  0  0  0
 29 30  2  0  0  0
 29 31  1  0  0  0
 31 32  1  0  0  0
 31 33  1  0  0  0
 33 34  2  0  0  0
 33 23  1  0  0  0
 28 24  2  0  0  0
  9  5  1  0  0  0
 16 10  1  0  0  0
  3  4  1  0  0  0
M  END
> <minimizedAffinity>
-8.66341

> <CNNscore>
0.4396348000

> <CNNaffinity>
6.8187088966

> <CNN_VS>
2.9977416992

> <CNNaffinity_variance>
0.1043841839

$$$$
[H]c1sc(N([H])C(=O)C([H])([H])n2c([H])c([H])c3c2c(=O)n(C([H])([H])[H])c(=O)n3C([H])([H])[H])nc1-c1c([H])c([H])c(C(F)(F)F)c(F)c1[H]


 34 37  0  0  0  0  0  0  0  0999 V2000
  153.4718  136.8007  185.3783 C   0  0  0  0  0  0  0  0  0  0  0  0
  153.5608  135.6071  185.8303 O   0  0  0  0  0  0  0  0  0  0  0  0
  153.5970  136.9392  183.9887 N   0  0  0  0  0  0  0  0  0  0  0  0
  153.7571  136.0868  183.3813 H   0  0  0  0  0  0  0  0  0  0  0  0
  153.4998  138.2227  183.3479 C   0  0  0  0  0  0  0  0  0  0  0  0
  154.4348  139.1502  183.2582 N   0  0  0  0  0  0  0  0  0  0  0  0
  154.1834  140.2589  182.6352 C   0  0  0  0  0  0  0  0  0  0  0  0
  152.9262  140.4070  182.0913 C   0  0  0  0  0  0  0  0  0  0  0  0
  152.1966  138.9259  182.5220 S   0  0  0  0  0  0  0  0  0  0  0  0
  155.2320  141.3186  182.5243 C   0  0  0  0  0  0  0  0  0  0  0  0
  154.9244  142.6576  182.5238 C   0  0  0  0  0  0  0  0  0  0  0  0
  155.8989  143.6292  182.4210 C   0  0  0  0  0  0  0  0  0  0  0  0
  157.2331  143.2924  182.3136 C   0  0  0  0  0  0  0  0  0  0  0  0
  157.5519  141.9536  182.3132 C   0  0  0  0  0  0  0  0  0  0  0  0
  158.8340  141.5771  182.2111 F   0  0  0  0  0  0  0  0  0  0  0  0
  156.5538  140.9748  182.4181 C   0  0  0  0  0  0  0  0  0  0  0  0
  158.2438  144.3666  182.2056 C   0  0  0  0  0  0  0  0  0  0  0  0
  158.8963  144.3882  181.0090 F   0  0  0  0  0  0  0  0  0  0  0  0
  159.2299  144.2273  183.1933 F   0  0  0  0  0  0  0  0  0  0  0  0
  157.6724  145.6008  182.4214 F   0  0  0  0  0  0  0  0  0  0  0  0
  153.2501  137.8880  186.3537 C   0  0  0  0  0  0  0  0  0  0  0  0
  156.3028  137.0513  191.4734 C   0  0  0  0  0  0  0  0  0  0  0  0
  155.0588  136.9582  190.7011 N   0  0  0  0  0  0  0  0  0  0  0  0
  155.1252  137.3971  189.4330 C   0  0  0  0  0  0  0  0  0  0  0  0
  156.0925  137.9373  188.6269 C   0  0  0  0  0  0  0  0  0  0  0  0
  155.5173  138.1770  187.4190 C   0  0  0  0  0  0  0  0  0  0  0  0
  154.2202  137.7997  187.4565 N   0  0  0  0  0  0  0  0  0  0  0  0
  153.9553  137.3206  188.6736 C   0  0  0  0  0  0  0  0  0  0  0  0
  152.8123  136.8052  189.2618 C   0  0  0  0  0  0  0  0  0  0  0  0
  151.7707  136.7415  188.5747 O   0  0  0  0  0  0  0  0  0  0  0  0
  152.7870  136.3708  190.5508 N   0  0  0  0  0  0  0  0  0  0  0  0
  151.5523  135.8562  191.0579 C   0  0  0  0  0  0  0  0  0  0  0  0
  153.9276  136.4622  191.2399 C   0  0  0  0  0  0  0  0  0  0  0  0
  153.9400  136.0696  192.4345 O   0  0  0  0  0  0  0  0  0  0  0  0
 22 23  1  0  0  0
 23 24  1  0  0  0
 24 25  1  0  0  0
 25 26  2  0  0  0
 26 27  1  0  0  0
 27 21  1  0  0  0
 21  1  1  0  0  0
  1  2  2  0  0  0
  1  3  1  0  0  0
  3  5  1  0  0  0
  5  6  2  0  0  0
  6  7  1  0  0  0
  7  8  2  0  0  0
  8  9  1  0  0  0
  7 10  1  0  0  0
 10 11  2  0  0  0
 11 12  1  0  0  0
 12 13  2  0  0  0
 13 14  1  0  0  0
 14 15  1  0  0  0
 14 16  2  0  0  0
 13 17  1  0  0  0
 17 18  1  0  0  0
 17 19  1  0  0  0
 17 20  1  0  0  0
 27 28  1  0  0  0
 28 29  1  0  0  0
 29 30  2  0  0  0
 29 31  1  0  0  0
 31 32  1  0  0  0
 31 33  1  0  0  0
 33 34  2  0  0  0
 33 23  1  0  0  0
 28 24  2  0  0  0
  9  5  1  0  0  0
 16 10  1  0  0  0
  3  4  1  0  0  0
M  END
> <minimizedAffinity>
-7.97783

> <CNNscore>
0.3509020209

> <CNNaffinity>
6.2902193069

> <CNN_VS>
2.2072505951

> <CNNaffinity_variance>
0.1599388421

$$$$
[H]c1sc(N([H])C(=O)C([H])([H])n2c([H])c([H])c3c2c(=O)n(C([H])([H])[H])c(=O)n3C([H])([H])[H])nc1-c1c([H])c([H])c(C(F)(F)F)c(F)c1[H]


 34 37  0  0  0  0  0  0  0  0999 V2000
  155.0749  136.5501  188.5173 C   0  0  0  0  0  0  0  0  0  0  0  0
  155.3663  135.6278  189.3547 O   0  0  0  0  0  0  0  0  0  0  0  0
  155.8358  136.5697  187.3399 N   0  0  0  0  0  0  0  0  0  0  0  0
  156.5986  135.8513  187.1873 H   0  0  0  0  0  0  0  0  0  0  0  0
  155.6012  137.5426  186.3075 C   0  0  0  0  0  0  0  0  0  0  0  0
  154.6171  137.5611  185.4279 N   0  0  0  0  0  0  0  0  0  0  0  0
  154.5476  138.5220  184.5605 C   0  0  0  0  0  0  0  0  0  0  0  0
  155.5276  139.4892  184.6091 C   0  0  0  0  0  0  0  0  0  0  0  0
  156.4818  138.9363  185.9111 S   0  0  0  0  0  0  0  0  0  0  0  0
  153.4388  138.5575  183.5584 C   0  0  0  0  0  0  0  0  0  0  0  0
  152.5289  137.5355  183.4347 C   0  0  0  0  0  0  0  0  0  0  0  0
  151.5084  137.5767  182.5068 C   0  0  0  0  0  0  0  0  0  0  0  0
  151.3592  138.6551  181.6584 C   0  0  0  0  0  0  0  0  0  0  0  0
  152.2655  139.6843  181.7742 C   0  0  0  0  0  0  0  0  0  0  0  0
  152.1616  140.7529  180.9723 F   0  0  0  0  0  0  0  0  0  0  0  0
  153.2985  139.6321  182.7205 C   0  0  0  0  0  0  0  0  0  0  0  0
  150.2509  138.6569  180.6791 C   0  0  0  0  0  0  0  0  0  0  0  0
  150.6552  138.8578  179.3929 F   0  0  0  0  0  0  0  0  0  0  0  0
  149.3285  139.6731  180.9689 F   0  0  0  0  0  0  0  0  0  0  0  0
  149.5396  137.4795  180.7415 F   0  0  0  0  0  0  0  0  0  0  0  0
  153.9848  137.4810  188.8751 C   0  0  0  0  0  0  0  0  0  0  0  0
  148.8462  134.7155  190.3507 C   0  0  0  0  0  0  0  0  0  0  0  0
  150.0754  135.4149  190.7415 N   0  0  0  0  0  0  0  0  0  0  0  0
  150.8723  135.8025  189.7315 C   0  0  0  0  0  0  0  0  0  0  0  0
  150.8438  135.7140  188.3646 C   0  0  0  0  0  0  0  0  0  0  0  0
  151.9730  136.3128  187.9022 C   0  0  0  0  0  0  0  0  0  0  0  0
  152.6990  136.7692  188.9467 N   0  0  0  0  0  0  0  0  0  0  0  0
  152.0501  136.4708  190.0741 C   0  0  0  0  0  0  0  0  0  0  0  0
  152.3247  136.6920  191.4133 C   0  0  0  0  0  0  0  0  0  0  0  0
  153.3809  137.2901  191.7097 O   0  0  0  0  0  0  0  0  0  0  0  0
  151.4902  136.2829  192.4068 N   0  0  0  0  0  0  0  0  0  0  0  0
  151.8712  136.5638  193.7569 C   0  0  0  0  0  0  0  0  0  0  0  0
  150.3756  135.6481  192.0343 C   0  0  0  0  0  0  0  0  0  0  0  0
  149.5815  135.2561  192.9270 O   0  0  0  0  0  0  0  0  0  0  0  0
 22 23  1  0  0  0
 23 24  1  0  0  0
 24 25  1  0  0  0
 25 26  2  0  0  0
 26 27  1  0  0  0
 27 21  1  0  0  0
 21  1  1  0  0  0
  1  2  2  0  0  0
  1  3  1  0  0  0
  3  5  1  0  0  0
  5  6  2  0  0  0
  6  7  1  0  0  0
  7  8  2  0  0  0
  8  9  1  0  0  0
  7 10  1  0  0  0
 10 11  2  0  0  0
 11 12  1  0  0  0
 12 13  2  0  0  0
 13 14  1  0  0  0
 14 15  1  0  0  0
 14 16  2  0  0  0
 13 17  1  0  0  0
 17 18  1  0  0  0
 17 19  1  0  0  0
 17 20  1  0  0  0
 27 28  1  0  0  0
 28 29  1  0  0  0
 29 30  2  0  0  0
 29 31  1  0  0  0
 31 32  1  0  0  0
 31 33  1  0  0  0
 33 34  2  0  0  0
 33 23  1  0  0  0
 28 24  2  0  0  0
  9  5  1  0  0  0
 16 10  1  0  0  0
  3  4  1  0  0  0
M  END
> <minimizedAffinity>
-6.48618

> <CNNscore>
0.3429581523

> <CNNaffinity>
5.8629903793

> <CNN_VS>
2.0107603073

> <CNNaffinity_variance>
0.1546089947

$$$$
[H]c1sc(N([H])C(=O)C([H])([H])n2c([H])c([H])c3c2c(=O)n(C([H])([H])[H])c(=O)n3C([H])([H])[H])nc1-c1c([H])c([H])c(C(F)(F)F)c(F)c1[H]


 34 37  0  0  0  0  0  0  0  0999 V2000
  151.2769  137.0917  185.0982 C   0  0  0  0  0  0  0  0  0  0  0  0
  150.0027  137.0012  185.1687 O   0  0  0  0  0  0  0  0  0  0  0  0
  151.9123  137.6577  186.2125 N   0  0  0  0  0  0  0  0  0  0  0  0
  151.3410  137.9818  187.0432 H   0  0  0  0  0  0  0  0  0  0  0  0
  153.3415  137.8029  186.2717 C   0  0  0  0  0  0  0  0  0  0  0  0
  154.1025  138.5833  185.5269 N   0  0  0  0  0  0  0  0  0  0  0  0
  155.3850  138.6000  185.7148 C   0  0  0  0  0  0  0  0  0  0  0  0
  155.8896  137.7834  186.7032 C   0  0  0  0  0  0  0  0  0  0  0  0
  154.4665  137.0482  187.2913 S   0  0  0  0  0  0  0  0  0  0  0  0
  156.2603  139.4788  184.8802 C   0  0  0  0  0  0  0  0  0  0  0  0
  157.5732  139.7246  185.2020 C   0  0  0  0  0  0  0  0  0  0  0  0
  158.3739  140.5373  184.4257 C   0  0  0  0  0  0  0  0  0  0  0  0
  157.8842  141.1412  183.2853 C   0  0  0  0  0  0  0  0  0  0  0  0
  156.5701  140.9014  182.9541 C   0  0  0  0  0  0  0  0  0  0  0  0
  156.0494  141.4655  181.8557 F   0  0  0  0  0  0  0  0  0  0  0  0
  155.7656  140.0740  183.7499 C   0  0  0  0  0  0  0  0  0  0  0  0
  158.7781  142.0044  182.4833 C   0  0  0  0  0  0  0  0  0  0  0  0
  159.0281  141.5239  181.2324 F   0  0  0  0  0  0  0  0  0  0  0  0
  160.0249  142.1520  183.1087 F   0  0  0  0  0  0  0  0  0  0  0  0
  158.2630  143.2769  182.3748 F   0  0  0  0  0  0  0  0  0  0  0  0
  151.9321  136.5977  183.8696 C   0  0  0  0  0  0  0  0  0  0  0  0
  150.8497  140.1407  179.1255 C   0  0  0  0  0  0  0  0  0  0  0  0
  150.5410  138.9485  179.9231 N   0  0  0  0  0  0  0  0  0  0  0  0
  151.3059  138.7609  181.0118 C   0  0  0  0  0  0  0  0  0  0  0  0
  152.3512  139.4174  181.6063 C   0  0  0  0  0  0  0  0  0  0  0  0
  152.6955  138.7027  182.7099 C   0  0  0  0  0  0  0  0  0  0  0  0
  151.8912  137.6217  182.8138 N   0  0  0  0  0  0  0  0  0  0  0  0
  151.0346  137.6333  181.7904 C   0  0  0  0  0  0  0  0  0  0  0  0
  150.0096  136.7869  181.4020 C   0  0  0  0  0  0  0  0  0  0  0  0
  149.7750  135.7807  182.1045 O   0  0  0  0  0  0  0  0  0  0  0  0
  149.2575  137.0131  180.2911 N   0  0  0  0  0  0  0  0  0  0  0  0
  148.2232  136.0742  179.9824 C   0  0  0  0  0  0  0  0  0  0  0  0
  149.5511  138.1026  179.5762 C   0  0  0  0  0  0  0  0  0  0  0  0
  148.8757  138.3422  178.5430 O   0  0  0  0  0  0  0  0  0  0  0  0
 22 23  1  0  0  0
 23 24  1  0  0  0
 24 25  1  0  0  0
 25 26  2  0  0  0
 26 27  1  0  0  0
 27 21  1  0  0  0
 21  1  1  0  0  0
  1  2  2  0  0  0
  1  3  1  0  0  0
  3  5  1  0  0  0
  5  6  2  0  0  0
  6  7  1  0  0  0
  7  8  2  0  0  0
  8  9  1  0  0  0
  7 10  1  0  0  0
 10 11  2  0  0  0
 11 12  1  0  0  0
 12 13  2  0  0  0
 13 14  1  0  0  0
 14 15  1  0  0  0
 14 16  2  0  0  0
 13 17  1  0  0  0
 17 18  1  0  0  0
 17 19  1  0  0  0
 17 20  1  0  0  0
 27 28  1  0  0  0
 28 29  1  0  0  0
 29 30  2  0  0  0
 29 31  1  0  0  0
 31 32  1  0  0  0
 31 33  1  0  0  0
 33 34  2  0  0  0
 33 23  1  0  0  0
 28 24  2  0  0  0
  9  5  1  0  0  0
 16 10  1  0  0  0
  3  4  1  0  0  0
M  END
> <minimizedAffinity>
-7.49198

> <CNNscore>
0.3217735589

> <CNNaffinity>
6.1800394058

> <CNN_VS>
1.9885733128

> <CNNaffinity_variance>
0.1539722085

$$$$
[H]c1sc(N([H])C(=O)C([H])([H])n2c([H])c([H])c3c2c(=O)n(C([H])([H])[H])c(=O)n3C([H])([H])[H])nc1-c1c([H])c([H])c(C(F)(F)F)c(F)c1[H]


 34 37  0  0  0  0  0  0  0  0999 V2000
  153.5076  140.1964  182.2139 C   0  0  0  0  0  0  0  0  0  0  0  0
  153.6617  140.7203  181.0569 O   0  0  0  0  0  0  0  0  0  0  0  0
  152.9840  138.8959  182.2314 N   0  0  0  0  0  0  0  0  0  0  0  0
  152.7400  138.4082  181.3237 H   0  0  0  0  0  0  0  0  0  0  0  0
  152.7763  138.1841  183.4633 C   0  0  0  0  0  0  0  0  0  0  0  0
  153.4580  138.3051  184.5873 N   0  0  0  0  0  0  0  0  0  0  0  0
  153.1343  137.5863  185.6164 C   0  0  0  0  0  0  0  0  0  0  0  0
  152.0737  136.7186  185.4727 C   0  0  0  0  0  0  0  0  0  0  0  0
  151.6200  137.0070  183.8533 S   0  0  0  0  0  0  0  0  0  0  0  0
  153.8959  137.7122  186.8966 C   0  0  0  0  0  0  0  0  0  0  0  0
  153.4692  138.5131  187.9281 C   0  0  0  0  0  0  0  0  0  0  0  0
  154.1787  138.6234  189.1066 C   0  0  0  0  0  0  0  0  0  0  0  0
  155.3554  137.9279  189.2982 C   0  0  0  0  0  0  0  0  0  0  0  0
  155.7916  137.1227  188.2709 C   0  0  0  0  0  0  0  0  0  0  0  0
  156.9288  136.4276  188.4100 F   0  0  0  0  0  0  0  0  0  0  0  0
  155.0629  137.0181  187.0779 C   0  0  0  0  0  0  0  0  0  0  0  0
  156.0830  138.0762  190.5772 C   0  0  0  0  0  0  0  0  0  0  0  0
  157.3993  138.3967  190.4260 F   0  0  0  0  0  0  0  0  0  0  0  0
  156.0467  136.8838  191.3149 F   0  0  0  0  0  0  0  0  0  0  0  0
  155.4843  139.0258  191.3747 F   0  0  0  0  0  0  0  0  0  0  0  0
  153.8920  141.0052  183.3890 C   0  0  0  0  0  0  0  0  0  0  0  0
  158.8715  144.1776  182.2182 C   0  0  0  0  0  0  0  0  0  0  0  0
  158.2248  142.9462  182.6854 N   0  0  0  0  0  0  0  0  0  0  0  0
  156.8812  142.9515  182.6714 C   0  0  0  0  0  0  0  0  0  0  0  0
  155.9033  143.8448  182.3210 C   0  0  0  0  0  0  0  0  0  0  0  0
  154.7085  143.2367  182.5448 C   0  0  0  0  0  0  0  0  0  0  0  0
  154.9214  141.9912  183.0242 N   0  0  0  0  0  0  0  0  0  0  0  0
  156.2382  141.7921  183.1112 C   0  0  0  0  0  0  0  0  0  0  0  0
  157.0097  140.7209  183.5299 C   0  0  0  0  0  0  0  0  0  0  0  0
  156.4253  139.6885  183.9221 O   0  0  0  0  0  0  0  0  0  0  0  0
  158.3697  140.7561  183.5284 N   0  0  0  0  0  0  0  0  0  0  0  0
  159.0682  139.5927  183.9815 C   0  0  0  0  0  0  0  0  0  0  0  0
  158.9428  141.8839  183.0999 C   0  0  0  0  0  0  0  0  0  0  0  0
  160.1984  141.9509  183.0853 O   0  0  0  0  0  0  0  0  0  0  0  0
 22 23  1  0  0  0
 23 24  1  0  0  0
 24 25  1  0  0  0
 25 26  2  0  0  0
 26 27  1  0  0  0
 27 21  1  0  0  0
 21  1  1  0  0  0
  1  2  2  0  0  0
  1  3  1  0  0  0
  3  5  1  0  0  0
  5  6  2  0  0  0
  6  7  1  0  0  0
  7  8  2  0  0  0
  8  9  1  0  0  0
  7 10  1  0  0  0
 10 11  2  0  0  0
 11 12  1  0  0  0
 12 13  2  0  0  0
 13 14  1  0  0  0
 14 15  1  0  0  0
 14 16  2  0  0  0
 13 17  1  0  0  0
 17 18  1  0  0  0
 17 19  1  0  0  0
 17 20  1  0  0  0
 27 28  1  0  0  0
 28 29  1  0  0  0
 29 30  2  0  0  0
 29 31  1  0  0  0
 31 32  1  0  0  0
 31 33  1  0  0  0
 33 34  2  0  0  0
 33 23  1  0  0  0
 28 24  2  0  0  0
  9  5  1  0  0  0
 16 10  1  0  0  0
  3  4  1  0  0  0
M  END
> <minimizedAffinity>
-9.50135

> <CNNscore>
0.3152986765

> <CNNaffinity>
6.4246077538

> <CNN_VS>
2.0256702900

> <CNNaffinity_variance>
0.3188172281

$$$$
[H]c1sc(N([H])C(=O)C([H])([H])c2c([H])c([H])c([H])c3c2c(=O)n(C([H])([H])[H])c(=O)n3C([H])([H])[H])nc1-c1c([H])c([H])c([H])c(F)c1F


 32 35  0  0  0  0  0  0  0  0999 V2000
  155.5432  138.3200  185.8186 C   0  0  0  0  0  0  0  0  0  0  0  0
  156.5605  138.7861  186.4768 O   0  0  0  0  0  0  0  0  0  0  0  0
  155.3262  138.8843  184.5651 N   0  0  0  0  0  0  0  0  0  0  0  0
  154.5842  138.6161  183.9340 H   0  0  0  0  0  0  0  0  0  0  0  0
  156.1516  140.0266  184.1385 C   0  0  0  0  0  0  0  0  0  0  0  0
  157.3076  140.3599  184.6627 N   0  0  0  0  0  0  0  0  0  0  0  0
  157.9769  141.3918  184.2278 C   0  0  0  0  0  0  0  0  0  0  0  0
  157.4151  142.0967  183.2029 C   0  0  0  0  0  0  0  0  0  0  0  0
  155.9416  141.2010  182.9501 S   0  0  0  0  0  0  0  0  0  0  0  0
  159.2643  141.7671  184.8955 C   0  0  0  0  0  0  0  0  0  0  0  0
  159.2511  142.1979  186.2305 C   0  0  0  0  0  0  0  0  0  0  0  0
  160.3855  142.5860  186.8892 C   0  0  0  0  0  0  0  0  0  0  0  0
  161.5907  142.5511  186.2121 C   0  0  0  0  0  0  0  0  0  0  0  0
  161.6372  142.1372  184.9188 C   0  0  0  0  0  0  0  0  0  0  0  0
  162.7985  142.0990  184.2462 F   0  0  0  0  0  0  0  0  0  0  0  0
  160.4575  141.7494  184.2830 C   0  0  0  0  0  0  0  0  0  0  0  0
  160.5942  141.3467  182.9877 F   0  0  0  0  0  0  0  0  0  0  0  0
  154.7718  137.2833  186.4720 C   0  0  0  0  0  0  0  0  0  0  0  0
  156.6564  136.1447  192.2101 C   0  0  0  0  0  0  0  0  0  0  0  0
  156.4965  135.8811  190.7810 N   0  0  0  0  0  0  0  0  0  0  0  0
  155.7990  136.7580  190.0444 C   0  0  0  0  0  0  0  0  0  0  0  0
  155.2101  137.8541  190.6528 C   0  0  0  0  0  0  0  0  0  0  0  0
  154.4614  138.7211  189.9191 C   0  0  0  0  0  0  0  0  0  0  0  0
  154.3097  138.4847  188.5824 C   0  0  0  0  0  0  0  0  0  0  0  0
  154.9055  137.3673  187.9298 C   0  0  0  0  0  0  0  0  0  0  0  0
  155.6504  136.5027  188.6704 C   0  0  0  0  0  0  0  0  0  0  0  0
  156.2329  135.3579  188.1644 C   0  0  0  0  0  0  0  0  0  0  0  0
  156.1206  135.0852  186.9464 O   0  0  0  0  0  0  0  0  0  0  0  0
  156.9305  134.5019  188.9655 N   0  0  0  0  0  0  0  0  0  0  0  0
  157.5061  133.3133  188.3971 C   0  0  0  0  0  0  0  0  0  0  0  0
  157.0580  134.7703  190.2688 C   0  0  0  0  0  0  0  0  0  0  0  0
  157.6947  134.0117  191.0658 O   0  0  0  0  0  0  0  0  0  0  0  0
 19 20  1  0  0  0
 20 21  1  0  0  0
 21 22  2  0  0  0
 22 23  1  0  0  0
 23 24  2  0  0  0
 24 25  1  0  0  0
 25 18  1  0  0  0
 18  1  1  0  0  0
  1  2  2  0  0  0
  1  3  1  0  0  0
  3  5  1  0  0  0
  5  6  2  0  0  0
  6  7  1  0  0  0
  7  8  2  0  0  0
  8  9  1  0  0  0
  7 10  1  0  0  0
 10 11  2  0  0  0
 11 12  1  0  0  0
 12 13  2  0  0  0
 13 14  1  0  0  0
 14 15  1  0  0  0
 14 16  2  0  0  0
 16 17  1  0  0  0
 25 26  2  0  0  0
 26 27  1  0  0  0
 27 28  2  0  0  0
 27 29  1  0  0  0
 29 30  1  0  0  0
 29 31  1  0  0  0
 31 32  2  0  0  0
 31 20  1  0  0  0
 26 21  1  0  0  0
  9  5  1  0  0  0
 16 10  1  0  0  0
  3  4  1  0  0  0
M  END
> <minimizedAffinity>
-9.59304

> <CNNscore>
0.5106738806

> <CNNaffinity>
6.5839943886

> <CNN_VS>
3.3622739315

> <CNNaffinity_variance>
0.1056987867

$$$$
[H]c1sc(N([H])C(=O)C([H])([H])c2c([H])c([H])c([H])c3c2c(=O)n(C([H])([H])[H])c(=O)n3C([H])([H])[H])nc1-c1c([H])c([H])c([H])c(F)c1F


 32 35  0  0  0  0  0  0  0  0999 V2000
  155.2763  141.6059  182.3645 C   0  0  0  0  0  0  0  0  0  0  0  0
  155.6074  142.8415  182.5858 O   0  0  0  0  0  0  0  0  0  0  0  0
  156.3336  140.7058  182.2705 N   0  0  0  0  0  0  0  0  0  0  0  0
  156.2317  139.7129  182.1141 H   0  0  0  0  0  0  0  0  0  0  0  0
  157.7150  141.2150  182.2911 C   0  0  0  0  0  0  0  0  0  0  0  0
  158.4252  141.4267  183.3743 N   0  0  0  0  0  0  0  0  0  0  0  0
  159.6452  141.8837  183.3064 C   0  0  0  0  0  0  0  0  0  0  0  0
  160.1394  142.1230  182.0567 C   0  0  0  0  0  0  0  0  0  0  0  0
  158.7797  141.6660  181.0670 S   0  0  0  0  0  0  0  0  0  0  0  0
  160.3965  142.1637  184.5718 C   0  0  0  0  0  0  0  0  0  0  0  0
  159.6981  142.5936  185.7099 C   0  0  0  0  0  0  0  0  0  0  0  0
  160.3259  142.8975  186.8868 C   0  0  0  0  0  0  0  0  0  0  0  0
  161.7016  142.7751  186.9557 C   0  0  0  0  0  0  0  0  0  0  0  0
  162.4067  142.3596  185.8712 C   0  0  0  0  0  0  0  0  0  0  0  0
  163.7428  142.2371  185.9204 F   0  0  0  0  0  0  0  0  0  0  0  0
  161.7285  142.0592  184.6896 C   0  0  0  0  0  0  0  0  0  0  0  0
  162.5115  141.6483  183.6519 F   0  0  0  0  0  0  0  0  0  0  0  0
  153.8602  141.3291  182.2427 C   0  0  0  0  0  0  0  0  0  0  0  0
  151.4224  135.7991  183.3607 C   0  0  0  0  0  0  0  0  0  0  0  0
  151.5959  137.0605  182.6422 N   0  0  0  0  0  0  0  0  0  0  0  0
  152.4783  137.9504  183.1189 C   0  0  0  0  0  0  0  0  0  0  0  0
  153.1614  137.6818  184.2935 C   0  0  0  0  0  0  0  0  0  0  0  0
  154.0222  138.6012  184.8075 C   0  0  0  0  0  0  0  0  0  0  0  0
  154.1934  139.7811  184.1409 C   0  0  0  0  0  0  0  0  0  0  0  0
  153.5063  140.0832  182.9301 C   0  0  0  0  0  0  0  0  0  0  0  0
  152.6445  139.1603  182.4234 C   0  0  0  0  0  0  0  0  0  0  0  0
  151.8827  139.3577  181.2892 C   0  0  0  0  0  0  0  0  0  0  0  0
  151.9918  140.4244  180.6406 O   0  0  0  0  0  0  0  0  0  0  0  0
  150.9991  138.4139  180.8537 N   0  0  0  0  0  0  0  0  0  0  0  0
  150.2151  138.6703  179.6761 C   0  0  0  0  0  0  0  0  0  0  0  0
  150.8625  137.2710  181.5334 C   0  0  0  0  0  0  0  0  0  0  0  0
  150.0560  136.3546  181.1786 O   0  0  0  0  0  0  0  0  0  0  0  0
 19 20  1  0  0  0
 20 21  1  0  0  0
 21 22  2  0  0  0
 22 23  1  0  0  0
 23 24  2  0  0  0
 24 25  1  0  0  0
 25 18  1  0  0  0
 18  1  1  0  0  0
  1  2  2  0  0  0
  1  3  1  0  0  0
  3  5  1  0  0  0
  5  6  2  0  0  0
  6  7  1  0  0  0
  7  8  2  0  0  0
  8  9  1  0  0  0
  7 10  1  0  0  0
 10 11  2  0  0  0
 11 12  1  0  0  0
 12 13  2  0  0  0
 13 14  1  0  0  0
 14 15  1  0  0  0
 14 16  2  0  0  0
 16 17  1  0  0  0
 25 26  2  0  0  0
 26 27  1  0  0  0
 27 28  2  0  0  0
 27 29  1  0  0  0
 29 30  1  0  0  0
 29 31  1  0  0  0
 31 32  2  0  0  0
 31 20  1  0  0  0
 26 21  1  0  0  0
  9  5  1  0  0  0
 16 10  1  0  0  0
  3  4  1  0  0  0
M  END
> <minimizedAffinity>
-10.00575

> <CNNscore>
0.4774281979

> <CNNaffinity>
6.7922463417

> <CNN_VS>
3.2428100109

> <CNNaffinity_variance>
0.0965960994

$$$$
[H]c1sc(N([H])C(=O)C([H])([H])c2c([H])c([H])c([H])c3c2c(=O)n(C([H])([H])[H])c(=O)n3C([H])([H])[H])nc1-c1c([H])c([H])c([H])c(F)c1F


 32 35  0  0  0  0  0  0  0  0999 V2000
  155.5181  138.3308  185.8061 C   0  0  0  0  0  0  0  0  0  0  0  0
  156.5735  138.7482  186.4362 O   0  0  0  0  0  0  0  0  0  0  0  0
  155.2527  138.9581  184.5925 N   0  0  0  0  0  0  0  0  0  0  0  0
  154.4771  138.7325  183.9857 H   0  0  0  0  0  0  0  0  0  0  0  0
  156.0780  140.1061  184.1813 C   0  0  0  0  0  0  0  0  0  0  0  0
  157.2477  140.4152  184.6897 N   0  0  0  0  0  0  0  0  0  0  0  0
  157.9159  141.4543  184.2704 C   0  0  0  0  0  0  0  0  0  0  0  0
  157.3379  142.1931  183.2789 C   0  0  0  0  0  0  0  0  0  0  0  0
  155.8521  141.3162  183.0324 S   0  0  0  0  0  0  0  0  0  0  0  0
  159.2204  141.8003  184.9205 C   0  0  0  0  0  0  0  0  0  0  0  0
  159.2355  142.2268  186.2569 C   0  0  0  0  0  0  0  0  0  0  0  0
  160.3872  142.5888  186.9003 C   0  0  0  0  0  0  0  0  0  0  0  0
  161.5815  142.5309  186.2057 C   0  0  0  0  0  0  0  0  0  0  0  0
  161.6006  142.1205  184.9106 C   0  0  0  0  0  0  0  0  0  0  0  0
  162.7510  142.0603  184.2211 F   0  0  0  0  0  0  0  0  0  0  0  0
  160.4040  141.7597  184.2908 C   0  0  0  0  0  0  0  0  0  0  0  0
  160.5135  141.3586  182.9923 F   0  0  0  0  0  0  0  0  0  0  0  0
  154.7592  137.2764  186.4460 C   0  0  0  0  0  0  0  0  0  0  0  0
  152.7941  136.9552  192.2605 C   0  0  0  0  0  0  0  0  0  0  0  0
  152.7086  136.7809  190.8115 N   0  0  0  0  0  0  0  0  0  0  0  0
  153.7333  137.2025  190.0564 C   0  0  0  0  0  0  0  0  0  0  0  0
  154.8146  137.8311  190.6515 C   0  0  0  0  0  0  0  0  0  0  0  0
  155.8350  138.3037  189.8860 C   0  0  0  0  0  0  0  0  0  0  0  0
  155.7654  138.1420  188.5314 C   0  0  0  0  0  0  0  0  0  0  0  0
  154.6671  137.4977  187.8926 C   0  0  0  0  0  0  0  0  0  0  0  0
  153.6487  137.0301  188.6642 C   0  0  0  0  0  0  0  0  0  0  0  0
  152.5088  136.4369  188.1598 C   0  0  0  0  0  0  0  0  0  0  0  0
  152.3858  136.2691  186.9240 O   0  0  0  0  0  0  0  0  0  0  0  0
  151.4976  136.0292  188.9798 N   0  0  0  0  0  0  0  0  0  0  0  0
  150.3220  135.4309  188.4079 C   0  0  0  0  0  0  0  0  0  0  0  0
  151.6052  136.2036  190.3008 C   0  0  0  0  0  0  0  0  0  0  0  0
  150.6975  135.8459  191.1157 O   0  0  0  0  0  0  0  0  0  0  0  0
 19 20  1  0  0  0
 20 21  1  0  0  0
 21 22  2  0  0  0
 22 23  1  0  0  0
 23 24  2  0  0  0
 24 25  1  0  0  0
 25 18  1  0  0  0
 18  1  1  0  0  0
  1  2  2  0  0  0
  1  3  1  0  0  0
  3  5  1  0  0  0
  5  6  2  0  0  0
  6  7  1  0  0  0
  7  8  2  0  0  0
  8  9  1  0  0  0
  7 10  1  0  0  0
 10 11  2  0  0  0
 11 12  1  0  0  0
 12 13  2  0  0  0
 13 14  1  0  0  0
 14 15  1  0  0  0
 14 16  2  0  0  0
 16 17  1  0  0  0
 25 26  2  0  0  0
 26 27  1  0  0  0
 27 28  2  0  0  0
 27 29  1  0  0  0
 29 30  1  0  0  0
 29 31  1  0  0  0
 31 32  2  0  0  0
 31 20  1  0  0  0
 26 21  1  0  0  0
  9  5  1  0  0  0
 16 10  1  0  0  0
  3  4  1  0  0  0
M  END
> <minimizedAffinity>
-9.47905

> <CNNscore>
0.4723306000

> <CNNaffinity>
6.3450770378

> <CNN_VS>
2.9969739914

> <CNNaffinity_variance>
0.1283192933

$$$$
[H]c1sc(N([H])C(=O)C([H])([H])c2c([H])c([H])c([H])c3c2c(=O)n(C([H])([H])[H])c(=O)n3C([H])([H])[H])nc1-c1c([H])c([H])c([H])c(F)c1F


 32 35  0  0  0  0  0  0  0  0999 V2000
  154.0547  137.6218  186.1473 C   0  0  0  0  0  0  0  0  0  0  0  0
  153.1529  138.5081  186.4414 O   0  0  0  0  0  0  0  0  0  0  0  0
  154.6831  137.7863  184.9165 N   0  0  0  0  0  0  0  0  0  0  0  0
  155.4116  137.1853  184.5576 H   0  0  0  0  0  0  0  0  0  0  0  0
  154.2070  138.8367  184.0011 C   0  0  0  0  0  0  0  0  0  0  0  0
  153.2173  138.7038  183.1496 N   0  0  0  0  0  0  0  0  0  0  0  0
  152.8583  139.6855  182.3689 C   0  0  0  0  0  0  0  0  0  0  0  0
  153.5601  140.8500  182.4893 C   0  0  0  0  0  0  0  0  0  0  0  0
  154.7015  140.4243  183.7356 S   0  0  0  0  0  0  0  0  0  0  0  0
  151.7604  139.4686  181.3730 C   0  0  0  0  0  0  0  0  0  0  0  0
  151.9125  139.9432  180.0617 C   0  0  0  0  0  0  0  0  0  0  0  0
  150.9366  139.8074  179.1126 C   0  0  0  0  0  0  0  0  0  0  0  0
  149.7559  139.1773  179.4606 C   0  0  0  0  0  0  0  0  0  0  0  0
  149.5784  138.7050  180.7222 C   0  0  0  0  0  0  0  0  0  0  0  0
  148.4376  138.0925  181.0772 F   0  0  0  0  0  0  0  0  0  0  0  0
  150.5985  138.8634  181.6606 C   0  0  0  0  0  0  0  0  0  0  0  0
  150.3386  138.3593  182.9004 F   0  0  0  0  0  0  0  0  0  0  0  0
  154.2844  136.5840  187.1307 C   0  0  0  0  0  0  0  0  0  0  0  0
  152.4360  137.4467  192.9284 C   0  0  0  0  0  0  0  0  0  0  0  0
  152.3435  136.9422  191.5593 N   0  0  0  0  0  0  0  0  0  0  0  0
  153.3204  137.2560  190.6961 C   0  0  0  0  0  0  0  0  0  0  0  0
  154.3572  138.0812  191.0993 C   0  0  0  0  0  0  0  0  0  0  0  0
  155.3256  138.4417  190.2146 C   0  0  0  0  0  0  0  0  0  0  0  0
  155.2492  137.9721  188.9343 C   0  0  0  0  0  0  0  0  0  0  0  0
  154.1962  137.1203  188.4925 C   0  0  0  0  0  0  0  0  0  0  0  0
  153.2294  136.7663  189.3819 C   0  0  0  0  0  0  0  0  0  0  0  0
  152.1328  135.9916  189.0609 C   0  0  0  0  0  0  0  0  0  0  0  0
  152.0054  135.5392  187.8992 O   0  0  0  0  0  0  0  0  0  0  0  0
  151.1691  135.7072  189.9837 N   0  0  0  0  0  0  0  0  0  0  0  0
  150.0364  134.9096  189.5993 C   0  0  0  0  0  0  0  0  0  0  0  0
  151.2819  136.1843  191.2274 C   0  0  0  0  0  0  0  0  0  0  0  0
  150.4174  135.9548  192.1306 O   0  0  0  0  0  0  0  0  0  0  0  0
 19 20  1  0  0  0
 20 21  1  0  0  0
 21 22  2  0  0  0
 22 23  1  0  0  0
 23 24  2  0  0  0
 24 25  1  0  0  0
 25 18  1  0  0  0
 18  1  1  0  0  0
  1  2  2  0  0  0
  1  3  1  0  0  0
  3  5  1  0  0  0
  5  6  2  0  0  0
  6  7  1  0  0  0
  7  8  2  0  0  0
  8  9  1  0  0  0
  7 10  1  0  0  0
 10 11  2  0  0  0
 11 12  1  0  0  0
 12 13  2  0  0  0
 13 14  1  0  0  0
 14 15  1  0  0  0
 14 16  2  0  0  0
 16 17  1  0  0  0
 25 26  2  0  0  0
 26 27  1  0  0  0
 27 28  2  0  0  0
 27 29  1  0  0  0
 29 30  1  0  0  0
 29 31  1  0  0  0
 31 32  2  0  0  0
 31 20  1  0  0  0
 26 21  1  0  0  0
  9  5  1  0  0  0
 16 10  1  0  0  0
  3  4  1  0  0  0
M  END
> <minimizedAffinity>
-7.94870

> <CNNscore>
0.4628975391

> <CNNaffinity>
5.7664084435

> <CNN_VS>
2.6692562103

> <CNNaffinity_variance>
0.1352412999

$$$$
[H]c1sc(N([H])C(=O)C([H])([H])c2c([H])c([H])c([H])c3c2c(=O)n(C([H])([H])[H])c(=O)n3C([H])([H])[H])nc1-c1c([H])c([H])c([H])c(F)c1F


 32 35  0  0  0  0  0  0  0  0999 V2000
  155.0191  141.4978  183.0083 C   0  0  0  0  0  0  0  0  0  0  0  0
  155.4644  142.7124  182.9003 O   0  0  0  0  0  0  0  0  0  0  0  0
  155.9899  140.5022  183.0635 N   0  0  0  0  0  0  0  0  0  0  0  0
  155.7969  139.5152  183.1598 H   0  0  0  0  0  0  0  0  0  0  0  0
  157.4032  140.8647  182.8658 C   0  0  0  0  0  0  0  0  0  0  0  0
  158.2359  141.2044  183.8215 N   0  0  0  0  0  0  0  0  0  0  0  0
  159.4760  141.5155  183.5614 C   0  0  0  0  0  0  0  0  0  0  0  0
  159.8570  141.4638  182.2518 C   0  0  0  0  0  0  0  0  0  0  0  0
  158.3699  140.9673  181.4908 S   0  0  0  0  0  0  0  0  0  0  0  0
  160.3737  141.9523  184.6783 C   0  0  0  0  0  0  0  0  0  0  0  0
  159.8122  142.4742  185.8531 C   0  0  0  0  0  0  0  0  0  0  0  0
  160.5749  142.9212  186.8971 C   0  0  0  0  0  0  0  0  0  0  0  0
  161.9519  142.8547  186.7889 C   0  0  0  0  0  0  0  0  0  0  0  0
  162.5265  142.3529  185.6646 C   0  0  0  0  0  0  0  0  0  0  0  0
  163.8617  142.2829  185.5424 F   0  0  0  0  0  0  0  0  0  0  0  0
  161.7132  141.9072  184.6225 C   0  0  0  0  0  0  0  0  0  0  0  0
  162.3707  141.4176  183.5332 F   0  0  0  0  0  0  0  0  0  0  0  0
  153.5804  141.3396  183.0541 C   0  0  0  0  0  0  0  0  0  0  0  0
  151.8100  135.5986  181.7579 C   0  0  0  0  0  0  0  0  0  0  0  0
  152.3611  136.6704  182.5856 N   0  0  0  0  0  0  0  0  0  0  0  0
  152.4732  137.8954  182.0519 C   0  0  0  0  0  0  0  0  0  0  0  0
  152.1163  138.1064  180.7303 C   0  0  0  0  0  0  0  0  0  0  0  0
  152.2728  139.3358  180.1695 C   0  0  0  0  0  0  0  0  0  0  0  0
  152.7835  140.3441  180.9364 C   0  0  0  0  0  0  0  0  0  0  0  0
  153.1566  140.1566  182.2984 C   0  0  0  0  0  0  0  0  0  0  0  0
  153.0003  138.9236  182.8519 C   0  0  0  0  0  0  0  0  0  0  0  0
  153.3736  138.6048  184.1421 C   0  0  0  0  0  0  0  0  0  0  0  0
  153.8554  139.4875  184.8898 O   0  0  0  0  0  0  0  0  0  0  0  0
  153.2364  137.3377  184.6289 N   0  0  0  0  0  0  0  0  0  0  0  0
  153.6540  137.0487  185.9739 C   0  0  0  0  0  0  0  0  0  0  0  0
  152.7301  136.3791  183.8467 C   0  0  0  0  0  0  0  0  0  0  0  0
  152.5784  135.1806  184.2422 O   0  0  0  0  0  0  0  0  0  0  0  0
 19 20  1  0  0  0
 20 21  1  0  0  0
 21 22  2  0  0  0
 22 23  1  0  0  0
 23 24  2  0  0  0
 24 25  1  0  0  0
 25 18  1  0  0  0
 18  1  1  0  0  0
  1  2  2  0  0  0
  1  3  1  0  0  0
  3  5  1  0  0  0
  5  6  2  0  0  0
  6  7  1  0  0  0
  7  8  2  0  0  0
  8  9  1  0  0  0
  7 10  1  0  0  0
 10 11  2  0  0  0
 11 12  1  0  0  0
 12 13  2  0  0  0
 13 14  1  0  0  0
 14 15  1  0  0  0
 14 16  2  0  0  0
 16 17  1  0  0  0
 25 26  2  0  0  0
 26 27  1  0  0  0
 27 28  2  0  0  0
 27 29  1  0  0  0
 29 30  1  0  0  0
 29 31  1  0  0  0
 31 32  2  0  0  0
 31 20  1  0  0  0
 26 21  1  0  0  0
  9  5  1  0  0  0
 16 10  1  0  0  0
  3  4  1  0  0  0
M  END
> <minimizedAffinity>
-9.65608

> <CNNscore>
0.4339113832

> <CNNaffinity>
6.6238570213

> <CNN_VS>
2.8741669655

> <CNNaffinity_variance>
0.1041773409

$$$$
[H]c1sc(N([H])C(=O)C([H])([H])c2c([H])c([H])c([H])c3c2c(=O)n(C([H])([H])[H])c(=O)n3C([H])([H])[H])nc1-c1c([H])c([H])c([H])c(F)c1F


 32 35  0  0  0  0  0  0  0  0999 V2000
  154.8442  137.7145  185.5915 C   0  0  0  0  0  0  0  0  0  0  0  0
  154.7883  137.5432  184.3059 O   0  0  0  0  0  0  0  0  0  0  0  0
  155.6089  138.7941  186.0234 N   0  0  0  0  0  0  0  0  0  0  0  0
  155.7351  139.0598  186.9899 H   0  0  0  0  0  0  0  0  0  0  0  0
  156.3876  139.5630  185.0383 C   0  0  0  0  0  0  0  0  0  0  0  0
  157.5747  140.0802  185.2523 N   0  0  0  0  0  0  0  0  0  0  0  0
  158.1984  140.7526  184.3245 C   0  0  0  0  0  0  0  0  0  0  0  0
  157.5554  140.8834  183.1277 C   0  0  0  0  0  0  0  0  0  0  0  0
  156.0781  140.0153  183.4461 S   0  0  0  0  0  0  0  0  0  0  0  0
  159.5265  141.3730  184.6338 C   0  0  0  0  0  0  0  0  0  0  0  0
  160.5840  141.2333  183.7227 C   0  0  0  0  0  0  0  0  0  0  0  0
  161.8301  141.7465  183.9582 C   0  0  0  0  0  0  0  0  0  0  0  0
  162.0540  142.4294  185.1396 C   0  0  0  0  0  0  0  0  0  0  0  0
  161.0498  142.5832  186.0419 C   0  0  0  0  0  0  0  0  0  0  0  0
  161.2506  143.2417  187.1945 F   0  0  0  0  0  0  0  0  0  0  0  0
  159.7932  142.0448  185.7637 C   0  0  0  0  0  0  0  0  0  0  0  0
  158.8436  142.2464  186.7209 F   0  0  0  0  0  0  0  0  0  0  0  0
  154.1109  136.7643  186.4017 C   0  0  0  0  0  0  0  0  0  0  0  0
  157.3810  134.3460  191.0096 C   0  0  0  0  0  0  0  0  0  0  0  0
  156.5666  135.3581  190.3387 N   0  0  0  0  0  0  0  0  0  0  0  0
  156.1729  135.1274  189.0779 C   0  0  0  0  0  0  0  0  0  0  0  0
  156.5816  133.9743  188.4286 C   0  0  0  0  0  0  0  0  0  0  0  0
  156.2251  133.7576  187.1338 C   0  0  0  0  0  0  0  0  0  0  0  0
  155.4612  134.6960  186.5002 C   0  0  0  0  0  0  0  0  0  0  0  0
  155.0245  135.8897  187.1437 C   0  0  0  0  0  0  0  0  0  0  0  0
  155.3874  136.1012  188.4377 C   0  0  0  0  0  0  0  0  0  0  0  0
  155.0717  137.2405  189.1506 C   0  0  0  0  0  0  0  0  0  0  0  0
  154.3797  138.1394  188.6182 O   0  0  0  0  0  0  0  0  0  0  0  0
  155.5034  137.4190  190.4323 N   0  0  0  0  0  0  0  0  0  0  0  0
  155.1635  138.6293  191.1301 C   0  0  0  0  0  0  0  0  0  0  0  0
  156.2477  136.4755  191.0179 C   0  0  0  0  0  0  0  0  0  0  0  0
  156.6802  136.5841  192.2083 O   0  0  0  0  0  0  0  0  0  0  0  0
 19 20  1  0  0  0
 20 21  1  0  0  0
 21 22  2  0  0  0
 22 23  1  0  0  0
 23 24  2  0  0  0
 24 25  1  0  0  0
 25 18  1  0  0  0
 18  1  1  0  0  0
  1  2  2  0  0  0
  1  3  1  0  0  0
  3  5  1  0  0  0
  5  6  2  0  0  0
  6  7  1  0  0  0
  7  8  2  0  0  0
  8  9  1  0  0  0
  7 10  1  0  0  0
 10 11  2  0  0  0
 11 12  1  0  0  0
 12 13  2  0  0  0
 13 14  1  0  0  0
 14 15  1  0  0  0
 14 16  2  0  0  0
 16 17  1  0  0  0
 25 26  2  0  0  0
 26 27  1  0  0  0
 27 28  2  0  0  0
 27 29  1  0  0  0
 29 30  1  0  0  0
 29 31  1  0  0  0
 31 32  2  0  0  0
 31 20  1  0  0  0
 26 21  1  0  0  0
  9  5  1  0  0  0
 16 10  1  0  0  0
  3  4  1  0  0  0
M  END
> <minimizedAffinity>
-8.43538

> <CNNscore>
0.4220739007

> <CNNaffinity>
6.5092148781

> <CNN_VS>
2.7473697662

> <CNNaffinity_variance>
0.0745156854

$$$$
[H]c1sc(N([H])C(=O)C([H])([H])c2c([H])c([H])c([H])c3c2c(=O)n(C([H])([H])[H])c(=O)n3C([H])([H])[H])nc1-c1c([H])c([H])c([H])c(F)c1F


 32 35  0  0  0  0  0  0  0  0999 V2000
  154.8210  140.0296  183.8746 C   0  0  0  0  0  0  0  0  0  0  0  0
  154.7287  141.3193  183.9908 O   0  0  0  0  0  0  0  0  0  0  0  0
  156.0911  139.5394  183.5863 N   0  0  0  0  0  0  0  0  0  0  0  0
  156.3198  138.5611  183.4798 H   0  0  0  0  0  0  0  0  0  0  0  0
  157.1815  140.4886  183.3071 C   0  0  0  0  0  0  0  0  0  0  0  0
  158.1404  140.8044  184.1456 N   0  0  0  0  0  0  0  0  0  0  0  0
  159.0706  141.6596  183.8208 C   0  0  0  0  0  0  0  0  0  0  0  0
  158.9944  142.1994  182.5695 C   0  0  0  0  0  0  0  0  0  0  0  0
  157.5614  141.4197  181.9564 S   0  0  0  0  0  0  0  0  0  0  0  0
  160.1117  142.0320  184.8316 C   0  0  0  0  0  0  0  0  0  0  0  0
  159.7153  142.5389  186.0781 C   0  0  0  0  0  0  0  0  0  0  0  0
  160.6141  142.9283  187.0331 C   0  0  0  0  0  0  0  0  0  0  0  0
  161.9647  142.8167  186.7579 C   0  0  0  0  0  0  0  0  0  0  0  0
  162.3808  142.3280  185.5604 C   0  0  0  0  0  0  0  0  0  0  0  0
  163.6881  142.2148  185.2762 F   0  0  0  0  0  0  0  0  0  0  0  0
  161.4321  141.9416  184.6134 C   0  0  0  0  0  0  0  0  0  0  0  0
  161.9353  141.4612  183.4409 F   0  0  0  0  0  0  0  0  0  0  0  0
  153.5977  139.2761  184.0562 C   0  0  0  0  0  0  0  0  0  0  0  0
  154.2999  133.5841  186.2656 C   0  0  0  0  0  0  0  0  0  0  0  0
  153.9566  134.5949  185.2666 N   0  0  0  0  0  0  0  0  0  0  0  0
  154.0615  135.8881  185.6051 C   0  0  0  0  0  0  0  0  0  0  0  0
  154.4395  136.2350  186.8916 C   0  0  0  0  0  0  0  0  0  0  0  0
  154.5014  137.5445  187.2548 C   0  0  0  0  0  0  0  0  0  0  0  0
  154.1860  138.4959  186.3269 C   0  0  0  0  0  0  0  0  0  0  0  0
  153.7964  138.1685  184.9962 C   0  0  0  0  0  0  0  0  0  0  0  0
  153.7338  136.8566  184.6410 C   0  0  0  0  0  0  0  0  0  0  0  0
  153.3200  136.4126  183.4010 C   0  0  0  0  0  0  0  0  0  0  0  0
  153.0103  137.2398  182.5121 O   0  0  0  0  0  0  0  0  0  0  0  0
  153.2319  135.0814  183.1161 N   0  0  0  0  0  0  0  0  0  0  0  0
  152.7803  134.6656  181.8160 C   0  0  0  0  0  0  0  0  0  0  0  0
  153.5518  134.1814  184.0515 C   0  0  0  0  0  0  0  0  0  0  0  0
  153.4894  132.9284  183.8469 O   0  0  0  0  0  0  0  0  0  0  0  0
 19 20  1  0  0  0
 20 21  1  0  0  0
 21 22  2  0  0  0
 22 23  1  0  0  0
 23 24  2  0  0  0
 24 25  1  0  0  0
 25 18  1  0  0  0
 18  1  1  0  0  0
  1  2  2  0  0  0
  1  3  1  0  0  0
  3  5  1  0  0  0
  5  6  2  0  0  0
  6  7  1  0  0  0
  7  8  2  0  0  0
  8  9  1  0  0  0
  7 10  1  0  0  0
 10 11  2  0  0  0
 11 12  1  0  0  0
 12 13  2  0  0  0
 13 14  1  0  0  0
 14 15  1  0  0  0
 14 16  2  0  0  0
 16 17  1  0  0  0
 25 26  2  0  0  0
 26 27  1  0  0  0
 27 28  2  0  0  0
 27 29  1  0  0  0
 29 30  1  0  0  0
 29 31  1  0  0  0
 31 32  2  0  0  0
 31 20  1  0  0  0
 26 21  1  0  0  0
  9  5  1  0  0  0
 16 10  1  0  0  0
  3  4  1  0  0  0
M  END
> <minimizedAffinity>
-8.36823

> <CNNscore>
0.3635306954

> <CNNaffinity>
6.4276566505

> <CNN_VS>
2.3366506100

> <CNNaffinity_variance>
0.1068261415

$$$$
[H]c1sc(N([H])C(=O)C([H])([H])c2c([H])c([H])c([H])c3c2c(=O)n(C([H])([H])[H])c(=O)n3C([H])([H])[H])nc1-c1c([H])c([H])c([H])c(F)c1F


 32 35  0  0  0  0  0  0  0  0999 V2000
  153.6512  136.7693  187.1151 C   0  0  0  0  0  0  0  0  0  0  0  0
  152.7395  137.6189  187.4790 O   0  0  0  0  0  0  0  0  0  0  0  0
  154.4294  136.2431  188.1419 N   0  0  0  0  0  0  0  0  0  0  0  0
  155.1666  135.5640  188.0150 H   0  0  0  0  0  0  0  0  0  0  0  0
  154.2658  136.7666  189.5083 C   0  0  0  0  0  0  0  0  0  0  0  0
  153.5691  136.1897  190.4591 N   0  0  0  0  0  0  0  0  0  0  0  0
  153.4713  136.7221  191.6462 C   0  0  0  0  0  0  0  0  0  0  0  0
  154.1320  137.8999  191.8439 C   0  0  0  0  0  0  0  0  0  0  0  0
  154.8476  138.1487  190.2744 S   0  0  0  0  0  0  0  0  0  0  0  0
  152.6181  136.0563  192.6820 C   0  0  0  0  0  0  0  0  0  0  0  0
  153.2156  135.2201  193.6368 C   0  0  0  0  0  0  0  0  0  0  0  0
  152.4915  134.5566  194.5892 C   0  0  0  0  0  0  0  0  0  0  0  0
  151.1183  134.7179  194.6106 C   0  0  0  0  0  0  0  0  0  0  0  0
  150.5096  135.5222  193.7003 C   0  0  0  0  0  0  0  0  0  0  0  0
  149.1774  135.6884  193.7058 F   0  0  0  0  0  0  0  0  0  0  0  0
  151.2841  136.1815  192.7454 C   0  0  0  0  0  0  0  0  0  0  0  0
  150.5941  136.9691  191.8724 F   0  0  0  0  0  0  0  0  0  0  0  0
  153.7398  136.4851  185.6979 C   0  0  0  0  0  0  0  0  0  0  0  0
  153.4891  141.2261  181.7948 C   0  0  0  0  0  0  0  0  0  0  0  0
  153.0601  139.9589  182.3845 N   0  0  0  0  0  0  0  0  0  0  0  0
  153.7845  139.4448  183.3889 C   0  0  0  0  0  0  0  0  0  0  0  0
  154.9362  140.0899  183.8082 C   0  0  0  0  0  0  0  0  0  0  0  0
  155.7010  139.5483  184.7942 C   0  0  0  0  0  0  0  0  0  0  0  0
  155.3059  138.3664  185.3535 C   0  0  0  0  0  0  0  0  0  0  0  0
  154.1253  137.6823  184.9441 C   0  0  0  0  0  0  0  0  0  0  0  0
  153.3669  138.2282  183.9552 C   0  0  0  0  0  0  0  0  0  0  0  0
  152.2330  137.6355  183.4368 C   0  0  0  0  0  0  0  0  0  0  0  0
  151.8271  136.5463  183.9052 O   0  0  0  0  0  0  0  0  0  0  0  0
  151.5378  138.2072  182.4117 N   0  0  0  0  0  0  0  0  0  0  0  0
  150.3717  137.5451  181.8932 C   0  0  0  0  0  0  0  0  0  0  0  0
  151.9563  139.3661  181.8930 C   0  0  0  0  0  0  0  0  0  0  0  0
  151.3522  139.9472  180.9373 O   0  0  0  0  0  0  0  0  0  0  0  0
 19 20  1  0  0  0
 20 21  1  0  0  0
 21 22  2  0  0  0
 22 23  1  0  0  0
 23 24  2  0  0  0
 24 25  1  0  0  0
 25 18  1  0  0  0
 18  1  1  0  0  0
  1  2  2  0  0  0
  1  3  1  0  0  0
  3  5  1  0  0  0
  5  6  2  0  0  0
  6  7  1  0  0  0
  7  8  2  0  0  0
  8  9  1  0  0  0
  7 10  1  0  0  0
 10 11  2  0  0  0
 11 12  1  0  0  0
 12 13  2  0  0  0
 13 14  1  0  0  0
 14 15  1  0  0  0
 14 16  2  0  0  0
 16 17  1  0  0  0
 25 26  2  0  0  0
 26 27  1  0  0  0
 27 28  2  0  0  0
 27 29  1  0  0  0
 29 30  1  0  0  0
 29 31  1  0  0  0
 31 32  2  0  0  0
 31 20  1  0  0  0
 26 21  1  0  0  0
  9  5  1  0  0  0
 16 10  1  0  0  0
  3  4  1  0  0  0
M  END
> <minimizedAffinity>
-7.27765

> <CNNscore>
0.3629621863

> <CNNaffinity>
5.6795206070

> <CNN_VS>
2.0614511967

> <CNNaffinity_variance>
0.1204307899

$$$$
[H]c1sc(N([H])C(=O)C([H])([H])c2c([H])c([H])c([H])c3c2c(=O)n(C([H])([H])[H])c(=O)n3C([H])([H])[H])nc1-c1c([H])c([H])c([H])c(F)c1F


 32 35  0  0  0  0  0  0  0  0999 V2000
  154.3500  137.9194  187.4594 C   0  0  0  0  0  0  0  0  0  0  0  0
  153.4827  138.8771  187.3331 O   0  0  0  0  0  0  0  0  0  0  0  0
  155.2399  137.7681  186.4001 N   0  0  0  0  0  0  0  0  0  0  0  0
  155.9761  137.0774  186.3613 H   0  0  0  0  0  0  0  0  0  0  0  0
  155.0605  138.5853  185.1885 C   0  0  0  0  0  0  0  0  0  0  0  0
  154.0508  138.4888  184.3557 N   0  0  0  0  0  0  0  0  0  0  0  0
  153.9676  139.2507  183.3000 C   0  0  0  0  0  0  0  0  0  0  0  0
  154.9780  140.1493  183.1138 C   0  0  0  0  0  0  0  0  0  0  0  0
  155.9833  139.8124  184.4969 S   0  0  0  0  0  0  0  0  0  0  0  0
  152.8261  139.0647  182.3478 C   0  0  0  0  0  0  0  0  0  0  0  0
  152.2405  137.7975  182.2092 C   0  0  0  0  0  0  0  0  0  0  0  0
  151.2175  137.5518  181.3348 C   0  0  0  0  0  0  0  0  0  0  0  0
  150.7432  138.5937  180.5591 C   0  0  0  0  0  0  0  0  0  0  0  0
  151.2882  139.8333  180.6709 C   0  0  0  0  0  0  0  0  0  0  0  0
  150.8409  140.8553  179.9240 F   0  0  0  0  0  0  0  0  0  0  0  0
  152.3300  140.0423  181.5749 C   0  0  0  0  0  0  0  0  0  0  0  0
  152.8170  141.3147  181.6248 F   0  0  0  0  0  0  0  0  0  0  0  0
  154.2760  137.1380  188.6763 C   0  0  0  0  0  0  0  0  0  0  0  0
  148.9477  134.7834  190.6356 C   0  0  0  0  0  0  0  0  0  0  0  0
  150.2139  135.5040  190.7588 N   0  0  0  0  0  0  0  0  0  0  0  0
  151.0040  135.5950  189.6792 C   0  0  0  0  0  0  0  0  0  0  0  0
  150.6334  134.9707  188.4997 C   0  0  0  0  0  0  0  0  0  0  0  0
  151.4534  135.0192  187.4154 C   0  0  0  0  0  0  0  0  0  0  0  0
  152.6367  135.6934  187.5202 C   0  0  0  0  0  0  0  0  0  0  0  0
  153.0424  136.3465  188.7195 C   0  0  0  0  0  0  0  0  0  0  0  0
  152.2187  136.2913  189.8009 C   0  0  0  0  0  0  0  0  0  0  0  0
  152.5239  136.8379  191.0313 C   0  0  0  0  0  0  0  0  0  0  0  0
  153.5995  137.4613  191.1890 O   0  0  0  0  0  0  0  0  0  0  0  0
  151.6788  136.7106  192.0947 N   0  0  0  0  0  0  0  0  0  0  0  0
  152.0463  137.2827  193.3615 C   0  0  0  0  0  0  0  0  0  0  0  0
  150.5287  136.0447  191.9505 C   0  0  0  0  0  0  0  0  0  0  0  0
  149.7011  135.8916  192.9031 O   0  0  0  0  0  0  0  0  0  0  0  0
 19 20  1  0  0  0
 20 21  1  0  0  0
 21 22  2  0  0  0
 22 23  1  0  0  0
 23 24  2  0  0  0
 24 25  1  0  0  0
 25 18  1  0  0  0
 18  1  1  0  0  0
  1  2  2  0  0  0
  1  3  1  0  0  0
  3  5  1  0  0  0
  5  6  2  0  0  0
  6  7  1  0  0  0
  7  8  2  0  0  0
  8  9  1  0  0  0
  7 10  1  0  0  0
 10 11  2  0  0  0
 11 12  1  0  0  0
 12 13  2  0  0  0
 13 14  1  0  0  0
 14 15  1  0  0  0
 14 16  2  0  0  0
 16 17  1  0  0  0
 25 26  2  0  0  0
 26 27  1  0  0  0
 27 28  2  0  0  0
 27 29  1  0  0  0
 29 30  1  0  0  0
 29 31  1  0  0  0
 31 32  2  0  0  0
 31 20  1  0  0  0
 26 21  1  0  0  0
  9  5  1  0  0  0
 16 10  1  0  0  0
  3  4  1  0  0  0
M  END
> <minimizedAffinity>
-7.37253

> <CNNscore>
0.3467406631

> <CNNaffinity>
5.6538896561

> <CNN_VS>
1.9604334831

> <CNNaffinity_variance>
0.1152278781

$$$$
[H]C1=Nc2c([H])c([H])c([H])c([H])c2C([H])([H])c2c(C(=O)N([H])[H])c([H])c([H])c([H])c21


 20 22  0  0  0  0  0  0  0  0999 V2000
  149.0442  137.4185  184.9191 C   0  0  0  0  0  0  0  0  0  0  0  0
  147.9882  137.6800  185.8134 C   0  0  0  0  0  0  0  0  0  0  0  0
  146.9044  138.3759  185.3641 C   0  0  0  0  0  0  0  0  0  0  0  0
  146.8301  138.8163  184.0737 C   0  0  0  0  0  0  0  0  0  0  0  0
  147.8649  138.5652  183.1850 C   0  0  0  0  0  0  0  0  0  0  0  0
  147.5179  139.0994  181.8524 C   0  0  0  0  0  0  0  0  0  0  0  0
  148.3378  139.3213  180.8959 N   0  0  0  0  0  0  0  0  0  0  0  0
  149.7576  139.1192  180.8627 C   0  0  0  0  0  0  0  0  0  0  0  0
  150.2761  139.8445  179.7824 C   0  0  0  0  0  0  0  0  0  0  0  0
  151.6327  139.7879  179.5784 C   0  0  0  0  0  0  0  0  0  0  0  0
  152.4375  139.0420  180.4134 C   0  0  0  0  0  0  0  0  0  0  0  0
  151.9170  138.3418  181.4604 C   0  0  0  0  0  0  0  0  0  0  0  0
  150.5102  138.3752  181.7058 C   0  0  0  0  0  0  0  0  0  0  0  0
  150.2220  137.5335  182.8820 C   0  0  0  0  0  0  0  0  0  0  0  0
  148.9898  137.8670  183.5886 C   0  0  0  0  0  0  0  0  0  0  0  0
  150.0206  135.1980  185.3909 N   0  0  0  0  0  0  0  0  0  0  0  0
  150.1447  136.6375  185.4519 C   0  0  0  0  0  0  0  0  0  0  0  0
  151.1967  137.0826  185.9637 O   0  0  0  0  0  0  0  0  0  0  0  0
  149.4252  134.7055  186.0734 H   0  0  0  0  0  0  0  0  0  0  0  0
  150.5238  134.6719  184.6708 H   0  0  0  0  0  0  0  0  0  0  0  0
 16 17  1  0  0  0
 17 18  2  0  0  0
 17  1  1  0  0  0
  1  2  2  0  0  0
  2  3  1  0  0  0
  3  4  2  0  0  0
  4  5  1  0  0  0
  5  6  1  0  0  0
  6  7  2  0  0  0
  7  8  1  0  0  0
  8  9  2  0  0  0
  9 10  1  0  0  0
 10 11  2  0  0  0
 11 12  1  0  0  0
 12 13  2  0  0  0
 13 14  1  0  0  0
 14 15  1  0  0  0
 15  1  1  0  0  0
 15  5  2  0  0  0
 13  8  1  0  0  0
 16 19  1  0  0  0
 16 20  1  0  0  0
M  END
> <minimizedAffinity>
-5.16809

> <CNNscore>
0.6275122762

> <CNNaffinity>
4.3483839035

> <CNN_VS>
2.7286643982

> <CNNaffinity_variance>
0.0428307913

$$$$
[H]C1=Nc2c([H])c([H])c([H])c([H])c2C([H])([H])c2c(C(=O)N([H])[H])c([H])c([H])c([H])c21


 20 22  0  0  0  0  0  0  0  0999 V2000
  154.5628  137.6662  188.7695 C   0  0  0  0  0  0  0  0  0  0  0  0
  155.8387  138.2292  188.5734 C   0  0  0  0  0  0  0  0  0  0  0  0
  156.7894  138.0523  189.5355 C   0  0  0  0  0  0  0  0  0  0  0  0
  156.5238  137.3443  190.6725 C   0  0  0  0  0  0  0  0  0  0  0  0
  155.2704  136.7868  190.8763 C   0  0  0  0  0  0  0  0  0  0  0  0
  155.2595  136.0368  192.1487 C   0  0  0  0  0  0  0  0  0  0  0  0
  154.2182  135.6669  192.7932 N   0  0  0  0  0  0  0  0  0  0  0  0
  152.8369  135.8738  192.4660 C   0  0  0  0  0  0  0  0  0  0  0  0
  152.0767  135.6470  193.6204 C   0  0  0  0  0  0  0  0  0  0  0  0
  150.7161  135.8006  193.5192 C   0  0  0  0  0  0  0  0  0  0  0  0
  150.1380  136.1639  192.3213 C   0  0  0  0  0  0  0  0  0  0  0  0
  150.8921  136.3808  191.2070 C   0  0  0  0  0  0  0  0  0  0  0  0
  152.3112  136.2311  191.2716 C   0  0  0  0  0  0  0  0  0  0  0  0
  152.8711  136.5151  189.9371 C   0  0  0  0  0  0  0  0  0  0  0  0
  154.2674  136.9384  189.9345 C   0  0  0  0  0  0  0  0  0  0  0  0
  153.5444  136.8186  186.6836 N   0  0  0  0  0  0  0  0  0  0  0  0
  153.6149  137.8569  187.6878 C   0  0  0  0  0  0  0  0  0  0  0  0
  152.8479  138.8335  187.5311 O   0  0  0  0  0  0  0  0  0  0  0  0
  154.2691  136.7625  185.9526 H   0  0  0  0  0  0  0  0  0  0  0  0
  152.7756  136.1425  186.7010 H   0  0  0  0  0  0  0  0  0  0  0  0
 16 17  1  0  0  0
 17 18  2  0  0  0
 17  1  1  0  0  0
  1  2  2  0  0  0
  2  3  1  0  0  0
  3  4  2  0  0  0
  4  5  1  0  0  0
  5  6  1  0  0  0
  6  7  2  0  0  0
  7  8  1  0  0  0
  8  9  2  0  0  0
  9 10  1  0  0  0
 10 11  2  0  0  0
 11 12  1  0  0  0
 12 13  2  0  0  0
 13 14  1  0  0  0
 14 15  1  0  0  0
 15  1  1  0  0  0
 15  5  2  0  0  0
 13  8  1  0  0  0
 16 19  1  0  0  0
 16 20  1  0  0  0
M  END
> <minimizedAffinity>
-5.62297

> <CNNscore>
0.4697111845

> <CNNaffinity>
4.2817082405

> <CNN_VS>
2.0111663342

> <CNNaffinity_variance>
0.0676773787

$$$$
[H]C1=Nc2c([H])c([H])c([H])c([H])c2C([H])([H])c2c(C(=O)N([H])[H])c([H])c([H])c([H])c21


 20 22  0  0  0  0  0  0  0  0999 V2000
  154.1903  136.4166  191.6778 C   0  0  0  0  0  0  0  0  0  0  0  0
  154.0127  137.8135  191.7046 C   0  0  0  0  0  0  0  0  0  0  0  0
  154.8306  138.5941  190.9414 C   0  0  0  0  0  0  0  0  0  0  0  0
  155.8071  138.0456  190.1602 C   0  0  0  0  0  0  0  0  0  0  0  0
  155.9914  136.6714  190.1274 C   0  0  0  0  0  0  0  0  0  0  0  0
  157.0691  136.3358  189.1748 C   0  0  0  0  0  0  0  0  0  0  0  0
  157.7046  135.2269  189.1205 N   0  0  0  0  0  0  0  0  0  0  0  0
  157.5473  134.0588  189.9382 C   0  0  0  0  0  0  0  0  0  0  0  0
  158.6860  133.2587  189.7791 C   0  0  0  0  0  0  0  0  0  0  0  0
  158.7355  132.0846  190.4892 C   0  0  0  0  0  0  0  0  0  0  0  0
  157.6968  131.7232  191.3209 C   0  0  0  0  0  0  0  0  0  0  0  0
  156.5955  132.5131  191.4644 C   0  0  0  0  0  0  0  0  0  0  0  0
  156.5064  133.7426  190.7426 C   0  0  0  0  0  0  0  0  0  0  0  0
  155.2218  134.3862  191.0749 C   0  0  0  0  0  0  0  0  0  0  0  0
  155.1923  135.8325  190.8848 C   0  0  0  0  0  0  0  0  0  0  0  0
  152.0581  135.1763  191.8247 N   0  0  0  0  0  0  0  0  0  0  0  0
  153.2589  135.6458  192.4797 C   0  0  0  0  0  0  0  0  0  0  0  0
  153.3861  135.3440  193.6878 O   0  0  0  0  0  0  0  0  0  0  0  0
  151.2764  135.8277  191.6590 H   0  0  0  0  0  0  0  0  0  0  0  0
  151.9871  134.1990  191.5273 H   0  0  0  0  0  0  0  0  0  0  0  0
 16 17  1  0  0  0
 17 18  2  0  0  0
 17  1  1  0  0  0
  1  2  2  0  0  0
  2  3  1  0  0  0
  3  4  2  0  0  0
  4  5  1  0  0  0
  5  6  1  0  0  0
  6  7  2  0  0  0
  7  8  1  0  0  0
  8  9  2  0  0  0
  9 10  1  0  0  0
 10 11  2  0  0  0
 11 12  1  0  0  0
 12 13  2  0  0  0
 13 14  1  0  0  0
 14 15  1  0  0  0
 15  1  1  0  0  0
 15  5  2  0  0  0
 13  8  1  0  0  0
 16 19  1  0  0  0
 16 20  1  0  0  0
M  END
> <minimizedAffinity>
-5.07452

> <CNNscore>
0.4412038028

> <CNNaffinity>
4.2228918076

> <CNN_VS>
1.8631559610

> <CNNaffinity_variance>
0.0875720009

$$$$
[H]C1=Nc2c([H])c([H])c([H])c([H])c2C([H])([H])c2c(C(=O)N([H])[H])c([H])c([H])c([H])c21


 20 22  0  0  0  0  0  0  0  0999 V2000
  156.4685  135.1086  189.4253 C   0  0  0  0  0  0  0  0  0  0  0  0
  156.9497  135.5442  188.1755 C   0  0  0  0  0  0  0  0  0  0  0  0
  156.6921  136.8249  187.7828 C   0  0  0  0  0  0  0  0  0  0  0  0
  155.9829  137.6804  188.5764 C   0  0  0  0  0  0  0  0  0  0  0  0
  155.5034  137.2614  189.8085 C   0  0  0  0  0  0  0  0  0  0  0  0
  154.8191  138.3823  190.4843 C   0  0  0  0  0  0  0  0  0  0  0  0
  154.0071  138.2829  191.4677 N   0  0  0  0  0  0  0  0  0  0  0  0
  153.5609  137.1026  192.1502 C   0  0  0  0  0  0  0  0  0  0  0  0
  152.4117  137.4298  192.8812 C   0  0  0  0  0  0  0  0  0  0  0  0
  151.8197  136.4262  193.6074 C   0  0  0  0  0  0  0  0  0  0  0  0
  152.3488  135.1529  193.6059 C   0  0  0  0  0  0  0  0  0  0  0  0
  153.4680  134.8509  192.8891 C   0  0  0  0  0  0  0  0  0  0  0  0
  154.1131  135.8678  192.1207 C   0  0  0  0  0  0  0  0  0  0  0  0
  155.2901  135.2753  191.4584 C   0  0  0  0  0  0  0  0  0  0  0  0
  155.7325  135.9714  190.2549 C   0  0  0  0  0  0  0  0  0  0  0  0
  158.0826  133.5536  190.4662 N   0  0  0  0  0  0  0  0  0  0  0  0
  156.8155  133.7499  189.7974 C   0  0  0  0  0  0  0  0  0  0  0  0
  156.1287  132.7227  189.5971 O   0  0  0  0  0  0  0  0  0  0  0  0
  158.9568  133.5588  189.9197 H   0  0  0  0  0  0  0  0  0  0  0  0
  158.1085  133.4102  191.4797 H   0  0  0  0  0  0  0  0  0  0  0  0
 16 17  1  0  0  0
 17 18  2  0  0  0
 17  1  1  0  0  0
  1  2  2  0  0  0
  2  3  1  0  0  0
  3  4  2  0  0  0
  4  5  1  0  0  0
  5  6  1  0  0  0
  6  7  2  0  0  0
  7  8  1  0  0  0
  8  9  2  0  0  0
  9 10  1  0  0  0
 10 11  2  0  0  0
 11 12  1  0  0  0
 12 13  2  0  0  0
 13 14  1  0  0  0
 14 15  1  0  0  0
 15  1  1  0  0  0
 15  5  2  0  0  0
 13  8  1  0  0  0
 16 19  1  0  0  0
 16 20  1  0  0  0
M  END
> <minimizedAffinity>
-5.05588

> <CNNscore>
0.4357438385

> <CNNaffinity>
4.2949628830

> <CNN_VS>
1.8715035915

> <CNNaffinity_variance>
0.1194338575

$$$$
[H]C1=Nc2c([H])c([H])c([H])c([H])c2C([H])([H])c2c(C(=O)N([H])[H])c([H])c([H])c([H])c21


 20 22  0  0  0  0  0  0  0  0999 V2000
  152.0888  136.9559  187.6921 C   0  0  0  0  0  0  0  0  0  0  0  0
  152.7954  137.8404  186.8544 C   0  0  0  0  0  0  0  0  0  0  0  0
  153.8646  138.5158  187.3656 C   0  0  0  0  0  0  0  0  0  0  0  0
  154.2550  138.3470  188.6632 C   0  0  0  0  0  0  0  0  0  0  0  0
  153.5655  137.4794  189.4971 C   0  0  0  0  0  0  0  0  0  0  0  0
  154.2147  137.4416  190.8232 C   0  0  0  0  0  0  0  0  0  0  0  0
  153.6881  137.0060  191.9046 N   0  0  0  0  0  0  0  0  0  0  0  0
  152.3778  136.4596  192.1108 C   0  0  0  0  0  0  0  0  0  0  0  0
  152.1085  136.4795  193.4853 C   0  0  0  0  0  0  0  0  0  0  0  0
  150.8894  135.9995  193.8956 C   0  0  0  0  0  0  0  0  0  0  0  0
  149.9786  135.5208  192.9778 C   0  0  0  0  0  0  0  0  0  0  0  0
  150.2562  135.5083  191.6435 C   0  0  0  0  0  0  0  0  0  0  0  0
  151.5139  135.9992  191.1769 C   0  0  0  0  0  0  0  0  0  0  0  0
  151.5518  135.8631  189.7089 C   0  0  0  0  0  0  0  0  0  0  0  0
  152.4709  136.7715  189.0315 C   0  0  0  0  0  0  0  0  0  0  0  0
  151.3039  134.9836  186.4269 N   0  0  0  0  0  0  0  0  0  0  0  0
  150.9903  136.2396  187.0715 C   0  0  0  0  0  0  0  0  0  0  0  0
  149.7917  136.5985  187.0341 O   0  0  0  0  0  0  0  0  0  0  0  0
  151.7465  134.9818  185.4958 H   0  0  0  0  0  0  0  0  0  0  0  0
  151.0860  134.1001  186.8963 H   0  0  0  0  0  0  0  0  0  0  0  0
 16 17  1  0  0  0
 17 18  2  0  0  0
 17  1  1  0  0  0
  1  2  2  0  0  0
  2  3  1  0  0  0
  3  4  2  0  0  0
  4  5  1  0  0  0
  5  6  1  0  0  0
  6  7  2  0  0  0
  7  8  1  0  0  0
  8  9  2  0  0  0
  9 10  1  0  0  0
 10 11  2  0  0  0
 11 12  1  0  0  0
 12 13  2  0  0  0
 13 14  1  0  0  0
 14 15  1  0  0  0
 15  1  1  0  0  0
 15  5  2  0  0  0
 13  8  1  0  0  0
 16 19  1  0  0  0
 16 20  1  0  0  0
M  END
> <minimizedAffinity>
-5.69229

> <CNNscore>
0.4308964908

> <CNNaffinity>
4.1319131851

> <CNN_VS>
1.7804268599

> <CNNaffinity_variance>
0.0401242003

$$$$
[H]C1=Nc2c([H])c([H])c([H])c([H])c2C([H])([H])c2c(C(=O)N([H])[H])c([H])c([H])c([H])c21


 20 22  0  0  0  0  0  0  0  0999 V2000
  152.3450  137.2630  185.6495 C   0  0  0  0  0  0  0  0  0  0  0  0
  152.3835  137.7874  184.3430 C   0  0  0  0  0  0  0  0  0  0  0  0
  153.5307  138.3836  183.9083 C   0  0  0  0  0  0  0  0  0  0  0  0
  154.6299  138.4769  184.7132 C   0  0  0  0  0  0  0  0  0  0  0  0
  154.6024  137.9650  186.0019 C   0  0  0  0  0  0  0  0  0  0  0  0
  155.9222  138.1482  186.6391 C   0  0  0  0  0  0  0  0  0  0  0  0
  156.1658  138.0832  187.8932 N   0  0  0  0  0  0  0  0  0  0  0  0
  155.2582  137.8257  188.9739 C   0  0  0  0  0  0  0  0  0  0  0  0
  155.8752  138.2259  190.1661 C   0  0  0  0  0  0  0  0  0  0  0  0
  155.1623  138.0670  191.3288 C   0  0  0  0  0  0  0  0  0  0  0  0
  153.8912  137.5331  191.3052 C   0  0  0  0  0  0  0  0  0  0  0  0
  153.3052  137.1485  190.1364 C   0  0  0  0  0  0  0  0  0  0  0  0
  154.0144  137.2977  188.9055 C   0  0  0  0  0  0  0  0  0  0  0  0
  153.1590  136.8013  187.8115 C   0  0  0  0  0  0  0  0  0  0  0  0
  153.4632  137.3531  186.4955 C   0  0  0  0  0  0  0  0  0  0  0  0
  150.9859  135.2002  185.7130 N   0  0  0  0  0  0  0  0  0  0  0  0
  151.1090  136.6057  186.0304 C   0  0  0  0  0  0  0  0  0  0  0  0
  150.1309  137.1320  186.6075 O   0  0  0  0  0  0  0  0  0  0  0  0
  150.7677  134.9098  184.7482 H   0  0  0  0  0  0  0  0  0  0  0  0
  151.1156  134.4975  186.4465 H   0  0  0  0  0  0  0  0  0  0  0  0
 16 17  1  0  0  0
 17 18  2  0  0  0
 17  1  1  0  0  0
  1  2  2  0  0  0
  2  3  1  0  0  0
  3  4  2  0  0  0
  4  5  1  0  0  0
  5  6  1  0  0  0
  6  7  2  0  0  0
  7  8  1  0  0  0
  8  9  2  0  0  0
  9 10  1  0  0  0
 10 11  2  0  0  0
 11 12  1  0  0  0
 12 13  2  0  0  0
 13 14  1  0  0  0
 14 15  1  0  0  0
 15  1  1  0  0  0
 15  5  2  0  0  0
 13  8  1  0  0  0
 16 19  1  0  0  0
 16 20  1  0  0  0
M  END
> <minimizedAffinity>
-5.08388

> <CNNscore>
0.3896850348

> <CNNaffinity>
4.3577766418

> <CNN_VS>
1.6981602907

> <CNNaffinity_variance>
0.0595161095

$$$$
[H]C1=Nc2c([H])c([H])c([H])c([H])c2C([H])([H])c2c(C(=O)N([H])[H])c([H])c([H])c([H])c21


 20 22  0  0  0  0  0  0  0  0999 V2000
  149.9236  136.8790  180.8191 C   0  0  0  0  0  0  0  0  0  0  0  0
  148.9059  137.1387  179.8809 C   0  0  0  0  0  0  0  0  0  0  0  0
  148.9887  138.2662  179.1176 C   0  0  0  0  0  0  0  0  0  0  0  0
  150.0334  139.1357  179.2487 C   0  0  0  0  0  0  0  0  0  0  0  0
  151.0404  138.8902  180.1703 C   0  0  0  0  0  0  0  0  0  0  0  0
  152.0681  139.9470  180.0788 C   0  0  0  0  0  0  0  0  0  0  0  0
  152.9551  140.2100  180.9623 N   0  0  0  0  0  0  0  0  0  0  0  0
  153.1799  139.5744  182.2285 C   0  0  0  0  0  0  0  0  0  0  0  0
  153.9810  140.4212  183.0053 C   0  0  0  0  0  0  0  0  0  0  0  0
  154.3092  139.9946  184.2684 C   0  0  0  0  0  0  0  0  0  0  0  0
  153.8594  138.7784  184.7374 C   0  0  0  0  0  0  0  0  0  0  0  0
  153.0806  137.9661  183.9686 C   0  0  0  0  0  0  0  0  0  0  0  0
  152.7175  138.3744  182.6488 C   0  0  0  0  0  0  0  0  0  0  0  0
  151.8875  137.3154  182.0450 C   0  0  0  0  0  0  0  0  0  0  0  0
  151.0046  137.7633  180.9733 C   0  0  0  0  0  0  0  0  0  0  0  0
  150.2932  134.4386  180.9381 N   0  0  0  0  0  0  0  0  0  0  0  0
  149.7940  135.6419  181.5658 C   0  0  0  0  0  0  0  0  0  0  0  0
  149.2902  135.5063  182.7036 O   0  0  0  0  0  0  0  0  0  0  0  0
  149.7390  133.9769  180.2015 H   0  0  0  0  0  0  0  0  0  0  0  0
  151.1950  134.0484  181.2263 H   0  0  0  0  0  0  0  0  0  0  0  0
 16 17  1  0  0  0
 17 18  2  0  0  0
 17  1  1  0  0  0
  1  2  2  0  0  0
  2  3  1  0  0  0
  3  4  2  0  0  0
  4  5  1  0  0  0
  5  6  1  0  0  0
  6  7  2  0  0  0
  7  8  1  0  0  0
  8  9  2  0  0  0
  9 10  1  0  0  0
 10 11  2  0  0  0
 11 12  1  0  0  0
 12 13  2  0  0  0
 13 14  1  0  0  0
 14 15  1  0  0  0
 15  1  1  0  0  0
 15  5  2  0  0  0
 13  8  1  0  0  0
 16 19  1  0  0  0
 16 20  1  0  0  0
M  END
> <minimizedAffinity>
-6.24199

> <CNNscore>
0.3856126964

> <CNNaffinity>
4.1325764656

> <CNN_VS>
1.5935739279

> <CNNaffinity_variance>
0.1236514896

$$$$
[H]C1=Nc2c([H])c([H])c([H])c([H])c2C([H])([H])c2c(C(=O)N([H])[H])c([H])c([H])c([H])c21


 20 22  0  0  0  0  0  0  0  0999 V2000
  154.9694  137.1390  188.3060 C   0  0  0  0  0  0  0  0  0  0  0  0
  153.7272  137.5464  188.8297 C   0  0  0  0  0  0  0  0  0  0  0  0
  153.4255  137.2343  190.1228 C   0  0  0  0  0  0  0  0  0  0  0  0
  154.3020  136.5410  190.9075 C   0  0  0  0  0  0  0  0  0  0  0  0
  155.5275  136.1339  190.4015 C   0  0  0  0  0  0  0  0  0  0  0  0
  156.3016  135.4523  191.4588 C   0  0  0  0  0  0  0  0  0  0  0  0
  157.3141  134.6923  191.2762 N   0  0  0  0  0  0  0  0  0  0  0  0
  157.9438  134.3129  190.0443 C   0  0  0  0  0  0  0  0  0  0  0  0
  158.7465  133.1920  190.2920 C   0  0  0  0  0  0  0  0  0  0  0  0
  159.4374  132.6643  189.2293 C   0  0  0  0  0  0  0  0  0  0  0  0
  159.3337  133.2281  187.9752 C   0  0  0  0  0  0  0  0  0  0  0  0
  158.5482  134.3190  187.7510 C   0  0  0  0  0  0  0  0  0  0  0  0
  157.8135  134.8973  188.8310 C   0  0  0  0  0  0  0  0  0  0  0  0
  157.0620  136.0568  188.3155 C   0  0  0  0  0  0  0  0  0  0  0  0
  155.8835  136.4205  189.0950 C   0  0  0  0  0  0  0  0  0  0  0  0
  154.5394  136.8329  185.8919 N   0  0  0  0  0  0  0  0  0  0  0  0
  155.2416  137.5415  186.9390 C   0  0  0  0  0  0  0  0  0  0  0  0
  156.0271  138.4429  186.5687 O   0  0  0  0  0  0  0  0  0  0  0  0
  154.8538  135.8926  185.6096 H   0  0  0  0  0  0  0  0  0  0  0  0
  153.7327  137.2664  185.4339 H   0  0  0  0  0  0  0  0  0  0  0  0
 16 17  1  0  0  0
 17 18  2  0  0  0
 17  1  1  0  0  0
  1  2  2  0  0  0
  2  3  1  0  0  0
  3  4  2  0  0  0
  4  5  1  0  0  0
  5  6  1  0  0  0
  6  7  2  0  0  0
  7  8  1  0  0  0
  8  9  2  0  0  0
  9 10  1  0  0  0
 10 11  2  0  0  0
 11 12  1  0  0  0
 12 13  2  0  0  0
 13 14  1  0  0  0
 14 15  1  0  0  0
 15  1  1  0  0  0
 15  5  2  0  0  0
 13  8  1  0  0  0
 16 19  1  0  0  0
 16 20  1  0  0  0
M  END
> <minimizedAffinity>
-5.27359

> <CNNscore>
0.3856095672

> <CNNaffinity>
4.2339429855

> <CNN_VS>
1.6326489449

> <CNNaffinity_variance>
0.1088095531

$$$$
[H]C1=Nc2c([H])c([H])c([H])c([H])c2C([H])([H])c2c(C(=O)N([H])[H])c([H])c([H])c([H])c21


 20 22  0  0  0  0  0  0  0  0999 V2000
  155.8527  136.1131  190.7865 C   0  0  0  0  0  0  0  0  0  0  0  0
  156.5640  137.1527  190.1567 C   0  0  0  0  0  0  0  0  0  0  0  0
  156.1475  138.4385  190.3405 C   0  0  0  0  0  0  0  0  0  0  0  0
  155.0633  138.7279  191.1186 C   0  0  0  0  0  0  0  0  0  0  0  0
  154.3549  137.7118  191.7424 C   0  0  0  0  0  0  0  0  0  0  0  0
  153.2677  138.2902  192.5579 C   0  0  0  0  0  0  0  0  0  0  0  0
  152.2499  137.6594  193.0079 N   0  0  0  0  0  0  0  0  0  0  0  0
  151.9052  136.2762  192.8471 C   0  0  0  0  0  0  0  0  0  0  0  0
  150.5503  136.1243  193.1684 C   0  0  0  0  0  0  0  0  0  0  0  0
  150.0172  134.8627  193.0716 C   0  0  0  0  0  0  0  0  0  0  0  0
  150.7989  133.7992  192.6725 C   0  0  0  0  0  0  0  0  0  0  0  0
  152.1160  133.9640  192.3635 C   0  0  0  0  0  0  0  0  0  0  0  0
  152.7077  135.2612  192.4518 C   0  0  0  0  0  0  0  0  0  0  0  0
  154.1288  135.1521  192.0729 C   0  0  0  0  0  0  0  0  0  0  0  0
  154.7314  136.3889  191.5872 C   0  0  0  0  0  0  0  0  0  0  0  0
  157.4021  134.3236  191.4958 N   0  0  0  0  0  0  0  0  0  0  0  0
  156.3760  134.7754  190.5826 C   0  0  0  0  0  0  0  0  0  0  0  0
  156.0308  133.9668  189.6916 O   0  0  0  0  0  0  0  0  0  0  0  0
  158.3726  134.6514  191.3793 H   0  0  0  0  0  0  0  0  0  0  0  0
  157.1628  133.6798  192.2553 H   0  0  0  0  0  0  0  0  0  0  0  0
 16 17  1  0  0  0
 17 18  2  0  0  0
 17  1  1  0  0  0
  1  2  2  0  0  0
  2  3  1  0  0  0
  3  4  2  0  0  0
  4  5  1  0  0  0
  5  6  1  0  0  0
  6  7  2  0  0  0
  7  8  1  0  0  0
  8  9  2  0  0  0
  9 10  1  0  0  0
 10 11  2  0  0  0
 11 12  1  0  0  0
 12 13  2  0  0  0
 13 14  1  0  0  0
 14 15  1  0  0  0
 15  1  1  0  0  0
 15  5  2  0  0  0
 13  8  1  0  0  0
 16 19  1  0  0  0
 16 20  1  0  0  0
M  END
> <minimizedAffinity>
-5.04990

> <CNNscore>
0.3844571710

> <CNNaffinity>
4.2725396156

> <CNN_VS>
1.6426085234

> <CNNaffinity_variance>
0.0757327899

$$$$
[H]c1nc(C([H])([H])n2c(=O)c3c(nc([H])n3C([H])([H])C(=O)N([H])c3nc(-c4c([H])c([H])c(Cl)c([H])c4[H])sc3[H])n(C([H])([H])[H])c2=O)c([H])c([H])c1[H]


 36 40  0  0  0  0  0  0  0  0999 V2000
  156.0927  143.9118  182.1451 C   0  0  0  0  0  0  0  0  0  0  0  0
  156.5389  142.6716  182.6818 N   0  0  0  0  0  0  0  0  0  0  0  0
  155.6349  141.7206  183.0190 C   0  0  0  0  0  0  0  0  0  0  0  0
  154.2913  141.6622  182.9555 N   0  0  0  0  0  0  0  0  0  0  0  0
  153.9170  140.4652  183.4220 C   0  0  0  0  0  0  0  0  0  0  0  0
  155.0082  139.7344  183.7929 N   0  0  0  0  0  0  0  0  0  0  0  0
  156.0547  140.5216  183.5373 C   0  0  0  0  0  0  0  0  0  0  0  0
  157.3912  140.2979  183.7084 C   0  0  0  0  0  0  0  0  0  0  0  0
  157.7732  139.2079  184.1771 O   0  0  0  0  0  0  0  0  0  0  0  0
  158.2700  141.2746  183.3594 N   0  0  0  0  0  0  0  0  0  0  0  0
  157.8494  142.4434  182.8537 C   0  0  0  0  0  0  0  0  0  0  0  0
  158.7086  143.3355  182.5375 O   0  0  0  0  0  0  0  0  0  0  0  0
  154.8592  138.4300  184.3486 C   0  0  0  0  0  0  0  0  0  0  0  0
  154.6278  138.4444  185.8426 C   0  0  0  0  0  0  0  0  0  0  0  0
  153.5745  139.0564  186.1700 O   0  0  0  0  0  0  0  0  0  0  0  0
  155.5099  137.8341  186.7050 N   0  0  0  0  0  0  0  0  0  0  0  0
  156.3571  137.3554  186.2622 H   0  0  0  0  0  0  0  0  0  0  0  0
  155.3903  137.7828  188.1575 C   0  0  0  0  0  0  0  0  0  0  0  0
  156.4002  138.1823  188.9870 C   0  0  0  0  0  0  0  0  0  0  0  0
  155.7027  137.9029  190.5461 S   0  0  0  0  0  0  0  0  0  0  0  0
  154.1927  137.3043  190.0214 C   0  0  0  0  0  0  0  0  0  0  0  0
  154.2942  137.3467  188.7245 N   0  0  0  0  0  0  0  0  0  0  0  0
  153.0413  136.8465  190.8485 C   0  0  0  0  0  0  0  0  0  0  0  0
  153.0470  137.2291  192.1685 C   0  0  0  0  0  0  0  0  0  0  0  0
  152.0108  136.8419  193.0011 C   0  0  0  0  0  0  0  0  0  0  0  0
  151.0078  136.0728  192.4345 C   0  0  0  0  0  0  0  0  0  0  0  0
  149.6714  135.5542  193.4413 Cl  0  0  0  0  0  0  0  0  0  0  0  0
  151.0183  135.6979  191.1077 C   0  0  0  0  0  0  0  0  0  0  0  0
  152.0584  136.0859  190.2696 C   0  0  0  0  0  0  0  0  0  0  0  0
  159.6765  140.9838  183.5568 C   0  0  0  0  0  0  0  0  0  0  0  0
  160.2364  141.7112  184.7279 C   0  0  0  0  0  0  0  0  0  0  0  0
  159.5192  141.9664  185.8739 C   0  0  0  0  0  0  0  0  0  0  0  0
  160.0715  142.6366  186.9426 C   0  0  0  0  0  0  0  0  0  0  0  0
  161.3746  143.0680  186.8747 C   0  0  0  0  0  0  0  0  0  0  0  0
  162.0888  142.8106  185.7252 C   0  0  0  0  0  0  0  0  0  0  0  0
  161.5129  142.1557  184.7102 N   0  0  0  0  0  0  0  0  0  0  0  0
  1  2  1  0  0  0
  2  3  1  0  0  0
  3  4  1  0  0  0
  4  5  2  0  0  0
  5  6  1  0  0  0
  6 13  1  0  0  0
 13 14  1  0  0  0
 14 15  2  0  0  0
 14 16  1  0  0  0
 16 18  1  0  0  0
 18 19  2  0  0  0
 19 20  1  0  0  0
 20 21  1  0  0  0
 21 22  2  0  0  0
 21 23  1  0  0  0
 23 24  2  0  0  0
 24 25  1  0  0  0
 25 26  2  0  0  0
 26 27  1  0  0  0
 26 28  1  0  0  0
 28 29  2  0  0  0
  6  7  1  0  0  0
  7  8  1  0  0  0
  8  9  2  0  0  0
  8 10  1  0  0  0
 10 30  1  0  0  0
 30 31  1  0  0  0
 31 32  2  0  0  0
 32 33  1  0  0  0
 33 34  2  0  0  0
 34 35  1  0  0  0
 35 36  2  0  0  0
 10 11  1  0  0  0
 11 12  2  0  0  0
 11  2  1  0  0  0
  7  3  2  0  0  0
 36 31  1  0  0  0
 22 18  1  0  0  0
 29 23  1  0  0  0
 16 17  1  0  0  0
M  END
> <minimizedAffinity>
-9.62954

> <CNNscore>
0.7767248750

> <CNNaffinity>
7.0712518692

> <CNN_VS>
5.4924173355

> <CNNaffinity_variance>
0.2104413509

$$$$
[H]c1nc(C([H])([H])n2c(=O)c3c(nc([H])n3C([H])([H])C(=O)N([H])c3nc(-c4c([H])c([H])c(Cl)c([H])c4[H])sc3[H])n(C([H])([H])[H])c2=O)c([H])c([H])c1[H]


 36 40  0  0  0  0  0  0  0  0999 V2000
  157.0391  144.9604  182.0576 C   0  0  0  0  0  0  0  0  0  0  0  0
  157.1904  143.6084  182.4756 N   0  0  0  0  0  0  0  0  0  0  0  0
  156.0934  142.8366  182.6659 C   0  0  0  0  0  0  0  0  0  0  0  0
  154.7728  143.0637  182.5358 N   0  0  0  0  0  0  0  0  0  0  0  0
  154.1355  141.9303  182.8516 C   0  0  0  0  0  0  0  0  0  0  0  0
  155.0305  140.9571  183.1896 N   0  0  0  0  0  0  0  0  0  0  0  0
  156.2284  141.5321  183.0689 C   0  0  0  0  0  0  0  0  0  0  0  0
  157.4783  141.0214  183.2748 C   0  0  0  0  0  0  0  0  0  0  0  0
  157.6016  139.8356  183.6387 O   0  0  0  0  0  0  0  0  0  0  0  0
  158.5566  141.8246  183.0745 N   0  0  0  0  0  0  0  0  0  0  0  0
  158.4139  143.0986  182.6807 C   0  0  0  0  0  0  0  0  0  0  0  0
  159.4540  143.8204  182.5028 O   0  0  0  0  0  0  0  0  0  0  0  0
  154.5859  139.6639  183.5924 C   0  0  0  0  0  0  0  0  0  0  0  0
  153.3436  139.2089  182.8606 C   0  0  0  0  0  0  0  0  0  0  0  0
  152.6279  138.4291  183.5469 O   0  0  0  0  0  0  0  0  0  0  0  0
  153.0751  139.6370  181.5804 N   0  0  0  0  0  0  0  0  0  0  0  0
  153.7873  140.3015  181.1397 H   0  0  0  0  0  0  0  0  0  0  0  0
  151.9136  139.2674  180.7799 C   0  0  0  0  0  0  0  0  0  0  0  0
  151.4723  140.0337  179.7379 C   0  0  0  0  0  0  0  0  0  0  0  0
  150.1096  139.1208  179.1857 S   0  0  0  0  0  0  0  0  0  0  0  0
  150.2097  137.8463  180.3168 C   0  0  0  0  0  0  0  0  0  0  0  0
  151.2449  138.1717  181.0354 N   0  0  0  0  0  0  0  0  0  0  0  0
  149.3267  136.6535  180.4466 C   0  0  0  0  0  0  0  0  0  0  0  0
  149.8739  135.5520  181.0600 C   0  0  0  0  0  0  0  0  0  0  0  0
  149.1152  134.4047  181.2172 C   0  0  0  0  0  0  0  0  0  0  0  0
  147.8180  134.4419  180.7329 C   0  0  0  0  0  0  0  0  0  0  0  0
  146.8120  133.0182  180.9047 Cl  0  0  0  0  0  0  0  0  0  0  0  0
  147.2851  135.5561  180.1198 C   0  0  0  0  0  0  0  0  0  0  0  0
  148.0457  136.7097  179.9610 C   0  0  0  0  0  0  0  0  0  0  0  0
  159.8598  141.2315  183.3024 C   0  0  0  0  0  0  0  0  0  0  0  0
  160.5240  141.7941  184.5091 C   0  0  0  0  0  0  0  0  0  0  0  0
  161.8772  142.0301  184.5876 C   0  0  0  0  0  0  0  0  0  0  0  0
  162.4582  142.5589  185.7185 C   0  0  0  0  0  0  0  0  0  0  0  0
  161.6753  142.8635  186.8062 C   0  0  0  0  0  0  0  0  0  0  0  0
  160.3210  142.6253  186.7234 C   0  0  0  0  0  0  0  0  0  0  0  0
  159.7977  142.1101  185.6046 N   0  0  0  0  0  0  0  0  0  0  0  0
  1  2  1  0  0  0
  2  3  1  0  0  0
  3  4  1  0  0  0
  4  5  2  0  0  0
  5  6  1  0  0  0
  6 13  1  0  0  0
 13 14  1  0  0  0
 14 15  2  0  0  0
 14 16  1  0  0  0
 16 18  1  0  0  0
 18 19  2  0  0  0
 19 20  1  0  0  0
 20 21  1  0  0  0
 21 22  2  0  0  0
 21 23  1  0  0  0
 23 24  2  0  0  0
 24 25  1  0  0  0
 25 26  2  0  0  0
 26 27  1  0  0  0
 26 28  1  0  0  0
 28 29  2  0  0  0
  6  7  1  0  0  0
  7  8  1  0  0  0
  8  9  2  0  0  0
  8 10  1  0  0  0
 10 30  1  0  0  0
 30 31  1  0  0  0
 31 32  2  0  0  0
 32 33  1  0  0  0
 33 34  2  0  0  0
 34 35  1  0  0  0
 35 36  2  0  0  0
 10 11  1  0  0  0
 11 12  2  0  0  0
 11  2  1  0  0  0
  7  3  2  0  0  0
 36 31  1  0  0  0
 22 18  1  0  0  0
 29 23  1  0  0  0
 16 17  1  0  0  0
M  END
> <minimizedAffinity>
-8.82727

> <CNNscore>
0.7102197409

> <CNNaffinity>
6.8771567345

> <CNN_VS>
4.8842926025

> <CNNaffinity_variance>
0.1363673955

$$$$
[H]c1nc(C([H])([H])n2c(=O)c3c(nc([H])n3C([H])([H])C(=O)N([H])c3nc(-c4c([H])c([H])c(Cl)c([H])c4[H])sc3[H])n(C([H])([H])[H])c2=O)c([H])c([H])c1[H]


 36 40  0  0  0  0  0  0  0  0999 V2000
  152.2390  140.6270  181.2898 C   0  0  0  0  0  0  0  0  0  0  0  0
  153.2346  140.2452  182.2323 N   0  0  0  0  0  0  0  0  0  0  0  0
  153.1749  139.0242  182.8161 C   0  0  0  0  0  0  0  0  0  0  0  0
  152.3223  137.9885  182.7016 N   0  0  0  0  0  0  0  0  0  0  0  0
  152.7525  137.0197  183.5183 C   0  0  0  0  0  0  0  0  0  0  0  0
  153.8848  137.4125  184.1708 N   0  0  0  0  0  0  0  0  0  0  0  0
  154.1297  138.6464  183.7260 C   0  0  0  0  0  0  0  0  0  0  0  0
  155.1391  139.5129  184.0353 C   0  0  0  0  0  0  0  0  0  0  0  0
  156.0082  139.1693  184.8602 O   0  0  0  0  0  0  0  0  0  0  0  0
  155.1676  140.7300  183.4304 N   0  0  0  0  0  0  0  0  0  0  0  0
  154.2293  141.0898  182.5424 C   0  0  0  0  0  0  0  0  0  0  0  0
  154.2929  142.2435  181.9953 O   0  0  0  0  0  0  0  0  0  0  0  0
  154.5157  136.5556  185.1196 C   0  0  0  0  0  0  0  0  0  0  0  0
  154.2746  136.9765  186.5515 C   0  0  0  0  0  0  0  0  0  0  0  0
  153.1391  137.4977  186.7252 O   0  0  0  0  0  0  0  0  0  0  0  0
  155.2325  136.7833  187.5207 N   0  0  0  0  0  0  0  0  0  0  0  0
  156.1451  136.3239  187.2056 H   0  0  0  0  0  0  0  0  0  0  0  0
  155.1122  137.1461  188.9280 C   0  0  0  0  0  0  0  0  0  0  0  0
  155.9617  138.0329  189.5278 C   0  0  0  0  0  0  0  0  0  0  0  0
  155.3472  138.0656  191.1454 S   0  0  0  0  0  0  0  0  0  0  0  0
  154.0677  136.9563  190.9306 C   0  0  0  0  0  0  0  0  0  0  0  0
  154.1711  136.6278  189.6755 N   0  0  0  0  0  0  0  0  0  0  0  0
  153.0760  136.4824  191.9362 C   0  0  0  0  0  0  0  0  0  0  0  0
  151.7899  136.9447  191.7908 C   0  0  0  0  0  0  0  0  0  0  0  0
  150.8116  136.5490  192.6869 C   0  0  0  0  0  0  0  0  0  0  0  0
  151.2027  135.6893  193.7000 C   0  0  0  0  0  0  0  0  0  0  0  0
  150.0062  135.1557  194.8628 Cl  0  0  0  0  0  0  0  0  0  0  0  0
  152.4981  135.2354  193.8309 C   0  0  0  0  0  0  0  0  0  0  0  0
  153.4824  135.6316  192.9316 C   0  0  0  0  0  0  0  0  0  0  0  0
  156.2629  141.6090  183.7906 C   0  0  0  0  0  0  0  0  0  0  0  0
  157.1858  141.8455  182.6477 C   0  0  0  0  0  0  0  0  0  0  0  0
  157.6718  143.0880  182.3117 C   0  0  0  0  0  0  0  0  0  0  0  0
  158.5308  143.2697  181.2509 C   0  0  0  0  0  0  0  0  0  0  0  0
  158.9211  142.1876  180.4988 C   0  0  0  0  0  0  0  0  0  0  0  0
  158.4317  140.9455  180.8386 C   0  0  0  0  0  0  0  0  0  0  0  0
  157.5988  140.8139  181.8777 N   0  0  0  0  0  0  0  0  0  0  0  0
  1  2  1  0  0  0
  2  3  1  0  0  0
  3  4  1  0  0  0
  4  5  2  0  0  0
  5  6  1  0  0  0
  6 13  1  0  0  0
 13 14  1  0  0  0
 14 15  2  0  0  0
 14 16  1  0  0  0
 16 18  1  0  0  0
 18 19  2  0  0  0
 19 20  1  0  0  0
 20 21  1  0  0  0
 21 22  2  0  0  0
 21 23  1  0  0  0
 23 24  2  0  0  0
 24 25  1  0  0  0
 25 26  2  0  0  0
 26 27  1  0  0  0
 26 28  1  0  0  0
 28 29  2  0  0  0
  6  7  1  0  0  0
  7  8  1  0  0  0
  8  9  2  0  0  0
  8 10  1  0  0  0
 10 30  1  0  0  0
 30 31  1  0  0  0
 31 32  2  0  0  0
 32 33  1  0  0  0
 33 34  2  0  0  0
 34 35  1  0  0  0
 35 36  2  0  0  0
 10 11  1  0  0  0
 11 12  2  0  0  0
 11  2  1  0  0  0
  7  3  2  0  0  0
 36 31  1  0  0  0
 22 18  1  0  0  0
 29 23  1  0  0  0
 16 17  1  0  0  0
M  END
> <minimizedAffinity>
-8.42601

> <CNNscore>
0.7085719109

> <CNNaffinity>
6.4905982018

> <CNN_VS>
4.5990557671

> <CNNaffinity_variance>
0.1059054583

$$$$
[H]c1nc(C([H])([H])n2c(=O)c3c(nc([H])n3C([H])([H])C(=O)N([H])c3nc(-c4c([H])c([H])c(Cl)c([H])c4[H])sc3[H])n(C([H])([H])[H])c2=O)c([H])c([H])c1[H]


 36 40  0  0  0  0  0  0  0  0999 V2000
  153.6926  141.7095  182.1089 C   0  0  0  0  0  0  0  0  0  0  0  0
  153.3585  140.3490  182.3597 N   0  0  0  0  0  0  0  0  0  0  0  0
  153.9442  139.6915  183.3893 C   0  0  0  0  0  0  0  0  0  0  0  0
  154.8459  140.0544  184.3209 N   0  0  0  0  0  0  0  0  0  0  0  0
  155.0650  138.9927  185.1053 C   0  0  0  0  0  0  0  0  0  0  0  0
  154.3118  137.9314  184.6945 N   0  0  0  0  0  0  0  0  0  0  0  0
  153.6292  138.3799  183.6395 C   0  0  0  0  0  0  0  0  0  0  0  0
  152.7198  137.7462  182.8412 C   0  0  0  0  0  0  0  0  0  0  0  0
  152.4315  136.5552  183.0695 O   0  0  0  0  0  0  0  0  0  0  0  0
  152.1520  138.4367  181.8171 N   0  0  0  0  0  0  0  0  0  0  0  0
  152.4670  139.7187  181.5807 C   0  0  0  0  0  0  0  0  0  0  0  0
  151.9096  140.3324  180.6077 O   0  0  0  0  0  0  0  0  0  0  0  0
  154.3961  136.6742  185.3613 C   0  0  0  0  0  0  0  0  0  0  0  0
  154.2801  136.7908  186.8642 C   0  0  0  0  0  0  0  0  0  0  0  0
  153.1151  137.0898  187.2447 O   0  0  0  0  0  0  0  0  0  0  0  0
  155.3681  136.5795  187.6803 N   0  0  0  0  0  0  0  0  0  0  0  0
  156.2879  136.3311  187.1953 H   0  0  0  0  0  0  0  0  0  0  0  0
  155.3755  136.6628  189.1361 C   0  0  0  0  0  0  0  0  0  0  0  0
  156.4828  137.0470  189.8391 C   0  0  0  0  0  0  0  0  0  0  0  0
  155.9086  136.9609  191.4695 S   0  0  0  0  0  0  0  0  0  0  0  0
  154.3170  136.4466  191.1287 C   0  0  0  0  0  0  0  0  0  0  0  0
  154.3050  136.3692  189.8295 N   0  0  0  0  0  0  0  0  0  0  0  0
  153.2133  136.1583  192.0867 C   0  0  0  0  0  0  0  0  0  0  0  0
  152.0201  136.7999  191.8551 C   0  0  0  0  0  0  0  0  0  0  0  0
  150.9471  136.5832  192.7027 C   0  0  0  0  0  0  0  0  0  0  0  0
  151.1508  135.7099  193.7584 C   0  0  0  0  0  0  0  0  0  0  0  0
  149.8275  135.3981  194.8630 Cl  0  0  0  0  0  0  0  0  0  0  0  0
  152.3552  135.0748  193.9758 C   0  0  0  0  0  0  0  0  0  0  0  0
  153.4344  135.2911  193.1254 C   0  0  0  0  0  0  0  0  0  0  0  0
  151.1901  137.7187  181.0040 C   0  0  0  0  0  0  0  0  0  0  0  0
  149.8063  138.2308  181.1964 C   0  0  0  0  0  0  0  0  0  0  0  0
  149.2994  138.6007  182.4207 C   0  0  0  0  0  0  0  0  0  0  0  0
  148.0154  139.0778  182.5615 C   0  0  0  0  0  0  0  0  0  0  0  0
  147.2075  139.1923  181.4556 C   0  0  0  0  0  0  0  0  0  0  0  0
  147.7190  138.8204  180.2317 C   0  0  0  0  0  0  0  0  0  0  0  0
  148.9729  138.3618  180.1401 N   0  0  0  0  0  0  0  0  0  0  0  0
  1  2  1  0  0  0
  2  3  1  0  0  0
  3  4  1  0  0  0
  4  5  2  0  0  0
  5  6  1  0  0  0
  6 13  1  0  0  0
 13 14  1  0  0  0
 14 15  2  0  0  0
 14 16  1  0  0  0
 16 18  1  0  0  0
 18 19  2  0  0  0
 19 20  1  0  0  0
 20 21  1  0  0  0
 21 22  2  0  0  0
 21 23  1  0  0  0
 23 24  2  0  0  0
 24 25  1  0  0  0
 25 26  2  0  0  0
 26 27  1  0  0  0
 26 28  1  0  0  0
 28 29  2  0  0  0
  6  7  1  0  0  0
  7  8  1  0  0  0
  8  9  2  0  0  0
  8 10  1  0  0  0
 10 30  1  0  0  0
 30 31  1  0  0  0
 31 32  2  0  0  0
 32 33  1  0  0  0
 33 34  2  0  0  0
 34 35  1  0  0  0
 35 36  2  0  0  0
 10 11  1  0  0  0
 11 12  2  0  0  0
 11  2  1  0  0  0
  7  3  2  0  0  0
 36 31  1  0  0  0
 22 18  1  0  0  0
 29 23  1  0  0  0
 16 17  1  0  0  0
M  END
> <minimizedAffinity>
-7.33274

> <CNNscore>
0.6592735648

> <CNNaffinity>
6.0166535378

> <CNN_VS>
3.9666206837

> <CNNaffinity_variance>
0.2585076392

$$$$
[H]c1nc(C([H])([H])n2c(=O)c3c(nc([H])n3C([H])([H])C(=O)N([H])c3nc(-c4c([H])c([H])c(Cl)c([H])c4[H])sc3[H])n(C([H])([H])[H])c2=O)c([H])c([H])c1[H]


 36 40  0  0  0  0  0  0  0  0999 V2000
  156.2257  144.3634  182.1588 C   0  0  0  0  0  0  0  0  0  0  0  0
  156.5069  143.0271  182.5596 N   0  0  0  0  0  0  0  0  0  0  0  0
  155.4915  142.1438  182.7149 C   0  0  0  0  0  0  0  0  0  0  0  0
  154.1573  142.2367  182.5601 N   0  0  0  0  0  0  0  0  0  0  0  0
  153.6338  141.0387  182.8452 C   0  0  0  0  0  0  0  0  0  0  0  0
  154.6172  140.1566  183.1876 N   0  0  0  0  0  0  0  0  0  0  0  0
  155.7518  140.8533  183.1010 C   0  0  0  0  0  0  0  0  0  0  0  0
  157.0434  140.4699  183.3259 C   0  0  0  0  0  0  0  0  0  0  0  0
  157.2807  139.2969  183.6745 O   0  0  0  0  0  0  0  0  0  0  0  0
  158.0371  141.3826  183.1606 N   0  0  0  0  0  0  0  0  0  0  0  0
  157.7720  142.6419  182.7831 C   0  0  0  0  0  0  0  0  0  0  0  0
  158.7357  143.4693  182.6382 O   0  0  0  0  0  0  0  0  0  0  0  0
  154.3001  138.8180  183.5614 C   0  0  0  0  0  0  0  0  0  0  0  0
  154.4158  138.5741  185.0490 C   0  0  0  0  0  0  0  0  0  0  0  0
  153.4532  139.0618  185.7024 O   0  0  0  0  0  0  0  0  0  0  0  0
  155.4833  137.8835  185.5758 N   0  0  0  0  0  0  0  0  0  0  0  0
  156.2163  137.5340  184.8804 H   0  0  0  0  0  0  0  0  0  0  0  0
  155.6996  137.5882  186.9874 C   0  0  0  0  0  0  0  0  0  0  0  0
  155.1927  138.3751  187.9832 C   0  0  0  0  0  0  0  0  0  0  0  0
  155.7556  137.5533  189.3985 S   0  0  0  0  0  0  0  0  0  0  0  0
  156.5852  136.2834  188.6155 C   0  0  0  0  0  0  0  0  0  0  0  0
  156.3964  136.5427  187.3542 N   0  0  0  0  0  0  0  0  0  0  0  0
  157.3395  135.1548  189.2291 C   0  0  0  0  0  0  0  0  0  0  0  0
  158.3051  134.5682  188.4465 C   0  0  0  0  0  0  0  0  0  0  0  0
  159.0482  133.5127  188.9469 C   0  0  0  0  0  0  0  0  0  0  0  0
  158.7627  133.1047  190.2394 C   0  0  0  0  0  0  0  0  0  0  0  0
  159.6721  131.7734  190.9242 Cl  0  0  0  0  0  0  0  0  0  0  0  0
  157.7900  133.7049  191.0106 C   0  0  0  0  0  0  0  0  0  0  0  0
  157.0425  134.7655  190.5098 C   0  0  0  0  0  0  0  0  0  0  0  0
  159.3896  140.9224  183.4073 C   0  0  0  0  0  0  0  0  0  0  0  0
  160.0012  141.5968  184.5842 C   0  0  0  0  0  0  0  0  0  0  0  0
  159.3332  141.8053  185.7688 C   0  0  0  0  0  0  0  0  0  0  0  0
  159.9327  142.4270  186.8413 C   0  0  0  0  0  0  0  0  0  0  0  0
  161.2343  142.8561  186.7381 C   0  0  0  0  0  0  0  0  0  0  0  0
  161.8991  142.6456  185.5501 C   0  0  0  0  0  0  0  0  0  0  0  0
  161.2783  142.0369  184.5328 N   0  0  0  0  0  0  0  0  0  0  0  0
  1  2  1  0  0  0
  2  3  1  0  0  0
  3  4  1  0  0  0
  4  5  2  0  0  0
  5  6  1  0  0  0
  6 13  1  0  0  0
 13 14  1  0  0  0
 14 15  2  0  0  0
 14 16  1  0  0  0
 16 18  1  0  0  0
 18 19  2  0  0  0
 19 20  1  0  0  0
 20 21  1  0  0  0
 21 22  2  0  0  0
 21 23  1  0  0  0
 23 24  2  0  0  0
 24 25  1  0  0  0
 25 26  2  0  0  0
 26 27  1  0  0  0
 26 28  1  0  0  0
 28 29  2  0  0  0
  6  7  1  0  0  0
  7  8  1  0  0  0
  8  9  2  0  0  0
  8 10  1  0  0  0
 10 30  1  0  0  0
 30 31  1  0  0  0
 31 32  2  0  0  0
 32 33  1  0  0  0
 33 34  2  0  0  0
 34 35  1  0  0  0
 35 36  2  0  0  0
 10 11  1  0  0  0
 11 12  2  0  0  0
 11  2  1  0  0  0
  7  3  2  0  0  0
 36 31  1  0  0  0
 22 18  1  0  0  0
 29 23  1  0  0  0
 16 17  1  0  0  0
M  END
> <minimizedAffinity>
-9.01620

> <CNNscore>
0.5223323703

> <CNNaffinity>
6.8950195312

> <CNN_VS>
3.6014919281

> <CNNaffinity_variance>
0.3182898164

$$$$
[H]c1nc(C([H])([H])n2c(=O)c3c(nc([H])n3C([H])([H])C(=O)N([H])c3nc(-c4c([H])c([H])c(Cl)c([H])c4[H])sc3[H])n(C([H])([H])[H])c2=O)c([H])c([H])c1[H]


 36 40  0  0  0  0  0  0  0  0999 V2000
  156.7783  144.8473  182.1262 C   0  0  0  0  0  0  0  0  0  0  0  0
  156.9208  143.4602  182.4106 N   0  0  0  0  0  0  0  0  0  0  0  0
  155.8330  142.6530  182.3837 C   0  0  0  0  0  0  0  0  0  0  0  0
  154.5304  142.8702  182.1220 N   0  0  0  0  0  0  0  0  0  0  0  0
  153.8953  141.6978  182.2349 C   0  0  0  0  0  0  0  0  0  0  0  0
  154.7738  140.7088  182.5702 N   0  0  0  0  0  0  0  0  0  0  0  0
  155.9596  141.3144  182.6564 C   0  0  0  0  0  0  0  0  0  0  0  0
  157.1919  140.8058  182.9539 C   0  0  0  0  0  0  0  0  0  0  0  0
  157.3078  139.5892  183.1995 O   0  0  0  0  0  0  0  0  0  0  0  0
  158.2612  141.6449  182.9720 N   0  0  0  0  0  0  0  0  0  0  0  0
  158.1269  142.9521  182.7041 C   0  0  0  0  0  0  0  0  0  0  0  0
  159.1581  143.7071  182.7309 O   0  0  0  0  0  0  0  0  0  0  0  0
  154.3248  139.3713  182.7748 C   0  0  0  0  0  0  0  0  0  0  0  0
  153.9602  139.0813  184.2131 C   0  0  0  0  0  0  0  0  0  0  0  0
  154.1395  140.0714  184.9739 O   0  0  0  0  0  0  0  0  0  0  0  0
  153.4856  137.8460  184.5916 N   0  0  0  0  0  0  0  0  0  0  0  0
  153.3910  137.1134  183.8187 H   0  0  0  0  0  0  0  0  0  0  0  0
  153.1027  137.4530  185.9427 C   0  0  0  0  0  0  0  0  0  0  0  0
  151.8029  137.2175  186.2930 C   0  0  0  0  0  0  0  0  0  0  0  0
  151.9621  136.7996  187.9649 S   0  0  0  0  0  0  0  0  0  0  0  0
  153.6577  136.9570  188.0835 C   0  0  0  0  0  0  0  0  0  0  0  0
  154.0051  137.3091  186.8797 N   0  0  0  0  0  0  0  0  0  0  0  0
  154.5253  136.7422  189.2753 C   0  0  0  0  0  0  0  0  0  0  0  0
  154.8200  135.4370  189.5893 C   0  0  0  0  0  0  0  0  0  0  0  0
  155.6204  135.1570  190.6837 C   0  0  0  0  0  0  0  0  0  0  0  0
  156.0853  136.2399  191.4116 C   0  0  0  0  0  0  0  0  0  0  0  0
  157.1025  135.9447  192.8067 Cl  0  0  0  0  0  0  0  0  0  0  0  0
  155.7794  137.5434  191.0821 C   0  0  0  0  0  0  0  0  0  0  0  0
  154.9756  137.8268  189.9830 C   0  0  0  0  0  0  0  0  0  0  0  0
  159.5463  141.0529  183.2885 C   0  0  0  0  0  0  0  0  0  0  0  0
  160.1499  141.6526  184.5091 C   0  0  0  0  0  0  0  0  0  0  0  0
  159.4495  141.8642  185.6742 C   0  0  0  0  0  0  0  0  0  0  0  0
  160.0420  142.4153  186.7884 C   0  0  0  0  0  0  0  0  0  0  0  0
  161.3697  142.7683  186.7481 C   0  0  0  0  0  0  0  0  0  0  0  0
  162.0670  142.5549  185.5794 C   0  0  0  0  0  0  0  0  0  0  0  0
  161.4518  142.0164  184.5200 N   0  0  0  0  0  0  0  0  0  0  0  0
  1  2  1  0  0  0
  2  3  1  0  0  0
  3  4  1  0  0  0
  4  5  2  0  0  0
  5  6  1  0  0  0
  6 13  1  0  0  0
 13 14  1  0  0  0
 14 15  2  0  0  0
 14 16  1  0  0  0
 16 18  1  0  0  0
 18 19  2  0  0  0
 19 20  1  0  0  0
 20 21  1  0  0  0
 21 22  2  0  0  0
 21 23  1  0  0  0
 23 24  2  0  0  0
 24 25  1  0  0  0
 25 26  2  0  0  0
 26 27  1  0  0  0
 26 28  1  0  0  0
 28 29  2  0  0  0
  6  7  1  0  0  0
  7  8  1  0  0  0
  8  9  2  0  0  0
  8 10  1  0  0  0
 10 30  1  0  0  0
 30 31  1  0  0  0
 31 32  2  0  0  0
 32 33  1  0  0  0
 33 34  2  0  0  0
 34 35  1  0  0  0
 35 36  2  0  0  0
 10 11  1  0  0  0
 11 12  2  0  0  0
 11  2  1  0  0  0
  7  3  2  0  0  0
 36 31  1  0  0  0
 22 18  1  0  0  0
 29 23  1  0  0  0
 16 17  1  0  0  0
M  END
> <minimizedAffinity>
-8.61979

> <CNNscore>
0.5166645050

> <CNNaffinity>
6.9268965721

> <CNN_VS>
3.5788815022

> <CNNaffinity_variance>
0.1049851999

$$$$
[H]c1nc(C([H])([H])n2c(=O)c3c(nc([H])n3C([H])([H])C(=O)N([H])c3nc(-c4c([H])c([H])c(Cl)c([H])c4[H])sc3[H])n(C([H])([H])[H])c2=O)c([H])c([H])c1[H]


 36 40  0  0  0  0  0  0  0  0999 V2000
  158.8382  145.8137  182.6016 C   0  0  0  0  0  0  0  0  0  0  0  0
  158.7511  144.4040  182.7761 N   0  0  0  0  0  0  0  0  0  0  0  0
  157.5912  143.7622  182.4965 C   0  0  0  0  0  0  0  0  0  0  0  0
  156.3929  144.1787  182.0457 N   0  0  0  0  0  0  0  0  0  0  0  0
  155.6039  143.1026  181.9440 C   0  0  0  0  0  0  0  0  0  0  0  0
  156.2771  141.9787  182.3261 N   0  0  0  0  0  0  0  0  0  0  0  0
  157.4966  142.4035  182.6614 C   0  0  0  0  0  0  0  0  0  0  0  0
  158.5829  141.7067  183.1088 C   0  0  0  0  0  0  0  0  0  0  0  0
  158.4983  140.4719  183.2566 O   0  0  0  0  0  0  0  0  0  0  0  0
  159.7305  142.3832  183.3797 N   0  0  0  0  0  0  0  0  0  0  0  0
  159.8125  143.7117  183.2154 C   0  0  0  0  0  0  0  0  0  0  0  0
  160.9107  144.3099  183.4808 O   0  0  0  0  0  0  0  0  0  0  0  0
  155.6327  140.7071  182.3296 C   0  0  0  0  0  0  0  0  0  0  0  0
  154.9350  140.3991  183.6350 C   0  0  0  0  0  0  0  0  0  0  0  0
  154.3037  141.3878  184.0990 O   0  0  0  0  0  0  0  0  0  0  0  0
  155.0159  139.1502  184.2076 N   0  0  0  0  0  0  0  0  0  0  0  0
  155.5934  138.4201  183.6818 H   0  0  0  0  0  0  0  0  0  0  0  0
  154.3871  138.7388  185.4574 C   0  0  0  0  0  0  0  0  0  0  0  0
  153.0329  138.7719  185.6380 C   0  0  0  0  0  0  0  0  0  0  0  0
  152.8825  138.1872  187.2600 S   0  0  0  0  0  0  0  0  0  0  0  0
  154.5430  137.9492  187.5763 C   0  0  0  0  0  0  0  0  0  0  0  0
  155.1097  138.3163  186.4636 N   0  0  0  0  0  0  0  0  0  0  0  0
  155.1839  137.4439  188.8226 C   0  0  0  0  0  0  0  0  0  0  0  0
  155.0989  138.2579  189.9267 C   0  0  0  0  0  0  0  0  0  0  0  0
  155.6708  137.8571  191.1221 C   0  0  0  0  0  0  0  0  0  0  0  0
  156.3092  136.6280  191.1284 C   0  0  0  0  0  0  0  0  0  0  0  0
  157.0508  136.0700  192.6141 Cl  0  0  0  0  0  0  0  0  0  0  0  0
  156.3849  135.8239  190.0109 C   0  0  0  0  0  0  0  0  0  0  0  0
  155.8111  136.2247  188.8090 C   0  0  0  0  0  0  0  0  0  0  0  0
  160.8543  141.5953  183.8468 C   0  0  0  0  0  0  0  0  0  0  0  0
  161.3809  142.0927  185.1465 C   0  0  0  0  0  0  0  0  0  0  0  0
  162.7227  142.2361  185.4145 C   0  0  0  0  0  0  0  0  0  0  0  0
  163.1753  142.7066  186.6269 C   0  0  0  0  0  0  0  0  0  0  0  0
  162.2713  143.0457  187.6050 C   0  0  0  0  0  0  0  0  0  0  0  0
  160.9288  142.9003  187.3325 C   0  0  0  0  0  0  0  0  0  0  0  0
  160.5326  142.4393  186.1403 N   0  0  0  0  0  0  0  0  0  0  0  0
  1  2  1  0  0  0
  2  3  1  0  0  0
  3  4  1  0  0  0
  4  5  2  0  0  0
  5  6  1  0  0  0
  6 13  1  0  0  0
 13 14  1  0  0  0
 14 15  2  0  0  0
 14 16  1  0  0  0
 16 18  1  0  0  0
 18 19  2  0  0  0
 19 20  1  0  0  0
 20 21  1  0  0  0
 21 22  2  0  0  0
 21 23  1  0  0  0
 23 24  2  0  0  0
 24 25  1  0  0  0
 25 26  2  0  0  0
 26 27  1  0  0  0
 26 28  1  0  0  0
 28 29  2  0  0  0
  6  7  1  0  0  0
  7  8  1  0  0  0
  8  9  2  0  0  0
  8 10  1  0  0  0
 10 30  1  0  0  0
 30 31  1  0  0  0
 31 32  2  0  0  0
 32 33  1  0  0  0
 33 34  2  0  0  0
 34 35  1  0  0  0
 35 36  2  0  0  0
 10 11  1  0  0  0
 11 12  2  0  0  0
 11  2  1  0  0  0
  7  3  2  0  0  0
 36 31  1  0  0  0
 22 18  1  0  0  0
 29 23  1  0  0  0
 16 17  1  0  0  0
M  END
> <minimizedAffinity>
-7.76001

> <CNNscore>
0.4799341559

> <CNNaffinity>
7.2619376183

> <CNN_VS>
3.4852519035

> <CNNaffinity_variance>
0.0387174003

$$$$
[H]c1nc(C([H])([H])n2c(=O)c3c(nc([H])n3C([H])([H])C(=O)N([H])c3nc(-c4c([H])c([H])c(Cl)c([H])c4[H])sc3[H])n(C([H])([H])[H])c2=O)c([H])c([H])c1[H]


 36 40  0  0  0  0  0  0  0  0999 V2000
  156.1523  144.1967  182.1130 C   0  0  0  0  0  0  0  0  0  0  0  0
  156.6840  142.9539  182.5580 N   0  0  0  0  0  0  0  0  0  0  0  0
  155.8461  141.9309  182.8527 C   0  0  0  0  0  0  0  0  0  0  0  0
  154.5071  141.7963  182.8154 N   0  0  0  0  0  0  0  0  0  0  0  0
  154.2156  140.5518  183.2113 C   0  0  0  0  0  0  0  0  0  0  0  0
  155.3569  139.8656  183.5098 N   0  0  0  0  0  0  0  0  0  0  0  0
  156.3486  140.7288  183.2826 C   0  0  0  0  0  0  0  0  0  0  0  0
  157.6999  140.5753  183.4092 C   0  0  0  0  0  0  0  0  0  0  0  0
  158.1570  139.4826  183.7975 O   0  0  0  0  0  0  0  0  0  0  0  0
  158.5107  141.6231  183.1050 N   0  0  0  0  0  0  0  0  0  0  0  0
  158.0096  142.7943  182.6857 C   0  0  0  0  0  0  0  0  0  0  0  0
  158.8067  143.7546  182.4091 O   0  0  0  0  0  0  0  0  0  0  0  0
  155.2988  138.5220  183.9827 C   0  0  0  0  0  0  0  0  0  0  0  0
  154.2297  138.3073  185.0298 C   0  0  0  0  0  0  0  0  0  0  0  0
  154.0287  139.3286  185.7424 O   0  0  0  0  0  0  0  0  0  0  0  0
  153.5774  137.1006  185.1437 N   0  0  0  0  0  0  0  0  0  0  0  0
  153.8674  136.3343  184.4569 H   0  0  0  0  0  0  0  0  0  0  0  0
  152.5336  136.7793  186.1099 C   0  0  0  0  0  0  0  0  0  0  0  0
  151.2572  136.4727  185.7298 C   0  0  0  0  0  0  0  0  0  0  0  0
  150.4959  136.1908  187.2583 S   0  0  0  0  0  0  0  0  0  0  0  0
  151.8529  136.4836  188.2516 C   0  0  0  0  0  0  0  0  0  0  0  0
  152.7882  136.7723  187.3938 N   0  0  0  0  0  0  0  0  0  0  0  0
  151.9420  136.4220  189.7373 C   0  0  0  0  0  0  0  0  0  0  0  0
  150.8529  135.9003  190.3936 C   0  0  0  0  0  0  0  0  0  0  0  0
  150.8606  135.8107  191.7751 C   0  0  0  0  0  0  0  0  0  0  0  0
  151.9964  136.2651  192.4247 C   0  0  0  0  0  0  0  0  0  0  0  0
  152.0614  136.1758  194.1729 Cl  0  0  0  0  0  0  0  0  0  0  0  0
  153.0803  136.7858  191.7500 C   0  0  0  0  0  0  0  0  0  0  0  0
  153.0746  136.8767  190.3621 C   0  0  0  0  0  0  0  0  0  0  0  0
  159.9365  141.4052  183.2518 C   0  0  0  0  0  0  0  0  0  0  0  0
  160.4513  141.9391  184.5417 C   0  0  0  0  0  0  0  0  0  0  0  0
  161.7610  142.3121  184.7379 C   0  0  0  0  0  0  0  0  0  0  0  0
  162.2020  142.8095  185.9438 C   0  0  0  0  0  0  0  0  0  0  0  0
  161.3190  142.9419  186.9886 C   0  0  0  0  0  0  0  0  0  0  0  0
  160.0087  142.5670  186.7879 C   0  0  0  0  0  0  0  0  0  0  0  0
  159.6226  142.0883  185.5993 N   0  0  0  0  0  0  0  0  0  0  0  0
  1  2  1  0  0  0
  2  3  1  0  0  0
  3  4  1  0  0  0
  4  5  2  0  0  0
  5  6  1  0  0  0
  6 13  1  0  0  0
 13 14  1  0  0  0
 14 15  2  0  0  0
 14 16  1  0  0  0
 16 18  1  0  0  0
 18 19  2  0  0  0
 19 20  1  0  0  0
 20 21  1  0  0  0
 21 22  2  0  0  0
 21 23  1  0  0  0
 23 24  2  0  0  0
 24 25  1  0  0  0
 25 26  2  0  0  0
 26 27  1  0  0  0
 26 28  1  0  0  0
 28 29  2  0  0  0
  6  7  1  0  0  0
  7  8  1  0  0  0
  8  9  2  0  0  0
  8 10  1  0  0  0
 10 30  1  0  0  0
 30 31  1  0  0  0
 31 32  2  0  0  0
 32 33  1  0  0  0
 33 34  2  0  0  0
 34 35  1  0  0  0
 35 36  2  0  0  0
 10 11  1  0  0  0
 11 12  2  0  0  0
 11  2  1  0  0  0
  7  3  2  0  0  0
 36 31  1  0  0  0
 22 18  1  0  0  0
 29 23  1  0  0  0
 16 17  1  0  0  0
M  END
> <minimizedAffinity>
-8.77704

> <CNNscore>
0.4312078655

> <CNNaffinity>
6.5841608047

> <CNN_VS>
2.8391418457

> <CNNaffinity_variance>
0.1280544698

$$$$
[H]c1nc(C([H])([H])n2c(=O)c3c(nc([H])n3C([H])([H])C(=O)N([H])c3nc(-c4c([H])c([H])c(Cl)c([H])c4[H])sc3[H])n(C([H])([H])[H])c2=O)c([H])c([H])c1[H]


 36 40  0  0  0  0  0  0  0  0999 V2000
  155.0376  133.0588  188.0011 C   0  0  0  0  0  0  0  0  0  0  0  0
  154.7395  134.4477  188.0873 N   0  0  0  0  0  0  0  0  0  0  0  0
  154.5296  135.1619  186.9553 C   0  0  0  0  0  0  0  0  0  0  0  0
  154.5303  134.8389  185.6483 N   0  0  0  0  0  0  0  0  0  0  0  0
  154.2518  135.9509  184.9579 C   0  0  0  0  0  0  0  0  0  0  0  0
  154.0679  137.0054  185.8043 N   0  0  0  0  0  0  0  0  0  0  0  0
  154.2417  136.5013  187.0274 C   0  0  0  0  0  0  0  0  0  0  0  0
  154.1684  137.1051  188.2504 C   0  0  0  0  0  0  0  0  0  0  0  0
  153.9046  138.3215  188.3166 O   0  0  0  0  0  0  0  0  0  0  0  0
  154.3849  136.3577  189.3651 N   0  0  0  0  0  0  0  0  0  0  0  0
  154.6660  135.0489  189.2839 C   0  0  0  0  0  0  0  0  0  0  0  0
  154.8622  134.3817  190.3566 O   0  0  0  0  0  0  0  0  0  0  0  0
  153.7866  138.3080  185.2980 C   0  0  0  0  0  0  0  0  0  0  0  0
  155.0323  139.1180  185.0191 C   0  0  0  0  0  0  0  0  0  0  0  0
  156.0067  138.7862  185.7484 O   0  0  0  0  0  0  0  0  0  0  0  0
  155.0410  140.1010  184.0558 N   0  0  0  0  0  0  0  0  0  0  0  0
  154.1271  140.2559  183.5232 H   0  0  0  0  0  0  0  0  0  0  0  0
  156.1785  140.9415  183.7004 C   0  0  0  0  0  0  0  0  0  0  0  0
  156.2298  141.6416  182.5278 C   0  0  0  0  0  0  0  0  0  0  0  0
  157.7653  142.4294  182.6584 S   0  0  0  0  0  0  0  0  0  0  0  0
  158.2159  141.8093  184.1836 C   0  0  0  0  0  0  0  0  0  0  0  0
  157.2040  141.0567  184.5055 N   0  0  0  0  0  0  0  0  0  0  0  0
  159.4632  142.0687  184.9556 C   0  0  0  0  0  0  0  0  0  0  0  0
  160.6396  142.0324  184.2459 C   0  0  0  0  0  0  0  0  0  0  0  0
  161.8411  142.2632  184.8941 C   0  0  0  0  0  0  0  0  0  0  0  0
  161.7782  142.5228  186.2532 C   0  0  0  0  0  0  0  0  0  0  0  0
  163.2679  142.8223  187.1248 Cl  0  0  0  0  0  0  0  0  0  0  0  0
  160.5886  142.5553  186.9495 C   0  0  0  0  0  0  0  0  0  0  0  0
  159.3806  142.3238  186.3002 C   0  0  0  0  0  0  0  0  0  0  0  0
  154.2903  137.0464  190.6375 C   0  0  0  0  0  0  0  0  0  0  0  0
  152.9714  136.8292  191.2912 C   0  0  0  0  0  0  0  0  0  0  0  0
  152.6996  137.1982  192.5885 C   0  0  0  0  0  0  0  0  0  0  0  0
  151.4646  136.9885  193.1600 C   0  0  0  0  0  0  0  0  0  0  0  0
  150.4669  136.3947  192.4245 C   0  0  0  0  0  0  0  0  0  0  0  0
  150.7435  136.0265  191.1262 C   0  0  0  0  0  0  0  0  0  0  0  0
  151.9580  136.2491  190.6101 N   0  0  0  0  0  0  0  0  0  0  0  0
  1  2  1  0  0  0
  2  3  1  0  0  0
  3  4  1  0  0  0
  4  5  2  0  0  0
  5  6  1  0  0  0
  6 13  1  0  0  0
 13 14  1  0  0  0
 14 15  2  0  0  0
 14 16  1  0  0  0
 16 18  1  0  0  0
 18 19  2  0  0  0
 19 20  1  0  0  0
 20 21  1  0  0  0
 21 22  2  0  0  0
 21 23  1  0  0  0
 23 24  2  0  0  0
 24 25  1  0  0  0
 25 26  2  0  0  0
 26 27  1  0  0  0
 26 28  1  0  0  0
 28 29  2  0  0  0
  6  7  1  0  0  0
  7  8  1  0  0  0
  8  9  2  0  0  0
  8 10  1  0  0  0
 10 30  1  0  0  0
 30 31  1  0  0  0
 31 32  2  0  0  0
 32 33  1  0  0  0
 33 34  2  0  0  0
 34 35  1  0  0  0
 35 36  2  0  0  0
 10 11  1  0  0  0
 11 12  2  0  0  0
 11  2  1  0  0  0
  7  3  2  0  0  0
 36 31  1  0  0  0
 22 18  1  0  0  0
 29 23  1  0  0  0
 16 17  1  0  0  0
M  END
> <minimizedAffinity>
-8.98022

> <CNNscore>
0.4203810096

> <CNNaffinity>
6.5316953659

> <CNN_VS>
2.7458007336

> <CNNaffinity_variance>
0.1446136981

$$$$
[H]c1nc(N2C([H])([H])C([H])([H])N(C([H])([H])C3([H])C([H])([H])OC([H])([H])C([H])([H])C3([H])[H])C([H])([H])C2([H])[H])nc(N([H])C([H])([H])C([H])(C([H])([H])[H])C([H])([H])[H])c1C(=O)N([H])C([H])([H])c1c([H])c([H])c([H])c([H])c1[H]


 36 39  0  0  0  0  0  0  0  0999 V2000
  155.7522  139.0715  185.0202 C   0  0  0  0  0  0  0  0  0  0  0  0
  155.8904  138.5310  186.2584 N   0  0  0  0  0  0  0  0  0  0  0  0
  154.8508  138.2048  187.0166 C   0  0  0  0  0  0  0  0  0  0  0  0
  153.6314  138.4314  186.5092 N   0  0  0  0  0  0  0  0  0  0  0  0
  153.4109  138.9606  185.2972 C   0  0  0  0  0  0  0  0  0  0  0  0
  154.5152  139.3024  184.5013 C   0  0  0  0  0  0  0  0  0  0  0  0
  154.9899  137.6388  188.3248 N   0  0  0  0  0  0  0  0  0  0  0  0
  156.2057  137.8223  189.1226 C   0  0  0  0  0  0  0  0  0  0  0  0
  155.7427  137.6298  190.5629 C   0  0  0  0  0  0  0  0  0  0  0  0
  155.4868  136.1762  190.7906 N   0  0  0  0  0  0  0  0  0  0  0  0
  154.6583  135.7295  189.7234 C   0  0  0  0  0  0  0  0  0  0  0  0
  153.9621  136.8452  188.9556 C   0  0  0  0  0  0  0  0  0  0  0  0
  154.9999  136.0920  192.1108 C   0  0  0  0  0  0  0  0  0  0  0  0
  153.5720  135.9006  192.3794 C   0  0  0  0  0  0  0  0  0  0  0  0
  153.1597  134.9802  193.4832 C   0  0  0  0  0  0  0  0  0  0  0  0
  151.6458  134.7383  193.2803 C   0  0  0  0  0  0  0  0  0  0  0  0
  150.9863  136.0873  193.4231 C   0  0  0  0  0  0  0  0  0  0  0  0
  151.9147  137.1111  193.5829 O   0  0  0  0  0  0  0  0  0  0  0  0
  152.8012  137.1958  192.5372 C   0  0  0  0  0  0  0  0  0  0  0  0
  154.3090  139.8468  183.1904 C   0  0  0  0  0  0  0  0  0  0  0  0
  155.1925  140.3576  182.4894 O   0  0  0  0  0  0  0  0  0  0  0  0
  152.9943  139.8266  182.5902 N   0  0  0  0  0  0  0  0  0  0  0  0
  152.1545  139.4457  183.0459 H   0  0  0  0  0  0  0  0  0  0  0  0
  152.7856  140.3741  181.2522 C   0  0  0  0  0  0  0  0  0  0  0  0
  151.6297  139.6813  180.6552 C   0  0  0  0  0  0  0  0  0  0  0  0
  151.2371  140.0672  179.3796 C   0  0  0  0  0  0  0  0  0  0  0  0
  150.1566  139.4289  178.8170 C   0  0  0  0  0  0  0  0  0  0  0  0
  149.4778  138.4410  179.4810 C   0  0  0  0  0  0  0  0  0  0  0  0
  149.8828  138.0704  180.7486 C   0  0  0  0  0  0  0  0  0  0  0  0
  150.9615  138.6940  181.3330 C   0  0  0  0  0  0  0  0  0  0  0  0
  156.9406  139.3815  184.3446 N   0  0  0  0  0  0  0  0  0  0  0  0
  157.3517  138.9129  183.5277 H   0  0  0  0  0  0  0  0  0  0  0  0
  157.7310  140.5338  184.8405 C   0  0  0  0  0  0  0  0  0  0  0  0
  159.9254  141.4711  184.4223 C   0  0  0  0  0  0  0  0  0  0  0  0
  158.6057  141.1105  183.7759 C   0  0  0  0  0  0  0  0  0  0  0  0
  158.7923  140.0865  182.6987 C   0  0  0  0  0  0  0  0  0  0  0  0
 34 35  1  0  0  0
 35 36  1  0  0  0
 35 33  1  0  0  0
 33 31  1  0  0  0
 31  1  1  0  0  0
  1  2  2  0  0  0
  2  3  1  0  0  0
  3  4  2  0  0  0
  4  5  1  0  0  0
  5  6  2  0  0  0
  6 20  1  0  0  0
 20 21  2  0  0  0
 20 22  1  0  0  0
 22 24  1  0  0  0
 24 25  1  0  0  0
 25 26  2  0  0  0
 26 27  1  0  0  0
 27 28  2  0  0  0
 28 29  1  0  0  0
 29 30  2  0  0  0
  3  7  1  0  0  0
  7  8  1  0  0  0
  8  9  1  0  0  0
  9 10  1  0  0  0
 10 13  1  0  0  0
 13 14  1  0  0  0
 14 15  1  0  0  0
 15 16  1  0  0  0
 16 17  1  0  0  0
 17 18  1  0  0  0
 18 19  1  0  0  0
 10 11  1  0  0  0
 11 12  1  0  0  0
  6  1  1  0  0  0
 30 25  1  0  0  0
 12  7  1  0  0  0
 19 14  1  0  0  0
 31 32  1  0  0  0
 22 23  1  0  0  0
M  END
> <minimizedAffinity>
-7.70112

> <CNNscore>
0.3857797980

> <CNNaffinity>
5.9549713135

> <CNN_VS>
2.2973077297

> <CNNaffinity_variance>
0.0513515174

$$$$
[H]c1nc(N2C([H])([H])C([H])([H])N(C([H])([H])C3([H])C([H])([H])OC([H])([H])C([H])([H])C3([H])[H])C([H])([H])C2([H])[H])nc(N([H])C([H])([H])C([H])(C([H])([H])[H])C([H])([H])[H])c1C(=O)N([H])C([H])([H])c1c([H])c([H])c([H])c([H])c1[H]


 36 39  0  0  0  0  0  0  0  0999 V2000
  154.5925  139.7370  183.8666 C   0  0  0  0  0  0  0  0  0  0  0  0
  155.1113  139.1615  184.9819 N   0  0  0  0  0  0  0  0  0  0  0  0
  154.5905  138.0717  185.5328 C   0  0  0  0  0  0  0  0  0  0  0  0
  153.5107  137.5452  184.9391 N   0  0  0  0  0  0  0  0  0  0  0  0
  152.9395  138.0525  183.8372 C   0  0  0  0  0  0  0  0  0  0  0  0
  153.4961  139.2046  183.2605 C   0  0  0  0  0  0  0  0  0  0  0  0
  155.1301  137.4626  186.7113 N   0  0  0  0  0  0  0  0  0  0  0  0
  156.2476  138.0589  187.4487 C   0  0  0  0  0  0  0  0  0  0  0  0
  156.1071  137.4998  188.8606 C   0  0  0  0  0  0  0  0  0  0  0  0
  156.5253  136.0662  188.8490 N   0  0  0  0  0  0  0  0  0  0  0  0
  155.8304  135.4409  187.7762 C   0  0  0  0  0  0  0  0  0  0  0  0
  154.6308  136.2242  187.2599 C   0  0  0  0  0  0  0  0  0  0  0  0
  156.3014  135.6082  190.1632 C   0  0  0  0  0  0  0  0  0  0  0  0
  155.0062  135.8015  190.8209 C   0  0  0  0  0  0  0  0  0  0  0  0
  154.3819  137.1601  190.8062 C   0  0  0  0  0  0  0  0  0  0  0  0
  153.2399  137.1052  191.8474 C   0  0  0  0  0  0  0  0  0  0  0  0
  152.2743  136.0583  191.3508 C   0  0  0  0  0  0  0  0  0  0  0  0
  152.7400  135.4142  190.2089 O   0  0  0  0  0  0  0  0  0  0  0  0
  153.9520  134.7971  190.4008 C   0  0  0  0  0  0  0  0  0  0  0  0
  152.9210  139.7546  182.0671 C   0  0  0  0  0  0  0  0  0  0  0  0
  153.0703  140.9220  181.6828 O   0  0  0  0  0  0  0  0  0  0  0  0
  152.0965  138.9341  181.2092 N   0  0  0  0  0  0  0  0  0  0  0  0
  151.8697  137.9478  181.3932 H   0  0  0  0  0  0  0  0  0  0  0  0
  151.5169  139.4919  179.9899 C   0  0  0  0  0  0  0  0  0  0  0  0
  150.0692  139.2158  180.0099 C   0  0  0  0  0  0  0  0  0  0  0  0
  149.5100  138.6325  178.8797 C   0  0  0  0  0  0  0  0  0  0  0  0
  148.1590  138.3757  178.8883 C   0  0  0  0  0  0  0  0  0  0  0  0
  147.3749  138.6796  179.9703 C   0  0  0  0  0  0  0  0  0  0  0  0
  147.9486  139.2590  181.0854 C   0  0  0  0  0  0  0  0  0  0  0  0
  149.2986  139.5257  181.1012 C   0  0  0  0  0  0  0  0  0  0  0  0
  155.2382  140.8945  183.4106 N   0  0  0  0  0  0  0  0  0  0  0  0
  154.9114  141.8677  183.4550 H   0  0  0  0  0  0  0  0  0  0  0  0
  156.5719  140.7339  182.7829 C   0  0  0  0  0  0  0  0  0  0  0  0
  156.6972  143.0461  182.0708 C   0  0  0  0  0  0  0  0  0  0  0  0
  156.7355  141.6131  181.5865 C   0  0  0  0  0  0  0  0  0  0  0  0
  158.0455  141.2974  180.9323 C   0  0  0  0  0  0  0  0  0  0  0  0
 34 35  1  0  0  0
 35 36  1  0  0  0
 35 33  1  0  0  0
 33 31  1  0  0  0
 31  1  1  0  0  0
  1  2  2  0  0  0
  2  3  1  0  0  0
  3  4  2  0  0  0
  4  5  1  0  0  0
  5  6  2  0  0  0
  6 20  1  0  0  0
 20 21  2  0  0  0
 20 22  1  0  0  0
 22 24  1  0  0  0
 24 25  1  0  0  0
 25 26  2  0  0  0
 26 27  1  0  0  0
 27 28  2  0  0  0
 28 29  1  0  0  0
 29 30  2  0  0  0
  3  7  1  0  0  0
  7  8  1  0  0  0
  8  9  1  0  0  0
  9 10  1  0  0  0
 10 13  1  0  0  0
 13 14  1  0  0  0
 14 15  1  0  0  0
 15 16  1  0  0  0
 16 17  1  0  0  0
 17 18  1  0  0  0
 18 19  1  0  0  0
 10 11  1  0  0  0
 11 12  1  0  0  0
  6  1  1  0  0  0
 30 25  1  0  0  0
 12  7  1  0  0  0
 19 14  1  0  0  0
 31 32  1  0  0  0
 22 23  1  0  0  0
M  END
> <minimizedAffinity>
-7.28259

> <CNNscore>
0.3619526923

> <CNNaffinity>
6.0154237747

> <CNN_VS>
2.1772987843

> <CNNaffinity_variance>
0.0106105823

$$$$
[H]c1nc(N2C([H])([H])C([H])([H])N(C([H])([H])C3([H])C([H])([H])OC([H])([H])C([H])([H])C3([H])[H])C([H])([H])C2([H])[H])nc(N([H])C([H])([H])C([H])(C([H])([H])[H])C([H])([H])[H])c1C(=O)N([H])C([H])([H])c1c([H])c([H])c([H])c([H])c1[H]


 36 39  0  0  0  0  0  0  0  0999 V2000
  157.3984  139.6030  184.8840 C   0  0  0  0  0  0  0  0  0  0  0  0
  156.8944  139.0794  186.0312 N   0  0  0  0  0  0  0  0  0  0  0  0
  155.6553  138.6114  186.1201 C   0  0  0  0  0  0  0  0  0  0  0  0
  154.8996  138.6737  185.0153 N   0  0  0  0  0  0  0  0  0  0  0  0
  155.3224  139.1749  183.8457 C   0  0  0  0  0  0  0  0  0  0  0  0
  156.6339  139.6673  183.7597 C   0  0  0  0  0  0  0  0  0  0  0  0
  155.1165  138.0622  187.3281 N   0  0  0  0  0  0  0  0  0  0  0  0
  153.7210  137.6249  187.4249 C   0  0  0  0  0  0  0  0  0  0  0  0
  153.7241  136.6063  188.5598 C   0  0  0  0  0  0  0  0  0  0  0  0
  153.8691  137.3362  189.8546 N   0  0  0  0  0  0  0  0  0  0  0  0
  154.9712  138.2243  189.7080 C   0  0  0  0  0  0  0  0  0  0  0  0
  155.8896  137.9022  188.5367 C   0  0  0  0  0  0  0  0  0  0  0  0
  153.9335  136.3286  190.8383 C   0  0  0  0  0  0  0  0  0  0  0  0
  152.8329  136.1238  191.7840 C   0  0  0  0  0  0  0  0  0  0  0  0
  152.4669  137.2307  192.7201 C   0  0  0  0  0  0  0  0  0  0  0  0
  151.5397  136.5910  193.7795 C   0  0  0  0  0  0  0  0  0  0  0  0
  150.3305  136.0931  193.0277 C   0  0  0  0  0  0  0  0  0  0  0  0
  150.4614  136.2612  191.6528 O   0  0  0  0  0  0  0  0  0  0  0  0
  151.5594  135.6161  191.1383 C   0  0  0  0  0  0  0  0  0  0  0  0
  157.1212  140.1861  182.5143 C   0  0  0  0  0  0  0  0  0  0  0  0
  158.1298  139.7774  181.9239 O   0  0  0  0  0  0  0  0  0  0  0  0
  156.4260  141.2661  181.8516 N   0  0  0  0  0  0  0  0  0  0  0  0
  155.5785  141.7206  182.2164 H   0  0  0  0  0  0  0  0  0  0  0  0
  156.9178  141.7894  180.5796 C   0  0  0  0  0  0  0  0  0  0  0  0
  157.7742  142.9533  180.8701 C   0  0  0  0  0  0  0  0  0  0  0  0
  157.4695  143.7116  181.9936 C   0  0  0  0  0  0  0  0  0  0  0  0
  158.2609  144.8021  182.2694 C   0  0  0  0  0  0  0  0  0  0  0  0
  159.3208  145.1432  181.4707 C   0  0  0  0  0  0  0  0  0  0  0  0
  159.6089  144.3771  180.3578 C   0  0  0  0  0  0  0  0  0  0  0  0
  158.8318  143.2808  180.0608 C   0  0  0  0  0  0  0  0  0  0  0  0
  158.7168  140.0746  184.9465 N   0  0  0  0  0  0  0  0  0  0  0  0
  159.5908  139.5385  184.8783 H   0  0  0  0  0  0  0  0  0  0  0  0
  158.9160  141.5328  185.1270 C   0  0  0  0  0  0  0  0  0  0  0  0
  160.4430  141.6731  183.2516 C   0  0  0  0  0  0  0  0  0  0  0  0
  160.2901  141.9622  184.7290 C   0  0  0  0  0  0  0  0  0  0  0  0
  160.4385  143.4255  185.0127 C   0  0  0  0  0  0  0  0  0  0  0  0
 34 35  1  0  0  0
 35 36  1  0  0  0
 35 33  1  0  0  0
 33 31  1  0  0  0
 31  1  1  0  0  0
  1  2  2  0  0  0
  2  3  1  0  0  0
  3  4  2  0  0  0
  4  5  1  0  0  0
  5  6  2  0  0  0
  6 20  1  0  0  0
 20 21  2  0  0  0
 20 22  1  0  0  0
 22 24  1  0  0  0
 24 25  1  0  0  0
 25 26  2  0  0  0
 26 27  1  0  0  0
 27 28  2  0  0  0
 28 29  1  0  0  0
 29 30  2  0  0  0
  3  7  1  0  0  0
  7  8  1  0  0  0
  8  9  1  0  0  0
  9 10  1  0  0  0
 10 13  1  0  0  0
 13 14  1  0  0  0
 14 15  1  0  0  0
 15 16  1  0  0  0
 16 17  1  0  0  0
 17 18  1  0  0  0
 18 19  1  0  0  0
 10 11  1  0  0  0
 11 12  1  0  0  0
  6  1  1  0  0  0
 30 25  1  0  0  0
 12  7  1  0  0  0
 19 14  1  0  0  0
 31 32  1  0  0  0
 22 23  1  0  0  0
M  END
> <minimizedAffinity>
-7.71834

> <CNNscore>
0.3097645044

> <CNNaffinity>
6.3202886581

> <CNN_VS>
1.9578011036

> <CNNaffinity_variance>
0.0723182261

$$$$
[H]c1nc(N2C([H])([H])C([H])([H])N(C([H])([H])C3([H])C([H])([H])OC([H])([H])C([H])([H])C3([H])[H])C([H])([H])C2([H])[H])nc(N([H])C([H])([H])C([H])(C([H])([H])[H])C([H])([H])[H])c1C(=O)N([H])C([H])([H])c1c([H])c([H])c([H])c([H])c1[H]


 36 39  0  0  0  0  0  0  0  0999 V2000
  153.2739  139.7504  182.4623 C   0  0  0  0  0  0  0  0  0  0  0  0
  152.7845  138.5448  182.8515 N   0  0  0  0  0  0  0  0  0  0  0  0
  153.0820  137.9966  184.0233 C   0  0  0  0  0  0  0  0  0  0  0  0
  153.9003  138.6870  184.8290 N   0  0  0  0  0  0  0  0  0  0  0  0
  154.4245  139.8816  184.5190 C   0  0  0  0  0  0  0  0  0  0  0  0
  154.1048  140.4549  183.2784 C   0  0  0  0  0  0  0  0  0  0  0  0
  152.5729  136.7237  184.4376 N   0  0  0  0  0  0  0  0  0  0  0  0
  151.1723  136.5400  184.8286 C   0  0  0  0  0  0  0  0  0  0  0  0
  150.9099  135.0552  184.5997 C   0  0  0  0  0  0  0  0  0  0  0  0
  151.5951  134.2790  185.6760 N   0  0  0  0  0  0  0  0  0  0  0  0
  152.9359  134.7515  185.7376 C   0  0  0  0  0  0  0  0  0  0  0  0
  153.3863  135.5333  184.5109 C   0  0  0  0  0  0  0  0  0  0  0  0
  151.3647  132.9258  185.3555 C   0  0  0  0  0  0  0  0  0  0  0  0
  150.1476  132.2404  185.7984 C   0  0  0  0  0  0  0  0  0  0  0  0
  149.4637  132.7102  187.0423 C   0  0  0  0  0  0  0  0  0  0  0  0
  148.4547  131.5970  187.4089 C   0  0  0  0  0  0  0  0  0  0  0  0
  147.4872  131.5163  186.2545 C   0  0  0  0  0  0  0  0  0  0  0  0
  147.8458  132.3611  185.2090 O   0  0  0  0  0  0  0  0  0  0  0  0
  149.0990  132.0955  184.7138 C   0  0  0  0  0  0  0  0  0  0  0  0
  154.6309  141.7432  182.9307 C   0  0  0  0  0  0  0  0  0  0  0  0
  153.9708  142.6676  182.4382 O   0  0  0  0  0  0  0  0  0  0  0  0
  156.0279  142.0439  183.1478 N   0  0  0  0  0  0  0  0  0  0  0  0
  156.7096  141.3811  183.5402 H   0  0  0  0  0  0  0  0  0  0  0  0
  156.5622  143.3583  182.8009 C   0  0  0  0  0  0  0  0  0  0  0  0
  157.4902  143.1850  181.6689 C   0  0  0  0  0  0  0  0  0  0  0  0
  157.3885  142.0147  180.9272 C   0  0  0  0  0  0  0  0  0  0  0  0
  158.2537  141.8430  179.8721 C   0  0  0  0  0  0  0  0  0  0  0  0
  159.1924  142.7876  179.5494 C   0  0  0  0  0  0  0  0  0  0  0  0
  159.2786  143.9453  180.2981 C   0  0  0  0  0  0  0  0  0  0  0  0
  158.4238  144.1405  181.3588 C   0  0  0  0  0  0  0  0  0  0  0  0
  152.8870  140.1933  181.1899 N   0  0  0  0  0  0  0  0  0  0  0  0
  153.1234  141.0771  180.7221 H   0  0  0  0  0  0  0  0  0  0  0  0
  152.0303  139.2928  180.3813 C   0  0  0  0  0  0  0  0  0  0  0  0
  150.2118  139.3914  178.7838 C   0  0  0  0  0  0  0  0  0  0  0  0
  150.6777  139.8782  180.1386 C   0  0  0  0  0  0  0  0  0  0  0  0
  149.7533  139.4218  181.2253 C   0  0  0  0  0  0  0  0  0  0  0  0
 34 35  1  0  0  0
 35 36  1  0  0  0
 35 33  1  0  0  0
 33 31  1  0  0  0
 31  1  1  0  0  0
  1  2  2  0  0  0
  2  3  1  0  0  0
  3  4  2  0  0  0
  4  5  1  0  0  0
  5  6  2  0  0  0
  6 20  1  0  0  0
 20 21  2  0  0  0
 20 22  1  0  0  0
 22 24  1  0  0  0
 24 25  1  0  0  0
 25 26  2  0  0  0
 26 27  1  0  0  0
 27 28  2  0  0  0
 28 29  1  0  0  0
 29 30  2  0  0  0
  3  7  1  0  0  0
  7  8  1  0  0  0
  8  9  1  0  0  0
  9 10  1  0  0  0
 10 13  1  0  0  0
 13 14  1  0  0  0
 14 15  1  0  0  0
 15 16  1  0  0  0
 16 17  1  0  0  0
 17 18  1  0  0  0
 18 19  1  0  0  0
 10 11  1  0  0  0
 11 12  1  0  0  0
  6  1  1  0  0  0
 30 25  1  0  0  0
 12  7  1  0  0  0
 19 14  1  0  0  0
 31 32  1  0  0  0
 22 23  1  0  0  0
M  END
> <minimizedAffinity>
-6.46508

> <CNNscore>
0.3093294203

> <CNNaffinity>
5.9905576706

> <CNN_VS>
1.8530557156

> <CNNaffinity_variance>
0.0964198038

$$$$
[H]c1nc(N2C([H])([H])C([H])([H])N(C([H])([H])C3([H])C([H])([H])OC([H])([H])C([H])([H])C3([H])[H])C([H])([H])C2([H])[H])nc(N([H])C([H])([H])C([H])(C([H])([H])[H])C([H])([H])[H])c1C(=O)N([H])C([H])([H])c1c([H])c([H])c([H])c([H])c1[H]


 36 39  0  0  0  0  0  0  0  0999 V2000
  154.6453  139.7023  183.8887 C   0  0  0  0  0  0  0  0  0  0  0  0
  155.2007  139.0288  184.9290 N   0  0  0  0  0  0  0  0  0  0  0  0
  154.7225  137.8711  185.3686 C   0  0  0  0  0  0  0  0  0  0  0  0
  153.6485  137.3765  184.7381 N   0  0  0  0  0  0  0  0  0  0  0  0
  153.0430  137.9792  183.7046 C   0  0  0  0  0  0  0  0  0  0  0  0
  153.5548  139.2027  183.2454 C   0  0  0  0  0  0  0  0  0  0  0  0
  155.3008  137.1583  186.4679 N   0  0  0  0  0  0  0  0  0  0  0  0
  155.0022  135.7452  186.7175 C   0  0  0  0  0  0  0  0  0  0  0  0
  156.2005  135.2431  187.5159 C   0  0  0  0  0  0  0  0  0  0  0  0
  156.1102  135.7877  188.9036 N   0  0  0  0  0  0  0  0  0  0  0  0
  155.8849  137.1877  188.7851 C   0  0  0  0  0  0  0  0  0  0  0  0
  156.2076  137.7648  187.4133 C   0  0  0  0  0  0  0  0  0  0  0  0
  157.2797  135.3392  189.5503 C   0  0  0  0  0  0  0  0  0  0  0  0
  158.0370  134.1951  189.0356 C   0  0  0  0  0  0  0  0  0  0  0  0
  159.4268  134.4149  188.5298 C   0  0  0  0  0  0  0  0  0  0  0  0
  159.8002  133.1248  187.7633 C   0  0  0  0  0  0  0  0  0  0  0  0
  159.7619  132.0112  188.7800 C   0  0  0  0  0  0  0  0  0  0  0  0
  159.3182  132.4505  190.0232 O   0  0  0  0  0  0  0  0  0  0  0  0
  158.0634  133.0071  189.9761 C   0  0  0  0  0  0  0  0  0  0  0  0
  152.9425  139.8573  182.1256 C   0  0  0  0  0  0  0  0  0  0  0  0
  152.8982  141.0835  181.9604 O   0  0  0  0  0  0  0  0  0  0  0  0
  152.3143  139.0811  181.0806 N   0  0  0  0  0  0  0  0  0  0  0  0
  152.2588  138.0540  181.0746 H   0  0  0  0  0  0  0  0  0  0  0  0
  151.6973  139.7472  179.9364 C   0  0  0  0  0  0  0  0  0  0  0  0
  150.2855  139.3282  179.8762 C   0  0  0  0  0  0  0  0  0  0  0  0
  149.8018  138.8707  178.6569 C   0  0  0  0  0  0  0  0  0  0  0  0
  148.4842  138.4820  178.5910 C   0  0  0  0  0  0  0  0  0  0  0  0
  147.6611  138.5382  179.6851 C   0  0  0  0  0  0  0  0  0  0  0  0
  148.1599  138.9956  180.8894 C   0  0  0  0  0  0  0  0  0  0  0  0
  149.4751  139.3901  180.9809 C   0  0  0  0  0  0  0  0  0  0  0  0
  155.2482  140.9213  183.5489 N   0  0  0  0  0  0  0  0  0  0  0  0
  154.9864  141.8687  183.8484 H   0  0  0  0  0  0  0  0  0  0  0  0
  156.4242  140.8770  182.6468 C   0  0  0  0  0  0  0  0  0  0  0  0
  155.7056  143.1864  182.5079 C   0  0  0  0  0  0  0  0  0  0  0  0
  156.5581  142.1282  181.8421 C   0  0  0  0  0  0  0  0  0  0  0  0
  158.0003  142.5321  181.8160 C   0  0  0  0  0  0  0  0  0  0  0  0
 34 35  1  0  0  0
 35 36  1  0  0  0
 35 33  1  0  0  0
 33 31  1  0  0  0
 31  1  1  0  0  0
  1  2  2  0  0  0
  2  3  1  0  0  0
  3  4  2  0  0  0
  4  5  1  0  0  0
  5  6  2  0  0  0
  6 20  1  0  0  0
 20 21  2  0  0  0
 20 22  1  0  0  0
 22 24  1  0  0  0
 24 25  1  0  0  0
 25 26  2  0  0  0
 26 27  1  0  0  0
 27 28  2  0  0  0
 28 29  1  0  0  0
 29 30  2  0  0  0
  3  7  1  0  0  0
  7  8  1  0  0  0
  8  9  1  0  0  0
  9 10  1  0  0  0
 10 13  1  0  0  0
 13 14  1  0  0  0
 14 15  1  0  0  0
 15 16  1  0  0  0
 16 17  1  0  0  0
 17 18  1  0  0  0
 18 19  1  0  0  0
 10 11  1  0  0  0
 11 12  1  0  0  0
  6  1  1  0  0  0
 30 25  1  0  0  0
 12  7  1  0  0  0
 19 14  1  0  0  0
 31 32  1  0  0  0
 22 23  1  0  0  0
M  END
> <minimizedAffinity>
-7.37029

> <CNNscore>
0.2975064516

> <CNNaffinity>
5.8468136787

> <CNN_VS>
1.7394647598

> <CNNaffinity_variance>
0.0093917986

$$$$
[H]c1nc(N2C([H])([H])C([H])([H])N(C([H])([H])C3([H])C([H])([H])OC([H])([H])C([H])([H])C3([H])[H])C([H])([H])C2([H])[H])nc(N([H])C([H])([H])C([H])(C([H])([H])[H])C([H])([H])[H])c1C(=O)N([H])C([H])([H])c1c([H])c([H])c([H])c([H])c1[H]


 36 39  0  0  0  0  0  0  0  0999 V2000
  154.5763  139.6379  183.8314 C   0  0  0  0  0  0  0  0  0  0  0  0
  154.1141  139.0107  184.9438 N   0  0  0  0  0  0  0  0  0  0  0  0
  154.9122  138.6289  185.9335 C   0  0  0  0  0  0  0  0  0  0  0  0
  156.2198  138.8881  185.7965 N   0  0  0  0  0  0  0  0  0  0  0  0
  156.7542  139.5023  184.7312 C   0  0  0  0  0  0  0  0  0  0  0  0
  155.9037  139.9034  183.6892 C   0  0  0  0  0  0  0  0  0  0  0  0
  154.4316  137.9632  187.1069 N   0  0  0  0  0  0  0  0  0  0  0  0
  153.0692  137.4295  187.1911 C   0  0  0  0  0  0  0  0  0  0  0  0
  153.1584  136.3371  188.2515 C   0  0  0  0  0  0  0  0  0  0  0  0
  153.2788  136.9835  189.5924 N   0  0  0  0  0  0  0  0  0  0  0  0
  154.3185  137.9502  189.4940 C   0  0  0  0  0  0  0  0  0  0  0  0
  155.2347  137.7710  188.2910 C   0  0  0  0  0  0  0  0  0  0  0  0
  153.4257  135.9167  190.5020 C   0  0  0  0  0  0  0  0  0  0  0  0
  152.4992  135.7473  191.6247 C   0  0  0  0  0  0  0  0  0  0  0  0
  152.5815  136.6923  192.7805 C   0  0  0  0  0  0  0  0  0  0  0  0
  151.7387  136.0484  193.9059 C   0  0  0  0  0  0  0  0  0  0  0  0
  150.3300  135.9629  193.3734 C   0  0  0  0  0  0  0  0  0  0  0  0
  150.2440  136.3761  192.0477 O   0  0  0  0  0  0  0  0  0  0  0  0
  151.0461  135.6436  191.2071 C   0  0  0  0  0  0  0  0  0  0  0  0
  156.4445  140.5851  182.5489 C   0  0  0  0  0  0  0  0  0  0  0  0
  155.7896  141.2904  181.7701 O   0  0  0  0  0  0  0  0  0  0  0  0
  157.8511  140.4785  182.2342 N   0  0  0  0  0  0  0  0  0  0  0  0
  158.5266  139.9244  182.7771 H   0  0  0  0  0  0  0  0  0  0  0  0
  158.4034  141.1787  181.0773 C   0  0  0  0  0  0  0  0  0  0  0  0
  158.7825  142.5361  181.5089 C   0  0  0  0  0  0  0  0  0  0  0  0
  159.1555  142.7085  182.8360 C   0  0  0  0  0  0  0  0  0  0  0  0
  159.5064  143.9728  183.2480 C   0  0  0  0  0  0  0  0  0  0  0  0
  159.4937  145.0399  182.3883 C   0  0  0  0  0  0  0  0  0  0  0  0
  159.1202  144.8493  181.0721 C   0  0  0  0  0  0  0  0  0  0  0  0
  158.7650  143.5934  180.6356 C   0  0  0  0  0  0  0  0  0  0  0  0
  153.6177  139.9647  182.8624 N   0  0  0  0  0  0  0  0  0  0  0  0
  153.4240  140.8808  182.4392 H   0  0  0  0  0  0  0  0  0  0  0  0
  152.7568  138.8704  182.3527 C   0  0  0  0  0  0  0  0  0  0  0  0
  152.0489  139.6190  180.1601 C   0  0  0  0  0  0  0  0  0  0  0  0
  151.5876  139.3919  181.5833 C   0  0  0  0  0  0  0  0  0  0  0  0
  150.4839  138.3808  181.6400 C   0  0  0  0  0  0  0  0  0  0  0  0
 34 35  1  0  0  0
 35 36  1  0  0  0
 35 33  1  0  0  0
 33 31  1  0  0  0
 31  1  1  0  0  0
  1  2  2  0  0  0
  2  3  1  0  0  0
  3  4  2  0  0  0
  4  5  1  0  0  0
  5  6  2  0  0  0
  6 20  1  0  0  0
 20 21  2  0  0  0
 20 22  1  0  0  0
 22 24  1  0  0  0
 24 25  1  0  0  0
 25 26  2  0  0  0
 26 27  1  0  0  0
 27 28  2  0  0  0
 28 29  1  0  0  0
 29 30  2  0  0  0
  3  7  1  0  0  0
  7  8  1  0  0  0
  8  9  1  0  0  0
  9 10  1  0  0  0
 10 13  1  0  0  0
 13 14  1  0  0  0
 14 15  1  0  0  0
 15 16  1  0  0  0
 16 17  1  0  0  0
 17 18  1  0  0  0
 18 19  1  0  0  0
 10 11  1  0  0  0
 11 12  1  0  0  0
  6  1  1  0  0  0
 30 25  1  0  0  0
 12  7  1  0  0  0
 19 14  1  0  0  0
 31 32  1  0  0  0
 22 23  1  0  0  0
M  END
> <minimizedAffinity>
-8.17912

> <CNNscore>
0.2946758568

> <CNNaffinity>
6.1296663284

> <CNN_VS>
1.8062646389

> <CNNaffinity_variance>
0.0263150819

$$$$
[H]c1nc(N2C([H])([H])C([H])([H])N(C([H])([H])C3([H])C([H])([H])OC([H])([H])C([H])([H])C3([H])[H])C([H])([H])C2([H])[H])nc(N([H])C([H])([H])C([H])(C([H])([H])[H])C([H])([H])[H])c1C(=O)N([H])C([H])([H])c1c([H])c([H])c([H])c([H])c1[H]


 36 39  0  0  0  0  0  0  0  0999 V2000
  154.1489  138.5928  184.5716 C   0  0  0  0  0  0  0  0  0  0  0  0
  155.2508  139.3866  184.5822 N   0  0  0  0  0  0  0  0  0  0  0  0
  155.5581  140.1974  183.5770 C   0  0  0  0  0  0  0  0  0  0  0  0
  154.7266  140.2077  182.5263 N   0  0  0  0  0  0  0  0  0  0  0  0
  153.6200  139.4555  182.4392 C   0  0  0  0  0  0  0  0  0  0  0  0
  153.3017  138.6012  183.5063 C   0  0  0  0  0  0  0  0  0  0  0  0
  156.7209  141.0334  183.5803 N   0  0  0  0  0  0  0  0  0  0  0  0
  157.2378  141.6457  182.3531 C   0  0  0  0  0  0  0  0  0  0  0  0
  158.0226  142.8592  182.8401 C   0  0  0  0  0  0  0  0  0  0  0  0
  159.2948  142.3853  183.4624 N   0  0  0  0  0  0  0  0  0  0  0  0
  158.9472  141.3598  184.3857 C   0  0  0  0  0  0  0  0  0  0  0  0
  157.4750  141.3332  184.7742 C   0  0  0  0  0  0  0  0  0  0  0  0
  159.9233  143.5510  183.9453 C   0  0  0  0  0  0  0  0  0  0  0  0
  160.9878  143.4753  184.9496 C   0  0  0  0  0  0  0  0  0  0  0  0
  160.6382  143.0743  186.3469 C   0  0  0  0  0  0  0  0  0  0  0  0
  161.8783  143.4221  187.2029 C   0  0  0  0  0  0  0  0  0  0  0  0
  163.0065  142.5795  186.6620 C   0  0  0  0  0  0  0  0  0  0  0  0
  162.6273  141.8544  185.5369 O   0  0  0  0  0  0  0  0  0  0  0  0
  162.1832  142.6532  184.5116 C   0  0  0  0  0  0  0  0  0  0  0  0
  152.1106  137.8038  183.4513 C   0  0  0  0  0  0  0  0  0  0  0  0
  151.5257  137.3369  184.4375 O   0  0  0  0  0  0  0  0  0  0  0  0
  151.5018  137.4882  182.1790 N   0  0  0  0  0  0  0  0  0  0  0  0
  151.8700  137.7931  181.2682 H   0  0  0  0  0  0  0  0  0  0  0  0
  150.2846  136.6826  182.1232 C   0  0  0  0  0  0  0  0  0  0  0  0
  149.2323  137.4962  181.4883 C   0  0  0  0  0  0  0  0  0  0  0  0
  148.6205  138.4742  182.2625 C   0  0  0  0  0  0  0  0  0  0  0  0
  147.6343  139.2347  181.6791 C   0  0  0  0  0  0  0  0  0  0  0  0
  147.2556  139.0462  180.3757 C   0  0  0  0  0  0  0  0  0  0  0  0
  147.8755  138.0691  179.6212 C   0  0  0  0  0  0  0  0  0  0  0  0
  148.8653  137.2951  180.1823 C   0  0  0  0  0  0  0  0  0  0  0  0
  153.9643  137.7761  185.6956 N   0  0  0  0  0  0  0  0  0  0  0  0
  153.0937  137.3551  186.0432 H   0  0  0  0  0  0  0  0  0  0  0  0
  155.1595  137.4496  186.5101 C   0  0  0  0  0  0  0  0  0  0  0  0
  153.7227  138.0964  188.3502 C   0  0  0  0  0  0  0  0  0  0  0  0
  155.1429  138.1473  187.8307 C   0  0  0  0  0  0  0  0  0  0  0  0
  156.0846  137.4436  188.7591 C   0  0  0  0  0  0  0  0  0  0  0  0
 34 35  1  0  0  0
 35 36  1  0  0  0
 35 33  1  0  0  0
 33 31  1  0  0  0
 31  1  1  0  0  0
  1  2  2  0  0  0
  2  3  1  0  0  0
  3  4  2  0  0  0
  4  5  1  0  0  0
  5  6  2  0  0  0
  6 20  1  0  0  0
 20 21  2  0  0  0
 20 22  1  0  0  0
 22 24  1  0  0  0
 24 25  1  0  0  0
 25 26  2  0  0  0
 26 27  1  0  0  0
 27 28  2  0  0  0
 28 29  1  0  0  0
 29 30  2  0  0  0
  3  7  1  0  0  0
  7  8  1  0  0  0
  8  9  1  0  0  0
  9 10  1  0  0  0
 10 13  1  0  0  0
 13 14  1  0  0  0
 14 15  1  0  0  0
 15 16  1  0  0  0
 16 17  1  0  0  0
 17 18  1  0  0  0
 18 19  1  0  0  0
 10 11  1  0  0  0
 11 12  1  0  0  0
  6  1  1  0  0  0
 30 25  1  0  0  0
 12  7  1  0  0  0
 19 14  1  0  0  0
 31 32  1  0  0  0
 22 23  1  0  0  0
M  END
> <minimizedAffinity>
-7.99100

> <CNNscore>
0.2579196990

> <CNNaffinity>
6.4206190109

> <CNN_VS>
1.6560040712

> <CNNaffinity_variance>
0.0344516486

$$$$
[H]c1nc(N2C([H])([H])C([H])([H])N(C([H])([H])C3([H])C([H])([H])OC([H])([H])C([H])([H])C3([H])[H])C([H])([H])C2([H])[H])nc(N([H])C([H])([H])C([H])(C([H])([H])[H])C([H])([H])[H])c1C(=O)N([H])C([H])([H])c1c([H])c([H])c([H])c([H])c1[H]


 36 39  0  0  0  0  0  0  0  0999 V2000
  154.4560  139.6677  183.6460 C   0  0  0  0  0  0  0  0  0  0  0  0
  153.8558  139.0277  184.6826 N   0  0  0  0  0  0  0  0  0  0  0  0
  154.5257  138.6101  185.7499 C   0  0  0  0  0  0  0  0  0  0  0  0
  155.8446  138.8458  185.7723 N   0  0  0  0  0  0  0  0  0  0  0  0
  156.5108  139.4705  184.7906 C   0  0  0  0  0  0  0  0  0  0  0  0
  155.7954  139.9093  183.6656 C   0  0  0  0  0  0  0  0  0  0  0  0
  153.8994  137.9308  186.8441 N   0  0  0  0  0  0  0  0  0  0  0  0
  154.6434  137.5536  188.0493 C   0  0  0  0  0  0  0  0  0  0  0  0
  153.5747  137.4431  189.1315 C   0  0  0  0  0  0  0  0  0  0  0  0
  152.7877  136.1955  188.8982 N   0  0  0  0  0  0  0  0  0  0  0  0
  152.3996  136.2008  187.5291 C   0  0  0  0  0  0  0  0  0  0  0  0
  152.5044  137.5592  186.8490 C   0  0  0  0  0  0  0  0  0  0  0  0
  151.7854  136.2033  189.8894 C   0  0  0  0  0  0  0  0  0  0  0  0
  152.1302  136.1794  191.3135 C   0  0  0  0  0  0  0  0  0  0  0  0
  151.0769  136.5172  192.3195 C   0  0  0  0  0  0  0  0  0  0  0  0
  151.8289  136.7344  193.6532 C   0  0  0  0  0  0  0  0  0  0  0  0
  152.4880  135.4172  193.9783 C   0  0  0  0  0  0  0  0  0  0  0  0
  152.3116  134.4783  192.9668 O   0  0  0  0  0  0  0  0  0  0  0  0
  152.8071  134.8979  191.7565 C   0  0  0  0  0  0  0  0  0  0  0  0
  156.4778  140.6028  182.6117 C   0  0  0  0  0  0  0  0  0  0  0  0
  155.9289  141.3223  181.7668 O   0  0  0  0  0  0  0  0  0  0  0  0
  157.9124  140.4919  182.4744 N   0  0  0  0  0  0  0  0  0  0  0  0
  158.5120  139.9267  183.0900 H   0  0  0  0  0  0  0  0  0  0  0  0
  158.6084  141.2041  181.4057 C   0  0  0  0  0  0  0  0  0  0  0  0
  158.9691  142.5402  181.9128 C   0  0  0  0  0  0  0  0  0  0  0  0
  158.7671  143.6247  181.0683 C   0  0  0  0  0  0  0  0  0  0  0  0
  159.1052  144.8745  181.5320 C   0  0  0  0  0  0  0  0  0  0  0  0
  159.6261  145.0610  182.7857 C   0  0  0  0  0  0  0  0  0  0  0  0
  159.8196  143.9707  183.6115 C   0  0  0  0  0  0  0  0  0  0  0  0
  159.4889  142.7098  183.1705 C   0  0  0  0  0  0  0  0  0  0  0  0
  153.6233  140.0330  182.5793 N   0  0  0  0  0  0  0  0  0  0  0  0
  153.6118  140.9142  182.0509 H   0  0  0  0  0  0  0  0  0  0  0  0
  152.6203  139.0417  182.1214 C   0  0  0  0  0  0  0  0  0  0  0  0
  152.0332  139.6192  179.8431 C   0  0  0  0  0  0  0  0  0  0  0  0
  151.5587  139.6697  181.2790 C   0  0  0  0  0  0  0  0  0  0  0  0
  150.2855  138.9006  181.4560 C   0  0  0  0  0  0  0  0  0  0  0  0
 34 35  1  0  0  0
 35 36  1  0  0  0
 35 33  1  0  0  0
 33 31  1  0  0  0
 31  1  1  0  0  0
  1  2  2  0  0  0
  2  3  1  0  0  0
  3  4  2  0  0  0
  4  5  1  0  0  0
  5  6  2  0  0  0
  6 20  1  0  0  0
 20 21  2  0  0  0
 20 22  1  0  0  0
 22 24  1  0  0  0
 24 25  1  0  0  0
 25 26  2  0  0  0
 26 27  1  0  0  0
 27 28  2  0  0  0
 28 29  1  0  0  0
 29 30  2  0  0  0
  3  7  1  0  0  0
  7  8  1  0  0  0
  8  9  1  0  0  0
  9 10  1  0  0  0
 10 13  1  0  0  0
 13 14  1  0  0  0
 14 15  1  0  0  0
 15 16  1  0  0  0
 16 17  1  0  0  0
 17 18  1  0  0  0
 18 19  1  0  0  0
 10 11  1  0  0  0
 11 12  1  0  0  0
  6  1  1  0  0  0
 30 25  1  0  0  0
 12  7  1  0  0  0
 19 14  1  0  0  0
 31 32  1  0  0  0
 22 23  1  0  0  0
M  END
> <minimizedAffinity>
-8.13214

> <CNNscore>
0.2480124086

> <CNNaffinity>
6.0941944122

> <CNN_VS>
1.5114358664

> <CNNaffinity_variance>
0.0256987177

$$$$
[H]c1nc(N2C([H])([H])C([H])([H])N(C([H])([H])C3([H])C([H])([H])OC([H])([H])C([H])([H])C3([H])[H])C([H])([H])C2([H])[H])nc(N([H])C([H])([H])C([H])(C([H])([H])[H])C([H])([H])[H])c1C(=O)N([H])C([H])([H])c1c([H])c([H])c([H])c([H])c1[H]


 36 39  0  0  0  0  0  0  0  0999 V2000
  154.7919  139.0944  184.7275 C   0  0  0  0  0  0  0  0  0  0  0  0
  153.9394  138.4057  185.5295 N   0  0  0  0  0  0  0  0  0  0  0  0
  154.3277  137.8345  186.6632 C   0  0  0  0  0  0  0  0  0  0  0  0
  155.6188  137.9621  186.9988 N   0  0  0  0  0  0  0  0  0  0  0  0
  156.5222  138.6250  186.2626 C   0  0  0  0  0  0  0  0  0  0  0  0
  156.1038  139.2265  185.0656 C   0  0  0  0  0  0  0  0  0  0  0  0
  153.4347  137.1032  187.5109 N   0  0  0  0  0  0  0  0  0  0  0  0
  153.9077  136.0341  188.3950 C   0  0  0  0  0  0  0  0  0  0  0  0
  152.8513  135.9589  189.4923 C   0  0  0  0  0  0  0  0  0  0  0  0
  151.6241  135.3208  188.9291 N   0  0  0  0  0  0  0  0  0  0  0  0
  151.3248  135.9993  187.7146 C   0  0  0  0  0  0  0  0  0  0  0  0
  152.0130  137.3490  187.5599 C   0  0  0  0  0  0  0  0  0  0  0  0
  150.6809  135.3524  189.9762 C   0  0  0  0  0  0  0  0  0  0  0  0
  151.1030  135.5227  191.3692 C   0  0  0  0  0  0  0  0  0  0  0  0
  150.6469  136.7317  192.1215 C   0  0  0  0  0  0  0  0  0  0  0  0
  151.5207  136.7834  193.3963 C   0  0  0  0  0  0  0  0  0  0  0  0
  151.2149  135.5201  194.1616 C   0  0  0  0  0  0  0  0  0  0  0  0
  150.3538  134.6792  193.4638 O   0  0  0  0  0  0  0  0  0  0  0  0
  150.8482  134.3071  192.2376 C   0  0  0  0  0  0  0  0  0  0  0  0
  157.0431  139.9635  184.2707 C   0  0  0  0  0  0  0  0  0  0  0  0
  157.1451  139.8826  183.0394 O   0  0  0  0  0  0  0  0  0  0  0  0
  157.9650  140.8840  184.8966 N   0  0  0  0  0  0  0  0  0  0  0  0
  158.0132  141.0579  185.9093 H   0  0  0  0  0  0  0  0  0  0  0  0
  158.9166  141.6403  184.0865 C   0  0  0  0  0  0  0  0  0  0  0  0
  160.0231  142.0618  184.9642 C   0  0  0  0  0  0  0  0  0  0  0  0
  161.3062  142.0515  184.4317 C   0  0  0  0  0  0  0  0  0  0  0  0
  162.3450  142.4390  185.2453 C   0  0  0  0  0  0  0  0  0  0  0  0
  162.1374  142.8263  186.5433 C   0  0  0  0  0  0  0  0  0  0  0  0
  160.8544  142.8306  187.0555 C   0  0  0  0  0  0  0  0  0  0  0  0
  159.7982  142.4472  186.2610 C   0  0  0  0  0  0  0  0  0  0  0  0
  154.2421  139.6266  183.5531 N   0  0  0  0  0  0  0  0  0  0  0  0
  154.4980  140.4931  183.0638 H   0  0  0  0  0  0  0  0  0  0  0  0
  153.1516  138.8638  182.8993 C   0  0  0  0  0  0  0  0  0  0  0  0
  153.1420  140.9955  181.7484 C   0  0  0  0  0  0  0  0  0  0  0  0
  152.3677  139.7115  181.9516 C   0  0  0  0  0  0  0  0  0  0  0  0
  152.2047  138.9675  180.6618 C   0  0  0  0  0  0  0  0  0  0  0  0
 34 35  1  0  0  0
 35 36  1  0  0  0
 35 33  1  0  0  0
 33 31  1  0  0  0
 31  1  1  0  0  0
  1  2  2  0  0  0
  2  3  1  0  0  0
  3  4  2  0  0  0
  4  5  1  0  0  0
  5  6  2  0  0  0
  6 20  1  0  0  0
 20 21  2  0  0  0
 20 22  1  0  0  0
 22 24  1  0  0  0
 24 25  1  0  0  0
 25 26  2  0  0  0
 26 27  1  0  0  0
 27 28  2  0  0  0
 28 29  1  0  0  0
 29 30  2  0  0  0
  3  7  1  0  0  0
  7  8  1  0  0  0
  8  9  1  0  0  0
  9 10  1  0  0  0
 10 13  1  0  0  0
 13 14  1  0  0  0
 14 15  1  0  0  0
 15 16  1  0  0  0
 16 17  1  0  0  0
 17 18  1  0  0  0
 18 19  1  0  0  0
 10 11  1  0  0  0
 11 12  1  0  0  0
  6  1  1  0  0  0
 30 25  1  0  0  0
 12  7  1  0  0  0
 19 14  1  0  0  0
 31 32  1  0  0  0
 22 23  1  0  0  0
M  END
> <minimizedAffinity>
-8.19647

> <CNNscore>
0.2236648798

> <CNNaffinity>
5.9272966385

> <CNN_VS>
1.3257280588

> <CNNaffinity_variance>
0.0653257221

$$$$
[H]c1nc([H])c(N([H])C(=O)[C@@]([H])(n2c([H])nc3c2c(=O)n(C([H])([H])C#N)c(=O)n3C([H])([H])[H])C([H])([H])[H])nc1-c1c([H])nc(N2C([H])([H])C([H])([H])C([H])([H])[C@@]2([H])C(F)(F)F)nc1[H]


 42 46  0  0  0  0  0  0  0  0999 V2000
  154.8028  137.8124  189.0417 C   0  0  0  0  0  0  0  0  0  0  0  0
  155.8716  137.6674  188.4652 O   0  0  0  0  0  0  0  0  0  0  0  0
  153.5584  137.9140  188.4478 N   0  0  0  0  0  0  0  0  0  0  0  0
  152.6697  138.0420  189.0663 H   0  0  0  0  0  0  0  0  0  0  0  0
  153.2728  137.8714  187.0746 C   0  0  0  0  0  0  0  0  0  0  0  0
  152.2441  137.1624  186.5444 C   0  0  0  0  0  0  0  0  0  0  0  0
  152.0216  137.1617  185.2021 N   0  0  0  0  0  0  0  0  0  0  0  0
  152.8296  137.8694  184.4053 C   0  0  0  0  0  0  0  0  0  0  0  0
  153.8855  138.6055  184.8812 C   0  0  0  0  0  0  0  0  0  0  0  0
  154.0774  138.5862  186.1990 N   0  0  0  0  0  0  0  0  0  0  0  0
  154.7950  139.3927  184.0525 C   0  0  0  0  0  0  0  0  0  0  0  0
  156.1504  139.4697  184.2791 C   0  0  0  0  0  0  0  0  0  0  0  0
  156.9388  140.2138  183.4790 N   0  0  0  0  0  0  0  0  0  0  0  0
  156.4721  140.9213  182.4226 C   0  0  0  0  0  0  0  0  0  0  0  0
  155.1487  140.8448  182.2030 N   0  0  0  0  0  0  0  0  0  0  0  0
  154.3194  140.1200  182.9674 C   0  0  0  0  0  0  0  0  0  0  0  0
  157.3372  141.6979  181.6038 N   0  0  0  0  0  0  0  0  0  0  0  0
  157.6040  141.5637  180.1944 C   0  0  0  0  0  0  0  0  0  0  0  0
  158.7790  142.4009  179.8751 C   0  0  0  0  0  0  0  0  0  0  0  0
  159.3253  142.8709  181.1730 C   0  0  0  0  0  0  0  0  0  0  0  0
  158.1296  142.8064  182.0988 C   0  0  0  0  0  0  0  0  0  0  0  0
  157.3690  144.1074  182.1208 C   0  0  0  0  0  0  0  0  0  0  0  0
  158.2632  145.1366  182.1350 F   0  0  0  0  0  0  0  0  0  0  0  0
  156.4543  144.1792  181.0944 F   0  0  0  0  0  0  0  0  0  0  0  0
  156.6120  144.1007  183.2993 F   0  0  0  0  0  0  0  0  0  0  0  0
  156.1905  138.2026  191.1012 C   0  0  0  0  0  0  0  0  0  0  0  0
  154.8471  137.8843  190.5505 C   0  0  0  0  0  0  0  0  0  0  0  0
  154.0947  136.8680  191.1991 N   0  0  0  0  0  0  0  0  0  0  0  0
  152.9463  137.0147  191.9307 C   0  0  0  0  0  0  0  0  0  0  0  0
  152.5111  135.8479  192.3938 N   0  0  0  0  0  0  0  0  0  0  0  0
  153.3541  134.8891  191.9859 C   0  0  0  0  0  0  0  0  0  0  0  0
  153.3370  133.5571  192.1990 N   0  0  0  0  0  0  0  0  0  0  0  0
  152.2623  132.9896  192.9910 C   0  0  0  0  0  0  0  0  0  0  0  0
  154.3230  132.8172  191.6636 C   0  0  0  0  0  0  0  0  0  0  0  0
  154.3305  131.5747  191.8469 O   0  0  0  0  0  0  0  0  0  0  0  0
  155.3043  133.3662  190.9359 N   0  0  0  0  0  0  0  0  0  0  0  0
  155.3174  134.7187  190.7223 C   0  0  0  0  0  0  0  0  0  0  0  0
  156.2357  135.2186  190.0434 O   0  0  0  0  0  0  0  0  0  0  0  0
  154.3426  135.5368  191.2386 C   0  0  0  0  0  0  0  0  0  0  0  0
  156.3708  132.5628  190.3571 C   0  0  0  0  0  0  0  0  0  0  0  0
  157.4176  132.4118  191.3635 C   0  0  0  0  0  0  0  0  0  0  0  0
  158.2459  132.3009  192.1764 N   0  0  0  0  0  0  0  0  0  0  0  0
 26 27  1  0  0  0
 27  1  1  0  0  0
  1  2  2  0  0  0
  1  3  1  0  0  0
  3  5  1  0  0  0
  5  6  2  0  0  0
  6  7  1  0  0  0
  7  8  2  0  0  0
  8  9  1  0  0  0
  9 10  2  0  0  0
  9 11  1  0  0  0
 11 12  2  0  0  0
 12 13  1  0  0  0
 13 14  2  0  0  0
 14 15  1  0  0  0
 15 16  2  0  0  0
 14 17  1  0  0  0
 17 18  1  0  0  0
 18 19  1  0  0  0
 19 20  1  0  0  0
 20 21  1  0  0  0
 21 22  1  0  0  0
 22 23  1  0  0  0
 22 24  1  0  0  0
 22 25  1  0  0  0
 27 28  1  0  0  0
 28 29  1  0  0  0
 29 30  2  0  0  0
 30 31  1  0  0  0
 31 32  1  0  0  0
 32 33  1  0  0  0
 32 34  1  0  0  0
 34 35  2  0  0  0
 34 36  1  0  0  0
 36 40  1  0  0  0
 40 41  1  0  0  0
 41 42  3  0  0  0
 36 37  1  0  0  0
 37 38  2  0  0  0
 37 39  1  0  0  0
 10  5  1  0  0  0
 16 11  1  0  0  0
 21 17  1  0  0  0
 39 28  1  0  0  0
 39 31  2  0  0  0
  3  4  1  0  0  0
M  END
> <minimizedAffinity>
-7.75625

> <CNNscore>
0.3525680304

> <CNNaffinity>
6.7714476585

> <CNN_VS>
2.3873958588

> <CNNaffinity_variance>
0.0431681871

$$$$
[H]c1nc([H])c(N([H])C(=O)[C@@]([H])(n2c([H])nc3c2c(=O)n(C([H])([H])C#N)c(=O)n3C([H])([H])[H])C([H])([H])[H])nc1-c1c([H])nc(N2C([H])([H])C([H])([H])C([H])([H])[C@@]2([H])C(F)(F)F)nc1[H]


 42 46  0  0  0  0  0  0  0  0999 V2000
  154.5811  136.7992  189.8317 C   0  0  0  0  0  0  0  0  0  0  0  0
  155.4335  136.1667  189.2243 O   0  0  0  0  0  0  0  0  0  0  0  0
  153.4653  137.4054  189.2849 N   0  0  0  0  0  0  0  0  0  0  0  0
  152.7701  137.9457  189.9278 H   0  0  0  0  0  0  0  0  0  0  0  0
  153.0885  137.4169  187.9332 C   0  0  0  0  0  0  0  0  0  0  0  0
  151.9790  136.7959  187.4587 C   0  0  0  0  0  0  0  0  0  0  0  0
  151.6700  136.8440  186.1345 N   0  0  0  0  0  0  0  0  0  0  0  0
  152.4735  137.5122  185.2999 C   0  0  0  0  0  0  0  0  0  0  0  0
  153.6086  138.1598  185.7189 C   0  0  0  0  0  0  0  0  0  0  0  0
  153.8839  138.0945  187.0203 N   0  0  0  0  0  0  0  0  0  0  0  0
  154.5166  138.9008  184.8472 C   0  0  0  0  0  0  0  0  0  0  0  0
  155.8616  139.0441  185.1017 C   0  0  0  0  0  0  0  0  0  0  0  0
  156.6493  139.7406  184.2592 N   0  0  0  0  0  0  0  0  0  0  0  0
  156.1917  140.3350  183.1315 C   0  0  0  0  0  0  0  0  0  0  0  0
  154.8784  140.1940  182.8847 N   0  0  0  0  0  0  0  0  0  0  0  0
  154.0504  139.5121  183.6889 C   0  0  0  0  0  0  0  0  0  0  0  0
  157.0554  141.0648  182.2695 N   0  0  0  0  0  0  0  0  0  0  0  0
  156.8175  142.3245  181.6121 C   0  0  0  0  0  0  0  0  0  0  0  0
  157.8827  142.5178  180.6064 C   0  0  0  0  0  0  0  0  0  0  0  0
  158.6386  141.2415  180.5442 C   0  0  0  0  0  0  0  0  0  0  0  0
  158.3846  140.6192  181.9004 C   0  0  0  0  0  0  0  0  0  0  0  0
  159.4366  141.0173  182.9037 C   0  0  0  0  0  0  0  0  0  0  0  0
  160.5607  141.3965  182.2317 F   0  0  0  0  0  0  0  0  0  0  0  0
  158.9670  141.9668  183.7832 F   0  0  0  0  0  0  0  0  0  0  0  0
  159.6909  139.8793  183.6796 F   0  0  0  0  0  0  0  0  0  0  0  0
  156.0504  136.3761  191.8270 C   0  0  0  0  0  0  0  0  0  0  0  0
  154.7643  136.9276  191.3262 C   0  0  0  0  0  0  0  0  0  0  0  0
  153.5914  136.6464  192.0778 N   0  0  0  0  0  0  0  0  0  0  0  0
  152.7894  137.5359  192.7419 C   0  0  0  0  0  0  0  0  0  0  0  0
  151.7740  136.9235  193.3410 N   0  0  0  0  0  0  0  0  0  0  0  0
  151.8672  135.6093  193.0953 C   0  0  0  0  0  0  0  0  0  0  0  0
  151.0788  134.5860  193.4840 N   0  0  0  0  0  0  0  0  0  0  0  0
  149.9180  134.8710  194.3060 C   0  0  0  0  0  0  0  0  0  0  0  0
  151.4099  133.3451  193.0878 C   0  0  0  0  0  0  0  0  0  0  0  0
  150.6924  132.3748  193.4358 O   0  0  0  0  0  0  0  0  0  0  0  0
  152.4877  133.1088  192.3286 N   0  0  0  0  0  0  0  0  0  0  0  0
  153.2850  134.1507  191.9365 C   0  0  0  0  0  0  0  0  0  0  0  0
  154.2855  133.9188  191.2299 O   0  0  0  0  0  0  0  0  0  0  0  0
  153.0081  135.4448  192.3037 C   0  0  0  0  0  0  0  0  0  0  0  0
  152.8441  131.7642  191.9007 C   0  0  0  0  0  0  0  0  0  0  0  0
  153.6907  131.1730  192.9328 C   0  0  0  0  0  0  0  0  0  0  0  0
  154.3774  130.7115  193.7540 N   0  0  0  0  0  0  0  0  0  0  0  0
 26 27  1  0  0  0
 27  1  1  0  0  0
  1  2  2  0  0  0
  1  3  1  0  0  0
  3  5  1  0  0  0
  5  6  2  0  0  0
  6  7  1  0  0  0
  7  8  2  0  0  0
  8  9  1  0  0  0
  9 10  2  0  0  0
  9 11  1  0  0  0
 11 12  2  0  0  0
 12 13  1  0  0  0
 13 14  2  0  0  0
 14 15  1  0  0  0
 15 16  2  0  0  0
 14 17  1  0  0  0
 17 18  1  0  0  0
 18 19  1  0  0  0
 19 20  1  0  0  0
 20 21  1  0  0  0
 21 22  1  0  0  0
 22 23  1  0  0  0
 22 24  1  0  0  0
 22 25  1  0  0  0
 27 28  1  0  0  0
 28 29  1  0  0  0
 29 30  2  0  0  0
 30 31  1  0  0  0
 31 32  1  0  0  0
 32 33  1  0  0  0
 32 34  1  0  0  0
 34 35  2  0  0  0
 34 36  1  0  0  0
 36 40  1  0  0  0
 40 41  1  0  0  0
 41 42  3  0  0  0
 36 37  1  0  0  0
 37 38  2  0  0  0
 37 39  1  0  0  0
 10  5  1  0  0  0
 16 11  1  0  0  0
 21 17  1  0  0  0
 39 28  1  0  0  0
 39 31  2  0  0  0
  3  4  1  0  0  0
M  END
> <minimizedAffinity>
-7.64441

> <CNNscore>
0.2994338572

> <CNNaffinity>
6.5241951942

> <CNN_VS>
1.9535648823

> <CNNaffinity_variance>
0.0589572489

$$$$
[H]c1nc([H])c(N([H])C(=O)[C@@]([H])(n2c([H])nc3c2c(=O)n(C([H])([H])C#N)c(=O)n3C([H])([H])[H])C([H])([H])[H])nc1-c1c([H])nc(N2C([H])([H])C([H])([H])C([H])([H])[C@@]2([H])C(F)(F)F)nc1[H]


 42 46  0  0  0  0  0  0  0  0999 V2000
  152.9959  135.6098  182.2064 C   0  0  0  0  0  0  0  0  0  0  0  0
  152.4693  136.5445  181.6193 O   0  0  0  0  0  0  0  0  0  0  0  0
  153.5513  135.6452  183.4720 N   0  0  0  0  0  0  0  0  0  0  0  0
  153.9955  134.7445  183.8961 H   0  0  0  0  0  0  0  0  0  0  0  0
  153.6222  136.7521  184.3316 C   0  0  0  0  0  0  0  0  0  0  0  0
  152.8952  136.8634  185.4722 C   0  0  0  0  0  0  0  0  0  0  0  0
  153.0093  137.9650  186.2626 N   0  0  0  0  0  0  0  0  0  0  0  0
  153.8486  138.9426  185.9039 C   0  0  0  0  0  0  0  0  0  0  0  0
  154.6099  138.8883  184.7634 C   0  0  0  0  0  0  0  0  0  0  0  0
  154.4761  137.7976  184.0109 N   0  0  0  0  0  0  0  0  0  0  0  0
  155.5386  139.9289  184.3295 C   0  0  0  0  0  0  0  0  0  0  0  0
  155.1577  141.0190  183.5807 C   0  0  0  0  0  0  0  0  0  0  0  0
  156.0616  141.9469  183.2100 N   0  0  0  0  0  0  0  0  0  0  0  0
  157.3745  141.8798  183.5361 C   0  0  0  0  0  0  0  0  0  0  0  0
  157.7444  140.8149  184.2673 N   0  0  0  0  0  0  0  0  0  0  0  0
  156.8867  139.8633  184.6625 C   0  0  0  0  0  0  0  0  0  0  0  0
  158.2981  142.8785  183.1222 N   0  0  0  0  0  0  0  0  0  0  0  0
  159.4940  143.3301  183.7866 C   0  0  0  0  0  0  0  0  0  0  0  0
  159.9418  144.5696  183.1182 C   0  0  0  0  0  0  0  0  0  0  0  0
  158.8622  144.9511  182.1733 C   0  0  0  0  0  0  0  0  0  0  0  0
  158.1620  143.6384  181.8951 C   0  0  0  0  0  0  0  0  0  0  0  0
  158.7507  142.9333  180.7001 C   0  0  0  0  0  0  0  0  0  0  0  0
  157.7375  142.3736  179.9795 F   0  0  0  0  0  0  0  0  0  0  0  0
  159.5609  143.7690  179.9648 F   0  0  0  0  0  0  0  0  0  0  0  0
  159.5973  141.9394  181.2074 F   0  0  0  0  0  0  0  0  0  0  0  0
  152.1304  133.2554  182.0417 C   0  0  0  0  0  0  0  0  0  0  0  0
  153.0405  134.2864  181.4780 C   0  0  0  0  0  0  0  0  0  0  0  0
  154.3494  133.8757  181.1069 N   0  0  0  0  0  0  0  0  0  0  0  0
  154.9795  134.0719  179.9068 C   0  0  0  0  0  0  0  0  0  0  0  0
  156.2029  133.5539  179.9083 N   0  0  0  0  0  0  0  0  0  0  0  0
  156.4261  132.9976  181.1071 C   0  0  0  0  0  0  0  0  0  0  0  0
  157.5102  132.3544  181.5877 N   0  0  0  0  0  0  0  0  0  0  0  0
  158.6675  132.1963  180.7276 C   0  0  0  0  0  0  0  0  0  0  0  0
  157.4638  131.8889  182.8477 C   0  0  0  0  0  0  0  0  0  0  0  0
  158.4598  131.2865  183.3194 O   0  0  0  0  0  0  0  0  0  0  0  0
  156.3822  132.0481  183.6214 N   0  0  0  0  0  0  0  0  0  0  0  0
  155.2842  132.7017  183.1293 C   0  0  0  0  0  0  0  0  0  0  0  0
  154.2832  132.8441  183.8585 O   0  0  0  0  0  0  0  0  0  0  0  0
  155.2603  133.2039  181.8511 C   0  0  0  0  0  0  0  0  0  0  0  0
  156.3345  131.5433  184.9856 C   0  0  0  0  0  0  0  0  0  0  0  0
  156.8526  132.5839  185.8690 C   0  0  0  0  0  0  0  0  0  0  0  0
  157.2731  133.4214  186.5623 N   0  0  0  0  0  0  0  0  0  0  0  0
 26 27  1  0  0  0
 27  1  1  0  0  0
  1  2  2  0  0  0
  1  3  1  0  0  0
  3  5  1  0  0  0
  5  6  2  0  0  0
  6  7  1  0  0  0
  7  8  2  0  0  0
  8  9  1  0  0  0
  9 10  2  0  0  0
  9 11  1  0  0  0
 11 12  2  0  0  0
 12 13  1  0  0  0
 13 14  2  0  0  0
 14 15  1  0  0  0
 15 16  2  0  0  0
 14 17  1  0  0  0
 17 18  1  0  0  0
 18 19  1  0  0  0
 19 20  1  0  0  0
 20 21  1  0  0  0
 21 22  1  0  0  0
 22 23  1  0  0  0
 22 24  1  0  0  0
 22 25  1  0  0  0
 27 28  1  0  0  0
 28 29  1  0  0  0
 29 30  2  0  0  0
 30 31  1  0  0  0
 31 32  1  0  0  0
 32 33  1  0  0  0
 32 34  1  0  0  0
 34 35  2  0  0  0
 34 36  1  0  0  0
 36 40  1  0  0  0
 40 41  1  0  0  0
 41 42  3  0  0  0
 36 37  1  0  0  0
 37 38  2  0  0  0
 37 39  1  0  0  0
 10  5  1  0  0  0
 16 11  1  0  0  0
 21 17  1  0  0  0
 39 28  1  0  0  0
 39 31  2  0  0  0
  3  4  1  0  0  0
M  END
> <minimizedAffinity>
-7.58112

> <CNNscore>
0.2798438370

> <CNNaffinity>
7.0000963211

> <CNN_VS>
1.9589338303

> <CNNaffinity_variance>
0.1274150908

$$$$
[H]c1nc([H])c(N([H])C(=O)[C@@]([H])(n2c([H])nc3c2c(=O)n(C([H])([H])C#N)c(=O)n3C([H])([H])[H])C([H])([H])[H])nc1-c1c([H])nc(N2C([H])([H])C([H])([H])C([H])([H])[C@@]2([H])C(F)(F)F)nc1[H]


 42 46  0  0  0  0  0  0  0  0999 V2000
  153.7901  135.5839  189.4910 C   0  0  0  0  0  0  0  0  0  0  0  0
  154.6850  135.0440  188.8559 O   0  0  0  0  0  0  0  0  0  0  0  0
  152.7104  136.2692  188.9655 N   0  0  0  0  0  0  0  0  0  0  0  0
  151.9705  136.7118  189.6326 H   0  0  0  0  0  0  0  0  0  0  0  0
  152.4256  136.4816  187.6079 C   0  0  0  0  0  0  0  0  0  0  0  0
  151.3613  135.9317  186.9701 C   0  0  0  0  0  0  0  0  0  0  0  0
  151.1417  136.1766  185.6499 N   0  0  0  0  0  0  0  0  0  0  0  0
  151.9881  136.9682  184.9824 C   0  0  0  0  0  0  0  0  0  0  0  0
  153.0812  137.5529  185.5713 C   0  0  0  0  0  0  0  0  0  0  0  0
  153.2692  137.2942  186.8641 N   0  0  0  0  0  0  0  0  0  0  0  0
  154.0333  138.4228  184.8854 C   0  0  0  0  0  0  0  0  0  0  0  0
  153.7444  139.0871  183.7151 C   0  0  0  0  0  0  0  0  0  0  0  0
  154.6655  139.8764  183.1286 N   0  0  0  0  0  0  0  0  0  0  0  0
  155.9084  140.0706  183.6306 C   0  0  0  0  0  0  0  0  0  0  0  0
  156.1884  139.4214  184.7732 N   0  0  0  0  0  0  0  0  0  0  0  0
  155.3098  138.6244  185.3978 C   0  0  0  0  0  0  0  0  0  0  0  0
  156.8536  140.9095  182.9790 N   0  0  0  0  0  0  0  0  0  0  0  0
  157.7955  140.5700  181.9431 C   0  0  0  0  0  0  0  0  0  0  0  0
  158.7444  141.6948  181.8086 C   0  0  0  0  0  0  0  0  0  0  0  0
  158.4626  142.6194  182.9354 C   0  0  0  0  0  0  0  0  0  0  0  0
  157.0206  142.3173  183.2824 C   0  0  0  0  0  0  0  0  0  0  0  0
  156.0657  143.1991  182.5194 C   0  0  0  0  0  0  0  0  0  0  0  0
  155.9732  142.7389  181.2393 F   0  0  0  0  0  0  0  0  0  0  0  0
  154.8522  143.3089  183.1604 F   0  0  0  0  0  0  0  0  0  0  0  0
  156.6185  144.4860  182.5378 F   0  0  0  0  0  0  0  0  0  0  0  0
  155.0725  136.1432  191.5795 C   0  0  0  0  0  0  0  0  0  0  0  0
  153.8714  135.4897  190.9971 C   0  0  0  0  0  0  0  0  0  0  0  0
  153.4958  134.2216  191.5172 N   0  0  0  0  0  0  0  0  0  0  0  0
  154.3139  133.1672  191.8246 C   0  0  0  0  0  0  0  0  0  0  0  0
  153.6222  132.1335  192.2914 N   0  0  0  0  0  0  0  0  0  0  0  0
  152.3239  132.4660  192.3099 C   0  0  0  0  0  0  0  0  0  0  0  0
  151.2425  131.7586  192.6972 N   0  0  0  0  0  0  0  0  0  0  0  0
  151.4305  130.4061  193.1868 C   0  0  0  0  0  0  0  0  0  0  0  0
  150.0367  132.3458  192.6097 C   0  0  0  0  0  0  0  0  0  0  0  0
  149.0137  131.7090  192.9639 O   0  0  0  0  0  0  0  0  0  0  0  0
  149.8903  133.5965  192.1537 N   0  0  0  0  0  0  0  0  0  0  0  0
  150.9909  134.3107  191.7618 C   0  0  0  0  0  0  0  0  0  0  0  0
  150.8425  135.4741  191.3391 O   0  0  0  0  0  0  0  0  0  0  0  0
  152.2540  133.7751  191.8234 C   0  0  0  0  0  0  0  0  0  0  0  0
  148.5835  134.2303  192.0600 C   0  0  0  0  0  0  0  0  0  0  0  0
  148.0636  133.9932  190.7165 C   0  0  0  0  0  0  0  0  0  0  0  0
  147.6594  133.7934  189.6414 N   0  0  0  0  0  0  0  0  0  0  0  0
 26 27  1  0  0  0
 27  1  1  0  0  0
  1  2  2  0  0  0
  1  3  1  0  0  0
  3  5  1  0  0  0
  5  6  2  0  0  0
  6  7  1  0  0  0
  7  8  2  0  0  0
  8  9  1  0  0  0
  9 10  2  0  0  0
  9 11  1  0  0  0
 11 12  2  0  0  0
 12 13  1  0  0  0
 13 14  2  0  0  0
 14 15  1  0  0  0
 15 16  2  0  0  0
 14 17  1  0  0  0
 17 18  1  0  0  0
 18 19  1  0  0  0
 19 20  1  0  0  0
 20 21  1  0  0  0
 21 22  1  0  0  0
 22 23  1  0  0  0
 22 24  1  0  0  0
 22 25  1  0  0  0
 27 28  1  0  0  0
 28 29  1  0  0  0
 29 30  2  0  0  0
 30 31  1  0  0  0
 31 32  1  0  0  0
 32 33  1  0  0  0
 32 34  1  0  0  0
 34 35  2  0  0  0
 34 36  1  0  0  0
 36 40  1  0  0  0
 40 41  1  0  0  0
 41 42  3  0  0  0
 36 37  1  0  0  0
 37 38  2  0  0  0
 37 39  1  0  0  0
 10  5  1  0  0  0
 16 11  1  0  0  0
 21 17  1  0  0  0
 39 28  1  0  0  0
 39 31  2  0  0  0
  3  4  1  0  0  0
M  END
> <minimizedAffinity>
-5.96207

> <CNNscore>
0.2653662562

> <CNNaffinity>
6.5585184097

> <CNN_VS>
1.7404094934

> <CNNaffinity_variance>
0.4331260324

$$$$
[H]c1nc([H])c(N([H])C(=O)[C@@]([H])(n2c([H])nc3c2c(=O)n(C([H])([H])C#N)c(=O)n3C([H])([H])[H])C([H])([H])[H])nc1-c1c([H])nc(N2C([H])([H])C([H])([H])C([H])([H])[C@@]2([H])C(F)(F)F)nc1[H]


 42 46  0  0  0  0  0  0  0  0999 V2000
  154.6755  137.6985  188.7222 C   0  0  0  0  0  0  0  0  0  0  0  0
  155.7447  137.8530  188.1488 O   0  0  0  0  0  0  0  0  0  0  0  0
  153.4305  137.6158  188.1267 N   0  0  0  0  0  0  0  0  0  0  0  0
  152.5416  137.4766  188.7423 H   0  0  0  0  0  0  0  0  0  0  0  0
  153.1446  137.6916  186.7550 C   0  0  0  0  0  0  0  0  0  0  0  0
  152.0898  137.0664  186.1732 C   0  0  0  0  0  0  0  0  0  0  0  0
  151.8685  137.1791  184.8355 N   0  0  0  0  0  0  0  0  0  0  0  0
  152.7039  137.9153  184.0947 C   0  0  0  0  0  0  0  0  0  0  0  0
  153.7871  138.5708  184.6243 C   0  0  0  0  0  0  0  0  0  0  0  0
  153.9769  138.4412  185.9362 N   0  0  0  0  0  0  0  0  0  0  0  0
  154.7269  139.3847  183.8577 C   0  0  0  0  0  0  0  0  0  0  0  0
  156.0832  139.3968  184.0912 C   0  0  0  0  0  0  0  0  0  0  0  0
  156.9006  140.1699  183.3498 N   0  0  0  0  0  0  0  0  0  0  0  0
  156.4632  140.9699  182.3482 C   0  0  0  0  0  0  0  0  0  0  0  0
  155.1388  140.9567  182.1216 N   0  0  0  0  0  0  0  0  0  0  0  0
  154.2815  140.2069  182.8290 C   0  0  0  0  0  0  0  0  0  0  0  0
  157.3583  141.7741  181.5906 N   0  0  0  0  0  0  0  0  0  0  0  0
  157.7104  141.6627  180.1981 C   0  0  0  0  0  0  0  0  0  0  0  0
  158.8841  142.5277  179.9580 C   0  0  0  0  0  0  0  0  0  0  0  0
  159.3428  142.9931  181.2911 C   0  0  0  0  0  0  0  0  0  0  0  0
  158.0963  142.8926  182.1437 C   0  0  0  0  0  0  0  0  0  0  0  0
  157.3082  144.1773  182.1349 C   0  0  0  0  0  0  0  0  0  0  0  0
  158.1776  145.2232  182.0390 F   0  0  0  0  0  0  0  0  0  0  0  0
  156.3359  144.1708  181.1602 F   0  0  0  0  0  0  0  0  0  0  0  0
  156.6188  144.2244  183.3533 F   0  0  0  0  0  0  0  0  0  0  0  0
  155.5984  138.5877  190.8849 C   0  0  0  0  0  0  0  0  0  0  0  0
  154.7209  137.5836  190.2284 C   0  0  0  0  0  0  0  0  0  0  0  0
  154.7827  136.2458  190.7036 N   0  0  0  0  0  0  0  0  0  0  0  0
  155.8993  135.4763  190.8955 C   0  0  0  0  0  0  0  0  0  0  0  0
  155.5864  134.2688  191.3525 N   0  0  0  0  0  0  0  0  0  0  0  0
  154.2541  134.1958  191.4795 C   0  0  0  0  0  0  0  0  0  0  0  0
  153.4672  133.1848  191.9021 N   0  0  0  0  0  0  0  0  0  0  0  0
  154.0878  131.9365  192.3031 C   0  0  0  0  0  0  0  0  0  0  0  0
  152.1385  133.3857  191.9309 C   0  0  0  0  0  0  0  0  0  0  0  0
  151.3835  132.4607  192.3204 O   0  0  0  0  0  0  0  0  0  0  0  0
  151.5905  134.5485  191.5550 N   0  0  0  0  0  0  0  0  0  0  0  0
  152.3933  135.5718  191.1267 C   0  0  0  0  0  0  0  0  0  0  0  0
  151.8721  136.6496  190.7793 O   0  0  0  0  0  0  0  0  0  0  0  0
  153.7591  135.4380  191.0710 C   0  0  0  0  0  0  0  0  0  0  0  0
  150.1515  134.7637  191.5872 C   0  0  0  0  0  0  0  0  0  0  0  0
  149.7991  135.2528  192.9169 C   0  0  0  0  0  0  0  0  0  0  0  0
  149.5213  135.6295  193.9845 N   0  0  0  0  0  0  0  0  0  0  0  0
 26 27  1  0  0  0
 27  1  1  0  0  0
  1  2  2  0  0  0
  1  3  1  0  0  0
  3  5  1  0  0  0
  5  6  2  0  0  0
  6  7  1  0  0  0
  7  8  2  0  0  0
  8  9  1  0  0  0
  9 10  2  0  0  0
  9 11  1  0  0  0
 11 12  2  0  0  0
 12 13  1  0  0  0
 13 14  2  0  0  0
 14 15  1  0  0  0
 15 16  2  0  0  0
 14 17  1  0  0  0
 17 18  1  0  0  0
 18 19  1  0  0  0
 19 20  1  0  0  0
 20 21  1  0  0  0
 21 22  1  0  0  0
 22 23  1  0  0  0
 22 24  1  0  0  0
 22 25  1  0  0  0
 27 28  1  0  0  0
 28 29  1  0  0  0
 29 30  2  0  0  0
 30 31  1  0  0  0
 31 32  1  0  0  0
 32 33  1  0  0  0
 32 34  1  0  0  0
 34 35  2  0  0  0
 34 36  1  0  0  0
 36 40  1  0  0  0
 40 41  1  0  0  0
 41 42  3  0  0  0
 36 37  1  0  0  0
 37 38  2  0  0  0
 37 39  1  0  0  0
 10  5  1  0  0  0
 16 11  1  0  0  0
 21 17  1  0  0  0
 39 28  1  0  0  0
 39 31  2  0  0  0
  3  4  1  0  0  0
M  END
> <minimizedAffinity>
-7.82944

> <CNNscore>
0.2651068568

> <CNNaffinity>
6.6780343056

> <CNN_VS>
1.7703926563

> <CNNaffinity_variance>
0.0413821116

$$$$
[H]c1nc([H])c(N([H])C(=O)[C@@]([H])(n2c([H])nc3c2c(=O)n(C([H])([H])C#N)c(=O)n3C([H])([H])[H])C([H])([H])[H])nc1-c1c([H])nc(N2C([H])([H])C([H])([H])C([H])([H])[C@@]2([H])C(F)(F)F)nc1[H]


 42 46  0  0  0  0  0  0  0  0999 V2000
  155.4892  136.7905  189.6507 C   0  0  0  0  0  0  0  0  0  0  0  0
  156.4690  136.2053  189.2110 O   0  0  0  0  0  0  0  0  0  0  0  0
  154.4395  137.3020  188.9104 N   0  0  0  0  0  0  0  0  0  0  0  0
  153.6148  137.8071  189.4136 H   0  0  0  0  0  0  0  0  0  0  0  0
  154.2875  137.2531  187.5163 C   0  0  0  0  0  0  0  0  0  0  0  0
  153.5241  136.3309  186.8771 C   0  0  0  0  0  0  0  0  0  0  0  0
  153.4194  136.3371  185.5206 N   0  0  0  0  0  0  0  0  0  0  0  0
  154.0789  137.2650  184.8185 C   0  0  0  0  0  0  0  0  0  0  0  0
  154.8659  138.2231  185.4068 C   0  0  0  0  0  0  0  0  0  0  0  0
  154.9482  138.1908  186.7357 N   0  0  0  0  0  0  0  0  0  0  0  0
  155.6049  139.2552  184.6842 C   0  0  0  0  0  0  0  0  0  0  0  0
  155.0849  139.9515  183.6169 C   0  0  0  0  0  0  0  0  0  0  0  0
  155.8164  140.8932  182.9896 N   0  0  0  0  0  0  0  0  0  0  0  0
  157.0812  141.2169  183.3505 C   0  0  0  0  0  0  0  0  0  0  0  0
  157.5870  140.5361  184.3927 N   0  0  0  0  0  0  0  0  0  0  0  0
  156.9031  139.5900  185.0519 C   0  0  0  0  0  0  0  0  0  0  0  0
  157.8218  142.2151  182.6600 N   0  0  0  0  0  0  0  0  0  0  0  0
  158.9139  143.0214  183.1426 C   0  0  0  0  0  0  0  0  0  0  0  0
  159.1469  144.1010  182.1608 C   0  0  0  0  0  0  0  0  0  0  0  0
  158.0277  144.0329  181.1879 C   0  0  0  0  0  0  0  0  0  0  0  0
  157.5691  142.5937  181.2836 C   0  0  0  0  0  0  0  0  0  0  0  0
  158.2841  141.7122  180.2920 C   0  0  0  0  0  0  0  0  0  0  0  0
  158.6829  140.5735  180.9270 F   0  0  0  0  0  0  0  0  0  0  0  0
  157.5196  141.4850  179.1698 F   0  0  0  0  0  0  0  0  0  0  0  0
  159.3957  142.4400  179.8486 F   0  0  0  0  0  0  0  0  0  0  0  0
  156.5765  136.3935  191.8822 C   0  0  0  0  0  0  0  0  0  0  0  0
  155.4181  136.9686  191.1497 C   0  0  0  0  0  0  0  0  0  0  0  0
  154.1235  136.7551  191.6955 N   0  0  0  0  0  0  0  0  0  0  0  0
  153.2591  137.6943  192.1918 C   0  0  0  0  0  0  0  0  0  0  0  0
  152.1312  137.1394  192.6222 N   0  0  0  0  0  0  0  0  0  0  0  0
  152.2085  135.8158  192.4264 C   0  0  0  0  0  0  0  0  0  0  0  0
  151.3223  134.8356  192.6978 N   0  0  0  0  0  0  0  0  0  0  0  0
  150.0519  135.1893  193.3021 C   0  0  0  0  0  0  0  0  0  0  0  0
  151.6625  133.5716  192.3927 C   0  0  0  0  0  0  0  0  0  0  0  0
  150.8554  132.6403  192.6351 O   0  0  0  0  0  0  0  0  0  0  0  0
  152.8427  133.2716  191.8350 N   0  0  0  0  0  0  0  0  0  0  0  0
  153.7390  134.2699  191.5613 C   0  0  0  0  0  0  0  0  0  0  0  0
  154.8343  133.9788  191.0421 O   0  0  0  0  0  0  0  0  0  0  0  0
  153.4593  135.5841  191.8458 C   0  0  0  0  0  0  0  0  0  0  0  0
  153.2087  131.9021  191.5054 C   0  0  0  0  0  0  0  0  0  0  0  0
  153.8331  131.3072  192.6835 C   0  0  0  0  0  0  0  0  0  0  0  0
  154.3213  130.8392  193.6330 N   0  0  0  0  0  0  0  0  0  0  0  0
 26 27  1  0  0  0
 27  1  1  0  0  0
  1  2  2  0  0  0
  1  3  1  0  0  0
  3  5  1  0  0  0
  5  6  2  0  0  0
  6  7  1  0  0  0
  7  8  2  0  0  0
  8  9  1  0  0  0
  9 10  2  0  0  0
  9 11  1  0  0  0
 11 12  2  0  0  0
 12 13  1  0  0  0
 13 14  2  0  0  0
 14 15  1  0  0  0
 15 16  2  0  0  0
 14 17  1  0  0  0
 17 18  1  0  0  0
 18 19  1  0  0  0
 19 20  1  0  0  0
 20 21  1  0  0  0
 21 22  1  0  0  0
 22 23  1  0  0  0
 22 24  1  0  0  0
 22 25  1  0  0  0
 27 28  1  0  0  0
 28 29  1  0  0  0
 29 30  2  0  0  0
 30 31  1  0  0  0
 31 32  1  0  0  0
 32 33  1  0  0  0
 32 34  1  0  0  0
 34 35  2  0  0  0
 34 36  1  0  0  0
 36 40  1  0  0  0
 40 41  1  0  0  0
 41 42  3  0  0  0
 36 37  1  0  0  0
 37 38  2  0  0  0
 37 39  1  0  0  0
 10  5  1  0  0  0
 16 11  1  0  0  0
 21 17  1  0  0  0
 39 28  1  0  0  0
 39 31  2  0  0  0
  3  4  1  0  0  0
M  END
> <minimizedAffinity>
-7.71709

> <CNNscore>
0.2397695184

> <CNNaffinity>
6.5975160599

> <CNN_VS>
1.5818831921

> <CNNaffinity_variance>
0.0487412065

$$$$
[H]c1nc([H])c(N([H])C(=O)[C@@]([H])(n2c([H])nc3c2c(=O)n(C([H])([H])C#N)c(=O)n3C([H])([H])[H])C([H])([H])[H])nc1-c1c([H])nc(N2C([H])([H])C([H])([H])C([H])([H])[C@@]2([H])C(F)(F)F)nc1[H]


 42 46  0  0  0  0  0  0  0  0999 V2000
  152.7655  136.3183  191.4234 C   0  0  0  0  0  0  0  0  0  0  0  0
  153.6932  135.7934  192.0230 O   0  0  0  0  0  0  0  0  0  0  0  0
  152.6759  136.5088  190.0569 N   0  0  0  0  0  0  0  0  0  0  0  0
  151.7957  136.9915  189.6319 H   0  0  0  0  0  0  0  0  0  0  0  0
  153.6238  136.1409  189.0898 C   0  0  0  0  0  0  0  0  0  0  0  0
  154.1593  134.8972  188.9998 C   0  0  0  0  0  0  0  0  0  0  0  0
  155.0765  134.6049  188.0383 N   0  0  0  0  0  0  0  0  0  0  0  0
  155.4478  135.5590  187.1777 C   0  0  0  0  0  0  0  0  0  0  0  0
  154.9427  136.8344  187.2176 C   0  0  0  0  0  0  0  0  0  0  0  0
  154.0472  137.0894  188.1698 N   0  0  0  0  0  0  0  0  0  0  0  0
  155.3167  137.9092  186.3019 C   0  0  0  0  0  0  0  0  0  0  0  0
  156.5722  138.4722  186.2683 C   0  0  0  0  0  0  0  0  0  0  0  0
  156.8574  139.4624  185.4002 N   0  0  0  0  0  0  0  0  0  0  0  0
  155.9577  139.9642  184.5208 C   0  0  0  0  0  0  0  0  0  0  0  0
  154.7326  139.4132  184.5551 N   0  0  0  0  0  0  0  0  0  0  0  0
  154.3959  138.4265  185.3981 C   0  0  0  0  0  0  0  0  0  0  0  0
  156.2971  141.0128  183.6225 N   0  0  0  0  0  0  0  0  0  0  0  0
  155.7883  142.3598  183.5772 C   0  0  0  0  0  0  0  0  0  0  0  0
  156.2228  142.9644  182.3008 C   0  0  0  0  0  0  0  0  0  0  0  0
  156.8273  141.8693  181.5013 C   0  0  0  0  0  0  0  0  0  0  0  0
  157.2638  140.8705  182.5515 C   0  0  0  0  0  0  0  0  0  0  0  0
  158.6803  141.1177  183.0031 C   0  0  0  0  0  0  0  0  0  0  0  0
  158.6531  141.8950  184.1230 F   0  0  0  0  0  0  0  0  0  0  0  0
  159.3769  139.9405  183.1596 F   0  0  0  0  0  0  0  0  0  0  0  0
  159.3155  141.7938  181.9537 F   0  0  0  0  0  0  0  0  0  0  0  0
  151.9821  137.7740  193.3173 C   0  0  0  0  0  0  0  0  0  0  0  0
  151.6025  136.8029  192.2579 C   0  0  0  0  0  0  0  0  0  0  0  0
  150.6750  135.7830  192.6028 N   0  0  0  0  0  0  0  0  0  0  0  0
  150.5040  135.1848  193.8228 C   0  0  0  0  0  0  0  0  0  0  0  0
  149.5429  134.2682  193.7858 N   0  0  0  0  0  0  0  0  0  0  0  0
  149.0442  134.2272  192.5424 C   0  0  0  0  0  0  0  0  0  0  0  0
  148.0632  133.4658  192.0153 N   0  0  0  0  0  0  0  0  0  0  0  0
  147.3865  132.5080  192.8691 C   0  0  0  0  0  0  0  0  0  0  0  0
  147.7596  133.6334  190.7168 C   0  0  0  0  0  0  0  0  0  0  0  0
  146.8501  132.9371  190.2015 O   0  0  0  0  0  0  0  0  0  0  0  0
  148.4001  134.5252  189.9498 N   0  0  0  0  0  0  0  0  0  0  0  0
  149.3952  135.2958  190.4893 C   0  0  0  0  0  0  0  0  0  0  0  0
  149.9844  136.1226  189.7659 O   0  0  0  0  0  0  0  0  0  0  0  0
  149.7589  135.1789  191.8085 C   0  0  0  0  0  0  0  0  0  0  0  0
  148.0694  134.7050  188.5440 C   0  0  0  0  0  0  0  0  0  0  0  0
  147.3631  135.9753  188.4067 C   0  0  0  0  0  0  0  0  0  0  0  0
  146.8125  136.9970  188.2966 N   0  0  0  0  0  0  0  0  0  0  0  0
 26 27  1  0  0  0
 27  1  1  0  0  0
  1  2  2  0  0  0
  1  3  1  0  0  0
  3  5  1  0  0  0
  5  6  2  0  0  0
  6  7  1  0  0  0
  7  8  2  0  0  0
  8  9  1  0  0  0
  9 10  2  0  0  0
  9 11  1  0  0  0
 11 12  2  0  0  0
 12 13  1  0  0  0
 13 14  2  0  0  0
 14 15  1  0  0  0
 15 16  2  0  0  0
 14 17  1  0  0  0
 17 18  1  0  0  0
 18 19  1  0  0  0
 19 20  1  0  0  0
 20 21  1  0  0  0
 21 22  1  0  0  0
 22 23  1  0  0  0
 22 24  1  0  0  0
 22 25  1  0  0  0
 27 28  1  0  0  0
 28 29  1  0  0  0
 29 30  2  0  0  0
 30 31  1  0  0  0
 31 32  1  0  0  0
 32 33  1  0  0  0
 32 34  1  0  0  0
 34 35  2  0  0  0
 34 36  1  0  0  0
 36 40  1  0  0  0
 40 41  1  0  0  0
 41 42  3  0  0  0
 36 37  1  0  0  0
 37 38  2  0  0  0
 37 39  1  0  0  0
 10  5  1  0  0  0
 16 11  1  0  0  0
 21 17  1  0  0  0
 39 28  1  0  0  0
 39 31  2  0  0  0
  3  4  1  0  0  0
M  END
> <minimizedAffinity>
-7.18771

> <CNNscore>
0.2372715324

> <CNNaffinity>
6.4277291298

> <CNN_VS>
1.5251171589

> <CNNaffinity_variance>
0.0463929102

$$$$
[H]c1nc([H])c(N([H])C(=O)[C@@]([H])(n2c([H])nc3c2c(=O)n(C([H])([H])C#N)c(=O)n3C([H])([H])[H])C([H])([H])[H])nc1-c1c([H])nc(N2C([H])([H])C([H])([H])C([H])([H])[C@@]2([H])C(F)(F)F)nc1[H]


 42 46  0  0  0  0  0  0  0  0999 V2000
  154.3082  134.1763  183.1681 C   0  0  0  0  0  0  0  0  0  0  0  0
  154.9793  134.9327  182.4801 O   0  0  0  0  0  0  0  0  0  0  0  0
  153.5302  134.5299  184.2549 N   0  0  0  0  0  0  0  0  0  0  0  0
  152.9718  133.7653  184.7954 H   0  0  0  0  0  0  0  0  0  0  0  0
  153.3547  135.8178  184.7837 C   0  0  0  0  0  0  0  0  0  0  0  0
  152.4274  136.1211  185.7271 C   0  0  0  0  0  0  0  0  0  0  0  0
  152.3072  137.3919  186.1981 N   0  0  0  0  0  0  0  0  0  0  0  0
  153.1152  138.3448  185.7208 C   0  0  0  0  0  0  0  0  0  0  0  0
  154.0715  138.1006  184.7673 C   0  0  0  0  0  0  0  0  0  0  0  0
  154.1646  136.8474  184.3263 N   0  0  0  0  0  0  0  0  0  0  0  0
  154.9755  139.1063  184.2151 C   0  0  0  0  0  0  0  0  0  0  0  0
  154.7116  139.8096  183.0618 C   0  0  0  0  0  0  0  0  0  0  0  0
  155.5856  140.7258  182.6014 N   0  0  0  0  0  0  0  0  0  0  0  0
  156.7553  141.0161  183.2196 C   0  0  0  0  0  0  0  0  0  0  0  0
  157.0110  140.3286  184.3453 N   0  0  0  0  0  0  0  0  0  0  0  0
  156.1767  139.4068  184.8470 C   0  0  0  0  0  0  0  0  0  0  0  0
  157.6531  141.9882  182.6992 N   0  0  0  0  0  0  0  0  0  0  0  0
  158.7566  142.6390  183.3581 C   0  0  0  0  0  0  0  0  0  0  0  0
  159.1902  143.7664  182.5068 C   0  0  0  0  0  0  0  0  0  0  0  0
  158.1793  143.8904  181.4267 C   0  0  0  0  0  0  0  0  0  0  0  0
  157.5837  142.5012  181.3451 C   0  0  0  0  0  0  0  0  0  0  0  0
  158.3167  141.6365  180.3518 C   0  0  0  0  0  0  0  0  0  0  0  0
  159.4122  142.3148  179.9060 F   0  0  0  0  0  0  0  0  0  0  0  0
  158.6049  140.3954  180.8734 F   0  0  0  0  0  0  0  0  0  0  0  0
  157.4234  141.4035  179.2984 F   0  0  0  0  0  0  0  0  0  0  0  0
  155.3938  131.9292  183.4701 C   0  0  0  0  0  0  0  0  0  0  0  0
  154.3294  132.7132  182.7907 C   0  0  0  0  0  0  0  0  0  0  0  0
  154.1163  132.4708  181.4067 N   0  0  0  0  0  0  0  0  0  0  0  0
  155.0374  132.0705  180.4756 C   0  0  0  0  0  0  0  0  0  0  0  0
  154.4891  131.9405  179.2724 N   0  0  0  0  0  0  0  0  0  0  0  0
  153.1881  132.2494  179.3639 C   0  0  0  0  0  0  0  0  0  0  0  0
  152.2223  132.2669  178.4223 N   0  0  0  0  0  0  0  0  0  0  0  0
  152.5669  131.9050  177.0605 C   0  0  0  0  0  0  0  0  0  0  0  0
  150.9805  132.6212  178.7950 C   0  0  0  0  0  0  0  0  0  0  0  0
  150.0629  132.6455  177.9378 O   0  0  0  0  0  0  0  0  0  0  0  0
  150.6885  132.9512  180.0598 N   0  0  0  0  0  0  0  0  0  0  0  0
  151.6722  132.9320  181.0121 C   0  0  0  0  0  0  0  0  0  0  0  0
  151.3888  133.2410  182.1860 O   0  0  0  0  0  0  0  0  0  0  0  0
  152.9635  132.5802  180.7038 C   0  0  0  0  0  0  0  0  0  0  0  0
  149.3430  133.3344  180.4610 C   0  0  0  0  0  0  0  0  0  0  0  0
  149.1942  134.7676  180.2261 C   0  0  0  0  0  0  0  0  0  0  0  0
  149.0636  135.9123  180.0484 N   0  0  0  0  0  0  0  0  0  0  0  0
 26 27  1  0  0  0
 27  1  1  0  0  0
  1  2  2  0  0  0
  1  3  1  0  0  0
  3  5  1  0  0  0
  5  6  2  0  0  0
  6  7  1  0  0  0
  7  8  2  0  0  0
  8  9  1  0  0  0
  9 10  2  0  0  0
  9 11  1  0  0  0
 11 12  2  0  0  0
 12 13  1  0  0  0
 13 14  2  0  0  0
 14 15  1  0  0  0
 15 16  2  0  0  0
 14 17  1  0  0  0
 17 18  1  0  0  0
 18 19  1  0  0  0
 19 20  1  0  0  0
 20 21  1  0  0  0
 21 22  1  0  0  0
 22 23  1  0  0  0
 22 24  1  0  0  0
 22 25  1  0  0  0
 27 28  1  0  0  0
 28 29  1  0  0  0
 29 30  2  0  0  0
 30 31  1  0  0  0
 31 32  1  0  0  0
 32 33  1  0  0  0
 32 34  1  0  0  0
 34 35  2  0  0  0
 34 36  1  0  0  0
 36 40  1  0  0  0
 40 41  1  0  0  0
 41 42  3  0  0  0
 36 37  1  0  0  0
 37 38  2  0  0  0
 37 39  1  0  0  0
 10  5  1  0  0  0
 16 11  1  0  0  0
 21 17  1  0  0  0
 39 28  1  0  0  0
 39 31  2  0  0  0
  3  4  1  0  0  0
M  END
> <minimizedAffinity>
-6.42304

> <CNNscore>
0.1864461899

> <CNNaffinity>
6.5161314011

> <CNN_VS>
1.2149078846

> <CNNaffinity_variance>
0.0424463339

$$$$
[H]c1nc([H])c(N([H])C(=O)[C@@]([H])(n2c([H])nc3c2c(=O)n(C([H])([H])C#N)c(=O)n3C([H])([H])[H])C([H])([H])[H])nc1-c1c([H])nc(N2C([H])([H])C([H])([H])C([H])([H])[C@@]2([H])C(F)(F)F)nc1[H]


 42 46  0  0  0  0  0  0  0  0999 V2000
  155.9212  136.5504  188.1163 C   0  0  0  0  0  0  0  0  0  0  0  0
  156.3708  135.7199  187.3392 O   0  0  0  0  0  0  0  0  0  0  0  0
  155.0317  137.5634  187.8092 N   0  0  0  0  0  0  0  0  0  0  0  0
  154.6981  138.2487  188.5885 H   0  0  0  0  0  0  0  0  0  0  0  0
  154.4695  137.8407  186.5537 C   0  0  0  0  0  0  0  0  0  0  0  0
  153.2568  137.3787  186.1566 C   0  0  0  0  0  0  0  0  0  0  0  0
  152.7684  137.6831  184.9237 N   0  0  0  0  0  0  0  0  0  0  0  0
  153.4977  138.4458  184.1020 C   0  0  0  0  0  0  0  0  0  0  0  0
  154.7299  138.9426  184.4457 C   0  0  0  0  0  0  0  0  0  0  0  0
  155.1805  138.6272  185.6587 N   0  0  0  0  0  0  0  0  0  0  0  0
  155.5631  139.7777  183.5844 C   0  0  0  0  0  0  0  0  0  0  0  0
  156.9370  139.8088  183.6600 C   0  0  0  0  0  0  0  0  0  0  0  0
  157.6520  140.6010  182.8374 N   0  0  0  0  0  0  0  0  0  0  0  0
  157.0903  141.4028  181.9014 C   0  0  0  0  0  0  0  0  0  0  0  0
  155.7490  141.3709  181.8290 N   0  0  0  0  0  0  0  0  0  0  0  0
  154.9901  140.6018  182.6226 C   0  0  0  0  0  0  0  0  0  0  0  0
  157.8803  142.2274  181.0541 N   0  0  0  0  0  0  0  0  0  0  0  0
  157.7433  142.4568  179.6384 C   0  0  0  0  0  0  0  0  0  0  0  0
  158.9642  143.1464  179.1720 C   0  0  0  0  0  0  0  0  0  0  0  0
  159.9157  143.1330  180.3116 C   0  0  0  0  0  0  0  0  0  0  0  0
  159.0121  143.0049  181.5191 C   0  0  0  0  0  0  0  0  0  0  0  0
  158.6138  144.3523  182.0645 C   0  0  0  0  0  0  0  0  0  0  0  0
  159.1835  145.3219  181.2936 F   0  0  0  0  0  0  0  0  0  0  0  0
  157.2473  144.4684  182.1850 F   0  0  0  0  0  0  0  0  0  0  0  0
  159.1129  144.4106  183.3720 F   0  0  0  0  0  0  0  0  0  0  0  0
  157.1129  135.2046  189.8736 C   0  0  0  0  0  0  0  0  0  0  0  0
  156.3806  136.4577  189.5529 C   0  0  0  0  0  0  0  0  0  0  0  0
  155.4231  136.9191  190.4961 N   0  0  0  0  0  0  0  0  0  0  0  0
  155.4247  138.1069  191.1778 C   0  0  0  0  0  0  0  0  0  0  0  0
  154.3718  138.2090  191.9816 N   0  0  0  0  0  0  0  0  0  0  0  0
  153.6369  137.0947  191.8608 C   0  0  0  0  0  0  0  0  0  0  0  0
  152.4868  136.7324  192.4658 N   0  0  0  0  0  0  0  0  0  0  0  0
  151.8810  137.6433  193.4185 C   0  0  0  0  0  0  0  0  0  0  0  0
  151.9560  135.5377  192.1539 C   0  0  0  0  0  0  0  0  0  0  0  0
  150.8857  135.1764  192.7030 O   0  0  0  0  0  0  0  0  0  0  0  0
  152.5358  134.7148  191.2705 N   0  0  0  0  0  0  0  0  0  0  0  0
  153.7030  135.0868  190.6589 C   0  0  0  0  0  0  0  0  0  0  0  0
  154.2337  134.3128  189.8384 O   0  0  0  0  0  0  0  0  0  0  0  0
  154.3026  136.2927  190.9287 C   0  0  0  0  0  0  0  0  0  0  0  0
  151.9590  133.4216  190.9343 C   0  0  0  0  0  0  0  0  0  0  0  0
  152.4693  132.4398  191.8868 C   0  0  0  0  0  0  0  0  0  0  0  0
  152.8731  131.6653  192.6588 N   0  0  0  0  0  0  0  0  0  0  0  0
 26 27  1  0  0  0
 27  1  1  0  0  0
  1  2  2  0  0  0
  1  3  1  0  0  0
  3  5  1  0  0  0
  5  6  2  0  0  0
  6  7  1  0  0  0
  7  8  2  0  0  0
  8  9  1  0  0  0
  9 10  2  0  0  0
  9 11  1  0  0  0
 11 12  2  0  0  0
 12 13  1  0  0  0
 13 14  2  0  0  0
 14 15  1  0  0  0
 15 16  2  0  0  0
 14 17  1  0  0  0
 17 18  1  0  0  0
 18 19  1  0  0  0
 19 20  1  0  0  0
 20 21  1  0  0  0
 21 22  1  0  0  0
 22 23  1  0  0  0
 22 24  1  0  0  0
 22 25  1  0  0  0
 27 28  1  0  0  0
 28 29  1  0  0  0
 29 30  2  0  0  0
 30 31  1  0  0  0
 31 32  1  0  0  0
 32 33  1  0  0  0
 32 34  1  0  0  0
 34 35  2  0  0  0
 34 36  1  0  0  0
 36 40  1  0  0  0
 40 41  1  0  0  0
 41 42  3  0  0  0
 36 37  1  0  0  0
 37 38  2  0  0  0
 37 39  1  0  0  0
 10  5  1  0  0  0
 16 11  1  0  0  0
 21 17  1  0  0  0
 39 28  1  0  0  0
 39 31  2  0  0  0
  3  4  1  0  0  0
M  END
> <minimizedAffinity>
-7.51351

> <CNNscore>
0.1850065440

> <CNNaffinity>
6.5647554398

> <CNN_VS>
1.2145227194

> <CNNaffinity_variance>
0.0754153281

$$$$
[H]c1c([H])c([H])c2c(c1[H])C(=O)C1([H])C2=NC(=S)N([H])[C@]1([H])c1c([H])c([H])c([H])c(OC([H])([H])[H])c1[H]


 24 27  0  0  0  0  0  0  0  0999 V2000
  153.1795  139.7667  181.9898 C   0  0  0  0  0  0  0  0  0  0  0  0
  153.3537  141.2175  182.1754 N   0  0  0  0  0  0  0  0  0  0  0  0
  154.4993  141.6293  182.9537 C   0  0  0  0  0  0  0  0  0  0  0  0
  155.1705  143.0584  182.6615 S   0  0  0  0  0  0  0  0  0  0  0  0
  154.9069  140.6892  183.9203 N   0  0  0  0  0  0  0  0  0  0  0  0
  154.3383  139.5673  184.1220 C   0  0  0  0  0  0  0  0  0  0  0  0
  153.1589  139.1455  183.3338 C   0  0  0  0  0  0  0  0  0  0  0  0
  153.2824  137.6756  183.3668 C   0  0  0  0  0  0  0  0  0  0  0  0
  152.8609  136.8854  182.5179 O   0  0  0  0  0  0  0  0  0  0  0  0
  153.9940  137.3306  184.5879 C   0  0  0  0  0  0  0  0  0  0  0  0
  154.1321  136.1637  185.3082 C   0  0  0  0  0  0  0  0  0  0  0  0
  154.8829  136.1044  186.4637 C   0  0  0  0  0  0  0  0  0  0  0  0
  155.5316  137.2238  186.9480 C   0  0  0  0  0  0  0  0  0  0  0  0
  155.3972  138.3945  186.2314 C   0  0  0  0  0  0  0  0  0  0  0  0
  154.6486  138.4640  185.0748 C   0  0  0  0  0  0  0  0  0  0  0  0
  152.6793  141.8538  181.7565 H   0  0  0  0  0  0  0  0  0  0  0  0
  149.5967  138.9404  181.1058 C   0  0  0  0  0  0  0  0  0  0  0  0
  149.5602  139.1369  179.7411 C   0  0  0  0  0  0  0  0  0  0  0  0
  150.7241  139.5424  179.1224 C   0  0  0  0  0  0  0  0  0  0  0  0
  151.8824  139.7431  179.8495 C   0  0  0  0  0  0  0  0  0  0  0  0
  151.9340  139.5506  181.2153 C   0  0  0  0  0  0  0  0  0  0  0  0
  150.7583  139.1436  181.8223 C   0  0  0  0  0  0  0  0  0  0  0  0
  147.9367  139.3458  182.8280 C   0  0  0  0  0  0  0  0  0  0  0  0
  148.4653  138.5343  181.7860 O   0  0  0  0  0  0  0  0  0  0  0  0
 23 24  1  0  0  0
 24 17  1  0  0  0
 17 18  2  0  0  0
 18 19  1  0  0  0
 19 20  2  0  0  0
 20 21  1  0  0  0
 21 22  2  0  0  0
 21  1  1  0  0  0
  1  2  1  0  0  0
  2  3  1  0  0  0
  3  4  2  0  0  0
  3  5  1  0  0  0
  5  6  2  0  0  0
  6  7  1  0  0  0
  7  8  1  0  0  0
  8  9  2  0  0  0
  8 10  1  0  0  0
 10 11  2  0  0  0
 11 12  1  0  0  0
 12 13  2  0  0  0
 13 14  1  0  0  0
 14 15  2  0  0  0
 22 17  1  0  0  0
  7  1  1  0  0  0
 15 10  1  0  0  0
 15  6  1  0  0  0
  2 16  1  0  0  0
M  END
> <minimizedAffinity>
-7.31919

> <CNNscore>
0.6741957068

> <CNNaffinity>
5.3332424164

> <CNN_VS>
3.5956492424

> <CNNaffinity_variance>
0.2431678772

$$$$
[H]c1c([H])c([H])c2c(c1[H])C(=O)C1([H])C2=NC(=S)N([H])[C@]1([H])c1c([H])c([H])c([H])c(OC([H])([H])[H])c1[H]


 24 27  0  0  0  0  0  0  0  0999 V2000
  157.1780  140.8563  182.6332 C   0  0  0  0  0  0  0  0  0  0  0  0
  157.0914  141.6056  181.3681 N   0  0  0  0  0  0  0  0  0  0  0  0
  158.3056  142.2494  180.9222 C   0  0  0  0  0  0  0  0  0  0  0  0
  158.5407  142.4720  179.3495 S   0  0  0  0  0  0  0  0  0  0  0  0
  159.1750  142.6247  181.9651 N   0  0  0  0  0  0  0  0  0  0  0  0
  158.9434  142.4335  183.2030 C   0  0  0  0  0  0  0  0  0  0  0  0
  157.6968  141.7832  183.6649 C   0  0  0  0  0  0  0  0  0  0  0  0
  158.1304  141.1617  184.9309 C   0  0  0  0  0  0  0  0  0  0  0  0
  157.6473  140.1551  185.4565 O   0  0  0  0  0  0  0  0  0  0  0  0
  159.2345  141.9574  185.4450 C   0  0  0  0  0  0  0  0  0  0  0  0
  159.8264  142.0698  186.6847 C   0  0  0  0  0  0  0  0  0  0  0  0
  160.8869  142.9218  186.9119 C   0  0  0  0  0  0  0  0  0  0  0  0
  161.4016  143.7029  185.8952 C   0  0  0  0  0  0  0  0  0  0  0  0
  160.8134  143.5946  184.6524 C   0  0  0  0  0  0  0  0  0  0  0  0
  159.7524  142.7456  184.4151 C   0  0  0  0  0  0  0  0  0  0  0  0
  156.2039  141.6362  180.8716 H   0  0  0  0  0  0  0  0  0  0  0  0
  154.4041  138.6918  184.0195 C   0  0  0  0  0  0  0  0  0  0  0  0
  153.2652  139.2915  183.5242 C   0  0  0  0  0  0  0  0  0  0  0  0
  153.4240  140.4101  182.7335 C   0  0  0  0  0  0  0  0  0  0  0  0
  154.6823  140.9078  182.4512 C   0  0  0  0  0  0  0  0  0  0  0  0
  155.8309  140.3184  182.9399 C   0  0  0  0  0  0  0  0  0  0  0  0
  155.6557  139.1967  183.7318 C   0  0  0  0  0  0  0  0  0  0  0  0
  154.6561  137.6503  186.1961 C   0  0  0  0  0  0  0  0  0  0  0  0
  154.3143  137.5682  184.8177 O   0  0  0  0  0  0  0  0  0  0  0  0
 23 24  1  0  0  0
 24 17  1  0  0  0
 17 18  2  0  0  0
 18 19  1  0  0  0
 19 20  2  0  0  0
 20 21  1  0  0  0
 21 22  2  0  0  0
 21  1  1  0  0  0
  1  2  1  0  0  0
  2  3  1  0  0  0
  3  4  2  0  0  0
  3  5  1  0  0  0
  5  6  2  0  0  0
  6  7  1  0  0  0
  7  8  1  0  0  0
  8  9  2  0  0  0
  8 10  1  0  0  0
 10 11  2  0  0  0
 11 12  1  0  0  0
 12 13  2  0  0  0
 13 14  1  0  0  0
 14 15  2  0  0  0
 22 17  1  0  0  0
  7  1  1  0  0  0
 15 10  1  0  0  0
 15  6  1  0  0  0
  2 16  1  0  0  0
M  END
> <minimizedAffinity>
-9.05161

> <CNNscore>
0.5521323085

> <CNNaffinity>
6.2847037315

> <CNN_VS>
3.4699878693

> <CNNaffinity_variance>
0.2302884758

$$$$
[H]c1c([H])c([H])c2c(c1[H])C(=O)C1([H])C2=NC(=S)N([H])[C@]1([H])c1c([H])c([H])c([H])c(OC([H])([H])[H])c1[H]


 24 27  0  0  0  0  0  0  0  0999 V2000
  153.4503  139.1760  183.9079 C   0  0  0  0  0  0  0  0  0  0  0  0
  154.7222  139.8545  183.6058 N   0  0  0  0  0  0  0  0  0  0  0  0
  154.6637  140.9157  182.6270 C   0  0  0  0  0  0  0  0  0  0  0  0
  155.7214  142.1207  182.7156 S   0  0  0  0  0  0  0  0  0  0  0  0
  153.6441  140.7590  181.6678 N   0  0  0  0  0  0  0  0  0  0  0  0
  152.8297  139.7802  181.6322 C   0  0  0  0  0  0  0  0  0  0  0  0
  152.8920  138.6861  182.6269 C   0  0  0  0  0  0  0  0  0  0  0  0
  151.4886  138.2325  182.6665 C   0  0  0  0  0  0  0  0  0  0  0  0
  150.9180  137.6969  183.6207 O   0  0  0  0  0  0  0  0  0  0  0  0
  150.9018  138.5342  181.3699 C   0  0  0  0  0  0  0  0  0  0  0  0
  149.7757  138.0893  180.7113 C   0  0  0  0  0  0  0  0  0  0  0  0
  149.4370  138.5467  179.4551 C   0  0  0  0  0  0  0  0  0  0  0  0
  150.2217  139.4777  178.8023 C   0  0  0  0  0  0  0  0  0  0  0  0
  151.3499  139.9268  179.4563 C   0  0  0  0  0  0  0  0  0  0  0  0
  151.6971  139.4754  180.7127 C   0  0  0  0  0  0  0  0  0  0  0  0
  155.5674  139.5577  184.0881 H   0  0  0  0  0  0  0  0  0  0  0  0
  153.7998  137.2810  187.1618 C   0  0  0  0  0  0  0  0  0  0  0  0
  154.2573  136.0454  186.7540 C   0  0  0  0  0  0  0  0  0  0  0  0
  154.4470  135.8482  185.4024 C   0  0  0  0  0  0  0  0  0  0  0  0
  154.1861  136.8567  184.4938 C   0  0  0  0  0  0  0  0  0  0  0  0
  153.7278  138.0979  184.8870 C   0  0  0  0  0  0  0  0  0  0  0  0
  153.5423  138.2810  186.2464 C   0  0  0  0  0  0  0  0  0  0  0  0
  154.4615  138.4274  189.1949 C   0  0  0  0  0  0  0  0  0  0  0  0
  153.5890  137.5434  188.5013 O   0  0  0  0  0  0  0  0  0  0  0  0
 23 24  1  0  0  0
 24 17  1  0  0  0
 17 18  2  0  0  0
 18 19  1  0  0  0
 19 20  2  0  0  0
 20 21  1  0  0  0
 21 22  2  0  0  0
 21  1  1  0  0  0
  1  2  1  0  0  0
  2  3  1  0  0  0
  3  4  2  0  0  0
  3  5  1  0  0  0
  5  6  2  0  0  0
  6  7  1  0  0  0
  7  8  1  0  0  0
  8  9  2  0  0  0
  8 10  1  0  0  0
 10 11  2  0  0  0
 11 12  1  0  0  0
 12 13  2  0  0  0
 13 14  1  0  0  0
 14 15  2  0  0  0
 22 17  1  0  0  0
  7  1  1  0  0  0
 15 10  1  0  0  0
 15  6  1  0  0  0
  2 16  1  0  0  0
M  END
> <minimizedAffinity>
-6.89323

> <CNNscore>
0.5459752083

> <CNNaffinity>
5.1579370499

> <CNN_VS>
2.8161058426

> <CNNaffinity_variance>
0.2247380018

$$$$
[H]c1c([H])c([H])c2c(c1[H])C(=O)C1([H])C2=NC(=S)N([H])[C@]1([H])c1c([H])c([H])c([H])c(OC([H])([H])[H])c1[H]


 24 27  0  0  0  0  0  0  0  0999 V2000
  157.1968  140.7868  182.6904 C   0  0  0  0  0  0  0  0  0  0  0  0
  157.0826  141.5306  181.4243 N   0  0  0  0  0  0  0  0  0  0  0  0
  158.2780  142.2010  180.9669 C   0  0  0  0  0  0  0  0  0  0  0  0
  158.4951  142.4248  179.3917 S   0  0  0  0  0  0  0  0  0  0  0  0
  159.1470  142.5989  182.0016 N   0  0  0  0  0  0  0  0  0  0  0  0
  158.9299  142.4056  183.2419 C   0  0  0  0  0  0  0  0  0  0  0  0
  157.7025  141.7281  183.7156 C   0  0  0  0  0  0  0  0  0  0  0  0
  158.1606  141.1200  184.9794 C   0  0  0  0  0  0  0  0  0  0  0  0
  157.7051  140.1039  185.5114 O   0  0  0  0  0  0  0  0  0  0  0  0
  159.2502  141.9421  185.4826 C   0  0  0  0  0  0  0  0  0  0  0  0
  159.8495  142.0714  186.7171 C   0  0  0  0  0  0  0  0  0  0  0  0
  160.8919  142.9481  186.9335 C   0  0  0  0  0  0  0  0  0  0  0  0
  161.3801  143.7382  185.9108 C   0  0  0  0  0  0  0  0  0  0  0  0
  160.7845  143.6132  184.6731 C   0  0  0  0  0  0  0  0  0  0  0  0
  159.7414  142.7394  184.4466 C   0  0  0  0  0  0  0  0  0  0  0  0
  156.1906  141.5395  180.9350 H   0  0  0  0  0  0  0  0  0  0  0  0
  153.4741  140.1219  182.6605 C   0  0  0  0  0  0  0  0  0  0  0  0
  153.3264  139.1391  183.6169 C   0  0  0  0  0  0  0  0  0  0  0  0
  154.4623  138.7027  184.2657 C   0  0  0  0  0  0  0  0  0  0  0  0
  155.7018  139.2352  183.9639 C   0  0  0  0  0  0  0  0  0  0  0  0
  155.8649  140.2189  183.0094 C   0  0  0  0  0  0  0  0  0  0  0  0
  154.7160  140.6468  182.3668 C   0  0  0  0  0  0  0  0  0  0  0  0
  151.9730  139.9813  180.7598 C   0  0  0  0  0  0  0  0  0  0  0  0
  152.3762  140.6028  181.9743 O   0  0  0  0  0  0  0  0  0  0  0  0
 23 24  1  0  0  0
 24 17  1  0  0  0
 17 18  2  0  0  0
 18 19  1  0  0  0
 19 20  2  0  0  0
 20 21  1  0  0  0
 21 22  2  0  0  0
 21  1  1  0  0  0
  1  2  1  0  0  0
  2  3  1  0  0  0
  3  4  2  0  0  0
  3  5  1  0  0  0
  5  6  2  0  0  0
  6  7  1  0  0  0
  7  8  1  0  0  0
  8  9  2  0  0  0
  8 10  1  0  0  0
 10 11  2  0  0  0
 11 12  1  0  0  0
 12 13  2  0  0  0
 13 14  1  0  0  0
 14 15  2  0  0  0
 22 17  1  0  0  0
  7  1  1  0  0  0
 15 10  1  0  0  0
 15  6  1  0  0  0
  2 16  1  0  0  0
M  END
> <minimizedAffinity>
-9.34582

> <CNNscore>
0.5315937400

> <CNNaffinity>
6.2959475517

> <CNN_VS>
3.3468863964

> <CNNaffinity_variance>
0.2531829774

$$$$
[H]c1c([H])c([H])c2c(c1[H])C(=O)C1([H])C2=NC(=S)N([H])[C@]1([H])c1c([H])c([H])c([H])c(OC([H])([H])[H])c1[H]


 24 27  0  0  0  0  0  0  0  0999 V2000
  154.3808  139.1036  183.4638 C   0  0  0  0  0  0  0  0  0  0  0  0
  153.0386  139.3875  182.9277 N   0  0  0  0  0  0  0  0  0  0  0  0
  152.9843  140.2243  181.7510 C   0  0  0  0  0  0  0  0  0  0  0  0
  151.7669  140.0449  180.7194 S   0  0  0  0  0  0  0  0  0  0  0  0
  154.0495  141.1398  181.6456 N   0  0  0  0  0  0  0  0  0  0  0  0
  154.9928  141.2518  182.4944 C   0  0  0  0  0  0  0  0  0  0  0  0
  155.0474  140.4035  183.7059 C   0  0  0  0  0  0  0  0  0  0  0  0
  156.4979  140.3452  183.9698 C   0  0  0  0  0  0  0  0  0  0  0  0
  157.1026  139.4349  184.5429 O   0  0  0  0  0  0  0  0  0  0  0  0
  157.0833  141.5619  183.4282 C   0  0  0  0  0  0  0  0  0  0  0  0
  158.2832  142.2092  183.6305 C   0  0  0  0  0  0  0  0  0  0  0  0
  158.6000  143.3801  182.9740 C   0  0  0  0  0  0  0  0  0  0  0  0
  157.7176  143.9546  182.0797 C   0  0  0  0  0  0  0  0  0  0  0  0
  156.5152  143.3114  181.8730 C   0  0  0  0  0  0  0  0  0  0  0  0
  156.1891  142.1401  182.5246 C   0  0  0  0  0  0  0  0  0  0  0  0
  152.2261  138.9909  183.3941 H   0  0  0  0  0  0  0  0  0  0  0  0
  153.8444  138.0898  187.0674 C   0  0  0  0  0  0  0  0  0  0  0  0
  153.9167  136.7134  187.0169 C   0  0  0  0  0  0  0  0  0  0  0  0
  154.1428  136.1298  185.7880 C   0  0  0  0  0  0  0  0  0  0  0  0
  154.2907  136.9022  184.6512 C   0  0  0  0  0  0  0  0  0  0  0  0
  154.2207  138.2803  184.6863 C   0  0  0  0  0  0  0  0  0  0  0  0
  153.9934  138.8516  185.9265 C   0  0  0  0  0  0  0  0  0  0  0  0
  154.4671  138.4764  189.3801 C   0  0  0  0  0  0  0  0  0  0  0  0
  153.6202  138.7364  188.2671 O   0  0  0  0  0  0  0  0  0  0  0  0
 23 24  1  0  0  0
 24 17  1  0  0  0
 17 18  2  0  0  0
 18 19  1  0  0  0
 19 20  2  0  0  0
 20 21  1  0  0  0
 21 22  2  0  0  0
 21  1  1  0  0  0
  1  2  1  0  0  0
  2  3  1  0  0  0
  3  4  2  0  0  0
  3  5  1  0  0  0
  5  6  2  0  0  0
  6  7  1  0  0  0
  7  8  1  0  0  0
  8  9  2  0  0  0
  8 10  1  0  0  0
 10 11  2  0  0  0
 11 12  1  0  0  0
 12 13  2  0  0  0
 13 14  1  0  0  0
 14 15  2  0  0  0
 22 17  1  0  0  0
  7  1  1  0  0  0
 15 10  1  0  0  0
 15  6  1  0  0  0
  2 16  1  0  0  0
M  END
> <minimizedAffinity>
-7.33958

> <CNNscore>
0.4689294398

> <CNNaffinity>
5.5383768082

> <CNN_VS>
2.5971078873

> <CNNaffinity_variance>
0.0928320512

$$$$
[H]c1c([H])c([H])c2c(c1[H])C(=O)C1([H])C2=NC(=S)N([H])[C@]1([H])c1c([H])c([H])c([H])c(OC([H])([H])[H])c1[H]


 24 27  0  0  0  0  0  0  0  0999 V2000
  154.6681  138.1667  187.5397 C   0  0  0  0  0  0  0  0  0  0  0  0
  155.7191  138.3825  186.5306 N   0  0  0  0  0  0  0  0  0  0  0  0
  155.2725  138.8041  185.2228 C   0  0  0  0  0  0  0  0  0  0  0  0
  156.2485  139.6982  184.3137 S   0  0  0  0  0  0  0  0  0  0  0  0
  153.9797  138.3588  184.8844 N   0  0  0  0  0  0  0  0  0  0  0  0
  153.2419  137.6434  185.6369 C   0  0  0  0  0  0  0  0  0  0  0  0
  153.6988  137.2011  186.9733 C   0  0  0  0  0  0  0  0  0  0  0  0
  152.4223  137.0667  187.7009 C   0  0  0  0  0  0  0  0  0  0  0  0
  152.2567  137.1832  188.9182 O   0  0  0  0  0  0  0  0  0  0  0  0
  151.3941  136.7708  186.7152 C   0  0  0  0  0  0  0  0  0  0  0  0
  150.1212  136.2487  186.7993 C   0  0  0  0  0  0  0  0  0  0  0  0
  149.3333  136.0644  185.6824 C   0  0  0  0  0  0  0  0  0  0  0  0
  149.7945  136.3996  184.4241 C   0  0  0  0  0  0  0  0  0  0  0  0
  151.0675  136.9227  184.3336 C   0  0  0  0  0  0  0  0  0  0  0  0
  151.8633  137.1107  185.4445 C   0  0  0  0  0  0  0  0  0  0  0  0
  156.6915  138.2324  186.7899 H   0  0  0  0  0  0  0  0  0  0  0  0
  156.5855  136.0352  190.0058 C   0  0  0  0  0  0  0  0  0  0  0  0
  156.5594  136.7933  191.1577 C   0  0  0  0  0  0  0  0  0  0  0  0
  155.9063  138.0069  191.1095 C   0  0  0  0  0  0  0  0  0  0  0  0
  155.3013  138.4424  189.9454 C   0  0  0  0  0  0  0  0  0  0  0  0
  155.3193  137.6948  188.7852 C   0  0  0  0  0  0  0  0  0  0  0  0
  155.9785  136.4792  188.8489 C   0  0  0  0  0  0  0  0  0  0  0  0
  158.0838  134.4768  188.9046 C   0  0  0  0  0  0  0  0  0  0  0  0
  157.2231  134.8101  189.9872 O   0  0  0  0  0  0  0  0  0  0  0  0
 23 24  1  0  0  0
 24 17  1  0  0  0
 17 18  2  0  0  0
 18 19  1  0  0  0
 19 20  2  0  0  0
 20 21  1  0  0  0
 21 22  2  0  0  0
 21  1  1  0  0  0
  1  2  1  0  0  0
  2  3  1  0  0  0
  3  4  2  0  0  0
  3  5  1  0  0  0
  5  6  2  0  0  0
  6  7  1  0  0  0
  7  8  1  0  0  0
  8  9  2  0  0  0
  8 10  1  0  0  0
 10 11  2  0  0  0
 11 12  1  0  0  0
 12 13  2  0  0  0
 13 14  1  0  0  0
 14 15  2  0  0  0
 22 17  1  0  0  0
  7  1  1  0  0  0
 15 10  1  0  0  0
 15  6  1  0  0  0
  2 16  1  0  0  0
M  END
> <minimizedAffinity>
-5.77772

> <CNNscore>
0.4330776632

> <CNNaffinity>
4.8967866898

> <CNN_VS>
2.1206889153

> <CNNaffinity_variance>
0.0935246944

$$$$
[H]c1c([H])c([H])c2c(c1[H])C(=O)C1([H])C2=NC(=S)N([H])[C@]1([H])c1c([H])c([H])c([H])c(OC([H])([H])[H])c1[H]


 24 27  0  0  0  0  0  0  0  0999 V2000
  153.1529  140.4323  182.2632 C   0  0  0  0  0  0  0  0  0  0  0  0
  152.6959  140.3175  180.8677 N   0  0  0  0  0  0  0  0  0  0  0  0
  151.7132  139.2928  180.5992 C   0  0  0  0  0  0  0  0  0  0  0  0
  150.6763  139.5011  179.3910 S   0  0  0  0  0  0  0  0  0  0  0  0
  151.7867  138.1836  181.4642 N   0  0  0  0  0  0  0  0  0  0  0  0
  152.6331  138.0579  182.4079 C   0  0  0  0  0  0  0  0  0  0  0  0
  153.6476  139.1004  182.6805 C   0  0  0  0  0  0  0  0  0  0  0  0
  153.8827  138.9237  184.1263 C   0  0  0  0  0  0  0  0  0  0  0  0
  154.2551  139.7922  184.9199 O   0  0  0  0  0  0  0  0  0  0  0  0
  153.5937  137.5335  184.4427 C   0  0  0  0  0  0  0  0  0  0  0  0
  153.9132  136.7160  185.5054 C   0  0  0  0  0  0  0  0  0  0  0  0
  153.5047  135.3999  185.5618 C   0  0  0  0  0  0  0  0  0  0  0  0
  152.7519  134.8452  184.5448 C   0  0  0  0  0  0  0  0  0  0  0  0
  152.4290  135.6583  183.4787 C   0  0  0  0  0  0  0  0  0  0  0  0
  152.8329  136.9757  183.4130 C   0  0  0  0  0  0  0  0  0  0  0  0
  153.0789  140.9498  180.1686 H   0  0  0  0  0  0  0  0  0  0  0  0
  156.4747  142.2288  182.0643 C   0  0  0  0  0  0  0  0  0  0  0  0
  156.1528  143.5186  182.4318 C   0  0  0  0  0  0  0  0  0  0  0  0
  154.8360  143.7847  182.7432 C   0  0  0  0  0  0  0  0  0  0  0  0
  153.8777  142.7901  182.6871 C   0  0  0  0  0  0  0  0  0  0  0  0
  154.1849  141.4951  182.3210 C   0  0  0  0  0  0  0  0  0  0  0  0
  155.5103  141.2432  182.0113 C   0  0  0  0  0  0  0  0  0  0  0  0
  158.1401  140.5293  181.5913 C   0  0  0  0  0  0  0  0  0  0  0  0
  157.7754  141.8962  181.7401 O   0  0  0  0  0  0  0  0  0  0  0  0
 23 24  1  0  0  0
 24 17  1  0  0  0
 17 18  2  0  0  0
 18 19  1  0  0  0
 19 20  2  0  0  0
 20 21  1  0  0  0
 21 22  2  0  0  0
 21  1  1  0  0  0
  1  2  1  0  0  0
  2  3  1  0  0  0
  3  4  2  0  0  0
  3  5  1  0  0  0
  5  6  2  0  0  0
  6  7  1  0  0  0
  7  8  1  0  0  0
  8  9  2  0  0  0
  8 10  1  0  0  0
 10 11  2  0  0  0
 11 12  1  0  0  0
 12 13  2  0  0  0
 13 14  1  0  0  0
 14 15  2  0  0  0
 22 17  1  0  0  0
  7  1  1  0  0  0
 15 10  1  0  0  0
 15  6  1  0  0  0
  2 16  1  0  0  0
M  END
> <minimizedAffinity>
-6.96309

> <CNNscore>
0.4271099865

> <CNNaffinity>
5.2946538925

> <CNN_VS>
2.2613995075

> <CNNaffinity_variance>
0.1773329079

$$$$
[H]c1c([H])c([H])c2c(c1[H])C(=O)C1([H])C2=NC(=S)N([H])[C@]1([H])c1c([H])c([H])c([H])c(OC([H])([H])[H])c1[H]


 24 27  0  0  0  0  0  0  0  0999 V2000
  151.9003  135.9804  187.0881 C   0  0  0  0  0  0  0  0  0  0  0  0
  152.2567  136.0354  185.6600 N   0  0  0  0  0  0  0  0  0  0  0  0
  153.6589  135.8865  185.3451 C   0  0  0  0  0  0  0  0  0  0  0  0
  154.0798  135.2550  183.9300 S   0  0  0  0  0  0  0  0  0  0  0  0
  154.5278  136.3352  186.3589 N   0  0  0  0  0  0  0  0  0  0  0  0
  154.1479  136.8371  187.4663 C   0  0  0  0  0  0  0  0  0  0  0  0
  152.7129  137.0005  187.7893 C   0  0  0  0  0  0  0  0  0  0  0  0
  152.7224  136.9166  189.2623 C   0  0  0  0  0  0  0  0  0  0  0  0
  151.7954  136.5326  189.9806 O   0  0  0  0  0  0  0  0  0  0  0  0
  154.0294  137.3715  189.7110 C   0  0  0  0  0  0  0  0  0  0  0  0
  154.5181  137.8049  190.9247 C   0  0  0  0  0  0  0  0  0  0  0  0
  155.8325  138.1901  191.0862 C   0  0  0  0  0  0  0  0  0  0  0  0
  156.7184  138.1558  190.0267 C   0  0  0  0  0  0  0  0  0  0  0  0
  156.2353  137.7229  188.8096 C   0  0  0  0  0  0  0  0  0  0  0  0
  154.9224  137.3357  188.6380 C   0  0  0  0  0  0  0  0  0  0  0  0
  151.5197  136.1700  184.9716 H   0  0  0  0  0  0  0  0  0  0  0  0
  148.2686  135.5572  188.0541 C   0  0  0  0  0  0  0  0  0  0  0  0
  147.6540  136.6196  187.4250 C   0  0  0  0  0  0  0  0  0  0  0  0
  148.4478  137.4700  186.6844 C   0  0  0  0  0  0  0  0  0  0  0  0
  149.8100  137.2598  186.5802 C   0  0  0  0  0  0  0  0  0  0  0  0
  150.4389  136.2012  187.2041 C   0  0  0  0  0  0  0  0  0  0  0  0
  149.6294  135.3563  187.9437 C   0  0  0  0  0  0  0  0  0  0  0  0
  148.0508  134.1878  190.0449 C   0  0  0  0  0  0  0  0  0  0  0  0
  147.5306  134.6685  188.8112 O   0  0  0  0  0  0  0  0  0  0  0  0
 23 24  1  0  0  0
 24 17  1  0  0  0
 17 18  2  0  0  0
 18 19  1  0  0  0
 19 20  2  0  0  0
 20 21  1  0  0  0
 21 22  2  0  0  0
 21  1  1  0  0  0
  1  2  1  0  0  0
  2  3  1  0  0  0
  3  4  2  0  0  0
  3  5  1  0  0  0
  5  6  2  0  0  0
  6  7  1  0  0  0
  7  8  1  0  0  0
  8  9  2  0  0  0
  8 10  1  0  0  0
 10 11  2  0  0  0
 11 12  1  0  0  0
 12 13  2  0  0  0
 13 14  1  0  0  0
 14 15  2  0  0  0
 22 17  1  0  0  0
  7  1  1  0  0  0
 15 10  1  0  0  0
 15  6  1  0  0  0
  2 16  1  0  0  0
M  END
> <minimizedAffinity>
-5.43291

> <CNNscore>
0.4225139916

> <CNNaffinity>
4.7503404617

> <CNN_VS>
2.0070853233

> <CNNaffinity_variance>
0.0747352019

$$$$
[H]c1c([H])c([H])c2c(c1[H])C(=O)C1([H])C2=NC(=S)N([H])[C@]1([H])c1c([H])c([H])c([H])c(OC([H])([H])[H])c1[H]


 24 27  0  0  0  0  0  0  0  0999 V2000
  153.9547  136.3353  189.3875 C   0  0  0  0  0  0  0  0  0  0  0  0
  153.8575  137.5279  188.5286 N   0  0  0  0  0  0  0  0  0  0  0  0
  154.6532  137.5136  187.3227 C   0  0  0  0  0  0  0  0  0  0  0  0
  154.1487  138.3419  186.0429 S   0  0  0  0  0  0  0  0  0  0  0  0
  155.8293  136.7444  187.4178 N   0  0  0  0  0  0  0  0  0  0  0  0
  156.1940  136.1075  188.4590 C   0  0  0  0  0  0  0  0  0  0  0  0
  155.3872  136.1271  189.6995 C   0  0  0  0  0  0  0  0  0  0  0  0
  155.7328  134.8274  190.3062 C   0  0  0  0  0  0  0  0  0  0  0  0
  155.0230  134.1603  191.0640 O   0  0  0  0  0  0  0  0  0  0  0  0
  157.0674  134.4781  189.8447 C   0  0  0  0  0  0  0  0  0  0  0  0
  158.0215  133.5871  190.2872 C   0  0  0  0  0  0  0  0  0  0  0  0
  159.2382  133.4469  189.6530 C   0  0  0  0  0  0  0  0  0  0  0  0
  159.5501  134.2017  188.5388 C   0  0  0  0  0  0  0  0  0  0  0  0
  158.5993  135.0949  188.0912 C   0  0  0  0  0  0  0  0  0  0  0  0
  157.3797  135.2426  188.7186 C   0  0  0  0  0  0  0  0  0  0  0  0
  153.2478  138.2920  188.8110 H   0  0  0  0  0  0  0  0  0  0  0  0
  151.0564  136.2301  191.8144 C   0  0  0  0  0  0  0  0  0  0  0  0
  151.5046  137.0002  192.8672 C   0  0  0  0  0  0  0  0  0  0  0  0
  152.7654  137.5496  192.7659 C   0  0  0  0  0  0  0  0  0  0  0  0
  153.5472  137.3325  191.6467 C   0  0  0  0  0  0  0  0  0  0  0  0
  153.1121  136.5642  190.5857 C   0  0  0  0  0  0  0  0  0  0  0  0
  151.8448  136.0195  190.7017 C   0  0  0  0  0  0  0  0  0  0  0  0
  149.4365  134.8302  192.9556 C   0  0  0  0  0  0  0  0  0  0  0  0
  149.8029  135.6513  191.8532 O   0  0  0  0  0  0  0  0  0  0  0  0
 23 24  1  0  0  0
 24 17  1  0  0  0
 17 18  2  0  0  0
 18 19  1  0  0  0
 19 20  2  0  0  0
 20 21  1  0  0  0
 21 22  2  0  0  0
 21  1  1  0  0  0
  1  2  1  0  0  0
  2  3  1  0  0  0
  3  4  2  0  0  0
  3  5  1  0  0  0
  5  6  2  0  0  0
  6  7  1  0  0  0
  7  8  1  0  0  0
  8  9  2  0  0  0
  8 10  1  0  0  0
 10 11  2  0  0  0
 11 12  1  0  0  0
 12 13  2  0  0  0
 13 14  1  0  0  0
 14 15  2  0  0  0
 22 17  1  0  0  0
  7  1  1  0  0  0
 15 10  1  0  0  0
 15  6  1  0  0  0
  2 16  1  0  0  0
M  END
> <minimizedAffinity>
-6.51952

> <CNNscore>
0.4216575027

> <CNNaffinity>
4.8846445084

> <CNN_VS>
2.0596470833

> <CNNaffinity_variance>
0.0350803770

$$$$
[H]c1nc(N2C([H])([H])C3([H])C([H])([H])C3([H])C2([H])[H])nc([H])c1-c1nc(N([H])C(=O)[C@@]([H])(n2c([H])nc3c2c(=O)n(C([H])([H])C(F)(F)F)c(=O)n3C([H])([H])[H])C([H])([H])[H])c([H])s1


 40 45  0  0  0  0  0  0  0  0999 V2000
  149.7751  137.7747  181.2712 C   0  0  0  0  0  0  0  0  0  0  0  0
  149.6768  137.0430  180.1274 O   0  0  0  0  0  0  0  0  0  0  0  0
  148.7445  137.5001  182.1129 N   0  0  0  0  0  0  0  0  0  0  0  0
  148.0558  136.7267  181.6656 H   0  0  0  0  0  0  0  0  0  0  0  0
  148.2511  137.9203  183.3758 C   0  0  0  0  0  0  0  0  0  0  0  0
  147.4993  139.0333  183.6261 C   0  0  0  0  0  0  0  0  0  0  0  0
  147.3051  138.9989  185.3318 S   0  0  0  0  0  0  0  0  0  0  0  0
  148.1845  137.5752  185.6422 C   0  0  0  0  0  0  0  0  0  0  0  0
  148.5670  137.2147  184.4656 N   0  0  0  0  0  0  0  0  0  0  0  0
  148.4482  136.9170  186.9470 C   0  0  0  0  0  0  0  0  0  0  0  0
  147.5329  136.8322  187.9562 C   0  0  0  0  0  0  0  0  0  0  0  0
  147.8795  136.1996  189.1207 N   0  0  0  0  0  0  0  0  0  0  0  0
  149.0955  135.6599  189.2977 C   0  0  0  0  0  0  0  0  0  0  0  0
  149.9840  135.7519  188.2953 N   0  0  0  0  0  0  0  0  0  0  0  0
  149.6939  136.3710  187.1125 C   0  0  0  0  0  0  0  0  0  0  0  0
  149.4130  135.0096  190.5286 N   0  0  0  0  0  0  0  0  0  0  0  0
  148.9296  133.7325  191.0176 C   0  0  0  0  0  0  0  0  0  0  0  0
  148.7844  133.8989  192.4974 C   0  0  0  0  0  0  0  0  0  0  0  0
  149.9171  133.8383  193.4280 C   0  0  0  0  0  0  0  0  0  0  0  0
  149.5765  135.1761  192.8140 C   0  0  0  0  0  0  0  0  0  0  0  0
  150.2942  135.5134  191.5387 C   0  0  0  0  0  0  0  0  0  0  0  0
  151.6363  138.8225  179.9490 C   0  0  0  0  0  0  0  0  0  0  0  0
  150.9609  138.6487  181.2753 C   0  0  0  0  0  0  0  0  0  0  0  0
  151.8614  138.4018  182.3580 N   0  0  0  0  0  0  0  0  0  0  0  0
  151.7719  137.4160  183.2537 C   0  0  0  0  0  0  0  0  0  0  0  0
  152.7706  137.4710  184.1476 N   0  0  0  0  0  0  0  0  0  0  0  0
  153.5598  138.5235  183.8522 C   0  0  0  0  0  0  0  0  0  0  0  0
  154.6705  139.0384  184.4094 N   0  0  0  0  0  0  0  0  0  0  0  0
  155.2684  138.4324  185.5759 C   0  0  0  0  0  0  0  0  0  0  0  0
  155.2365  140.1314  183.8782 C   0  0  0  0  0  0  0  0  0  0  0  0
  156.2923  140.6164  184.4114 O   0  0  0  0  0  0  0  0  0  0  0  0
  154.7191  140.7309  182.7956 N   0  0  0  0  0  0  0  0  0  0  0  0
  153.5878  140.2073  182.2268 C   0  0  0  0  0  0  0  0  0  0  0  0
  153.0914  140.7666  181.2087 O   0  0  0  0  0  0  0  0  0  0  0  0
  152.9710  139.0982  182.7227 C   0  0  0  0  0  0  0  0  0  0  0  0
  155.3377  141.9111  182.2291 C   0  0  0  0  0  0  0  0  0  0  0  0
  154.7512  143.1816  182.8075 C   0  0  0  0  0  0  0  0  0  0  0  0
  155.3155  144.3084  182.2365 F   0  0  0  0  0  0  0  0  0  0  0  0
  154.8935  143.2072  184.1805 F   0  0  0  0  0  0  0  0  0  0  0  0
  153.3988  143.2457  182.5477 F   0  0  0  0  0  0  0  0  0  0  0  0
 22 23  1  0  0  0
 23  1  1  0  0  0
  1  2  2  0  0  0
  1  3  1  0  0  0
  3  5  1  0  0  0
  5  6  2  0  0  0
  6  7  1  0  0  0
  7  8  1  0  0  0
  8  9  2  0  0  0
  8 10  1  0  0  0
 10 11  2  0  0  0
 11 12  1  0  0  0
 12 13  2  0  0  0
 13 14  1  0  0  0
 14 15  2  0  0  0
 13 16  1  0  0  0
 16 17  1  0  0  0
 17 18  1  0  0  0
 18 19  1  0  0  0
 19 20  1  0  0  0
 20 21  1  0  0  0
 23 24  1  0  0  0
 24 25  1  0  0  0
 25 26  2  0  0  0
 26 27  1  0  0  0
 27 28  1  0  0  0
 28 29  1  0  0  0
 28 30  1  0  0  0
 30 31  2  0  0  0
 30 32  1  0  0  0
 32 36  1  0  0  0
 36 37  1  0  0  0
 37 38  1  0  0  0
 37 39  1  0  0  0
 37 40  1  0  0  0
 32 33  1  0  0  0
 33 34  2  0  0  0
 33 35  1  0  0  0
  9  5  1  0  0  0
 15 10  1  0  0  0
 21 16  1  0  0  0
 35 24  1  0  0  0
 20 18  1  0  0  0
 35 27  2  0  0  0
  3  4  1  0  0  0
M  END
> <minimizedAffinity>
-7.55950

> <CNNscore>
0.5350275040

> <CNNaffinity>
6.6287865639

> <CNN_VS>
3.5465831757

> <CNNaffinity_variance>
0.1681657135

$$$$
[H]c1nc(N2C([H])([H])C3([H])C([H])([H])C3([H])C2([H])[H])nc([H])c1-c1nc(N([H])C(=O)[C@@]([H])(n2c([H])nc3c2c(=O)n(C([H])([H])C(F)(F)F)c(=O)n3C([H])([H])[H])C([H])([H])[H])c([H])s1


 40 45  0  0  0  0  0  0  0  0999 V2000
  153.7604  135.7230  191.7507 C   0  0  0  0  0  0  0  0  0  0  0  0
  153.0502  136.5632  192.5526 O   0  0  0  0  0  0  0  0  0  0  0  0
  153.4946  134.4250  192.0516 N   0  0  0  0  0  0  0  0  0  0  0  0
  152.7441  134.3528  192.8908 H   0  0  0  0  0  0  0  0  0  0  0  0
  153.9044  133.1264  191.6510 C   0  0  0  0  0  0  0  0  0  0  0  0
  153.0934  132.1125  191.2255 C   0  0  0  0  0  0  0  0  0  0  0  0
  154.1890  130.8146  190.9733 S   0  0  0  0  0  0  0  0  0  0  0  0
  155.6198  131.6220  191.4177 C   0  0  0  0  0  0  0  0  0  0  0  0
  155.1980  132.8002  191.7252 N   0  0  0  0  0  0  0  0  0  0  0  0
  157.0079  131.0951  191.4476 C   0  0  0  0  0  0  0  0  0  0  0  0
  157.4520  130.0731  190.6590 C   0  0  0  0  0  0  0  0  0  0  0  0
  158.7554  129.6656  190.7649 N   0  0  0  0  0  0  0  0  0  0  0  0
  159.6097  130.2438  191.6236 C   0  0  0  0  0  0  0  0  0  0  0  0
  159.1571  131.2475  192.3919 N   0  0  0  0  0  0  0  0  0  0  0  0
  157.8680  131.6955  192.3292 C   0  0  0  0  0  0  0  0  0  0  0  0
  160.9602  129.7863  191.7002 N   0  0  0  0  0  0  0  0  0  0  0  0
  161.7050  129.3871  192.8790 C   0  0  0  0  0  0  0  0  0  0  0  0
  163.1088  129.8465  192.6408 C   0  0  0  0  0  0  0  0  0  0  0  0
  164.0565  129.1245  191.7846 C   0  0  0  0  0  0  0  0  0  0  0  0
  163.1571  130.1507  191.1361 C   0  0  0  0  0  0  0  0  0  0  0  0
  161.8561  129.6324  190.5938 C   0  0  0  0  0  0  0  0  0  0  0  0
  154.6471  137.9382  190.9654 C   0  0  0  0  0  0  0  0  0  0  0  0
  154.6078  136.4505  190.7902 C   0  0  0  0  0  0  0  0  0  0  0  0
  154.4430  136.0293  189.4339 N   0  0  0  0  0  0  0  0  0  0  0  0
  153.4223  136.3325  188.6287 C   0  0  0  0  0  0  0  0  0  0  0  0
  153.5650  135.7692  187.4197 N   0  0  0  0  0  0  0  0  0  0  0  0
  154.7133  135.0629  187.4030 C   0  0  0  0  0  0  0  0  0  0  0  0
  155.3293  134.3112  186.4731 N   0  0  0  0  0  0  0  0  0  0  0  0
  154.7608  134.1410  185.1565 C   0  0  0  0  0  0  0  0  0  0  0  0
  156.4899  133.7079  186.7665 C   0  0  0  0  0  0  0  0  0  0  0  0
  157.0715  132.9951  185.8790 O   0  0  0  0  0  0  0  0  0  0  0  0
  157.0581  133.8349  187.9749 N   0  0  0  0  0  0  0  0  0  0  0  0
  156.4317  134.6006  188.9232 C   0  0  0  0  0  0  0  0  0  0  0  0
  156.9577  134.7239  190.0651 O   0  0  0  0  0  0  0  0  0  0  0  0
  155.2522  135.2377  188.6804 C   0  0  0  0  0  0  0  0  0  0  0  0
  158.3119  133.1794  188.2824 C   0  0  0  0  0  0  0  0  0  0  0  0
  159.4952  134.0891  188.0273 C   0  0  0  0  0  0  0  0  0  0  0  0
  160.0511  134.5444  189.2097 F   0  0  0  0  0  0  0  0  0  0  0  0
  159.1348  135.1480  187.2182 F   0  0  0  0  0  0  0  0  0  0  0  0
  160.4909  133.4042  187.3640 F   0  0  0  0  0  0  0  0  0  0  0  0
 22 23  1  0  0  0
 23  1  1  0  0  0
  1  2  2  0  0  0
  1  3  1  0  0  0
  3  5  1  0  0  0
  5  6  2  0  0  0
  6  7  1  0  0  0
  7  8  1  0  0  0
  8  9  2  0  0  0
  8 10  1  0  0  0
 10 11  2  0  0  0
 11 12  1  0  0  0
 12 13  2  0  0  0
 13 14  1  0  0  0
 14 15  2  0  0  0
 13 16  1  0  0  0
 16 17  1  0  0  0
 17 18  1  0  0  0
 18 19  1  0  0  0
 19 20  1  0  0  0
 20 21  1  0  0  0
 23 24  1  0  0  0
 24 25  1  0  0  0
 25 26  2  0  0  0
 26 27  1  0  0  0
 27 28  1  0  0  0
 28 29  1  0  0  0
 28 30  1  0  0  0
 30 31  2  0  0  0
 30 32  1  0  0  0
 32 36  1  0  0  0
 36 37  1  0  0  0
 37 38  1  0  0  0
 37 39  1  0  0  0
 37 40  1  0  0  0
 32 33  1  0  0  0
 33 34  2  0  0  0
 33 35  1  0  0  0
  9  5  1  0  0  0
 15 10  1  0  0  0
 21 16  1  0  0  0
 35 24  1  0  0  0
 20 18  1  0  0  0
 35 27  2  0  0  0
  3  4  1  0  0  0
M  END
> <minimizedAffinity>
-5.83342

> <CNNscore>
0.3210180402

> <CNNaffinity>
6.2176046371

> <CNN_VS>
1.9959632158

> <CNNaffinity_variance>
0.1988725960

$$$$
[H]c1nc(N2C([H])([H])C3([H])C([H])([H])C3([H])C2([H])[H])nc([H])c1-c1nc(N([H])C(=O)[C@@]([H])(n2c([H])nc3c2c(=O)n(C([H])([H])C(F)(F)F)c(=O)n3C([H])([H])[H])C([H])([H])[H])c([H])s1


 40 45  0  0  0  0  0  0  0  0999 V2000
  154.6135  136.4651  189.4043 C   0  0  0  0  0  0  0  0  0  0  0  0
  154.9473  135.3224  190.0650 O   0  0  0  0  0  0  0  0  0  0  0  0
  155.0143  136.4103  188.1073 N   0  0  0  0  0  0  0  0  0  0  0  0
  155.5234  135.4283  187.8853 H   0  0  0  0  0  0  0  0  0  0  0  0
  155.0175  137.2334  186.9509 C   0  0  0  0  0  0  0  0  0  0  0  0
  155.9597  138.1653  186.6182 C   0  0  0  0  0  0  0  0  0  0  0  0
  155.3419  138.8460  185.1679 S   0  0  0  0  0  0  0  0  0  0  0  0
  153.9218  137.9147  185.0547 C   0  0  0  0  0  0  0  0  0  0  0  0
  153.9931  137.1592  186.0963 N   0  0  0  0  0  0  0  0  0  0  0  0
  152.8628  137.9659  184.0149 C   0  0  0  0  0  0  0  0  0  0  0  0
  152.9707  138.6720  182.8517 C   0  0  0  0  0  0  0  0  0  0  0  0
  151.9332  138.6490  181.9576 N   0  0  0  0  0  0  0  0  0  0  0  0
  150.8117  137.9505  182.1935 C   0  0  0  0  0  0  0  0  0  0  0  0
  150.7215  137.2614  183.3422 N   0  0  0  0  0  0  0  0  0  0  0  0
  151.7241  137.2479  184.2702 C   0  0  0  0  0  0  0  0  0  0  0  0
  149.7553  137.9552  181.2328 N   0  0  0  0  0  0  0  0  0  0  0  0
  148.9516  136.8360  180.7799 C   0  0  0  0  0  0  0  0  0  0  0  0
  148.6951  137.0883  179.3276 C   0  0  0  0  0  0  0  0  0  0  0  0
  147.6784  138.0283  178.8424 C   0  0  0  0  0  0  0  0  0  0  0  0
  149.0602  138.5671  179.1304 C   0  0  0  0  0  0  0  0  0  0  0  0
  149.2796  139.1006  180.5170 C   0  0  0  0  0  0  0  0  0  0  0  0
  154.7901  138.4618  190.9184 C   0  0  0  0  0  0  0  0  0  0  0  0
  153.9166  137.4294  190.2728 C   0  0  0  0  0  0  0  0  0  0  0  0
  152.9687  136.8324  191.1613 N   0  0  0  0  0  0  0  0  0  0  0  0
  153.0580  136.7737  192.4919 C   0  0  0  0  0  0  0  0  0  0  0  0
  152.0072  136.1352  193.0281 N   0  0  0  0  0  0  0  0  0  0  0  0
  151.1817  135.7482  192.0348 C   0  0  0  0  0  0  0  0  0  0  0  0
  150.0145  135.0807  192.0026 N   0  0  0  0  0  0  0  0  0  0  0  0
  149.3825  134.6261  193.2189 C   0  0  0  0  0  0  0  0  0  0  0  0
  149.4230  134.8301  190.8259 C   0  0  0  0  0  0  0  0  0  0  0  0
  148.3135  134.1956  190.8010 O   0  0  0  0  0  0  0  0  0  0  0  0
  149.9702  135.2311  189.6688 N   0  0  0  0  0  0  0  0  0  0  0  0
  151.1592  135.9115  189.7001 C   0  0  0  0  0  0  0  0  0  0  0  0
  151.6838  136.2908  188.6153 O   0  0  0  0  0  0  0  0  0  0  0  0
  151.8041  136.1954  190.8662 C   0  0  0  0  0  0  0  0  0  0  0  0
  149.3238  134.9557  188.4029 C   0  0  0  0  0  0  0  0  0  0  0  0
  148.1786  135.9111  188.1409 C   0  0  0  0  0  0  0  0  0  0  0  0
  148.1554  136.9425  189.0629 F   0  0  0  0  0  0  0  0  0  0  0  0
  146.9723  135.2398  188.1294 F   0  0  0  0  0  0  0  0  0  0  0  0
  148.3183  136.4968  186.9008 F   0  0  0  0  0  0  0  0  0  0  0  0
 22 23  1  0  0  0
 23  1  1  0  0  0
  1  2  2  0  0  0
  1  3  1  0  0  0
  3  5  1  0  0  0
  5  6  2  0  0  0
  6  7  1  0  0  0
  7  8  1  0  0  0
  8  9  2  0  0  0
  8 10  1  0  0  0
 10 11  2  0  0  0
 11 12  1  0  0  0
 12 13  2  0  0  0
 13 14  1  0  0  0
 14 15  2  0  0  0
 13 16  1  0  0  0
 16 17  1  0  0  0
 17 18  1  0  0  0
 18 19  1  0  0  0
 19 20  1  0  0  0
 20 21  1  0  0  0
 23 24  1  0  0  0
 24 25  1  0  0  0
 25 26  2  0  0  0
 26 27  1  0  0  0
 27 28  1  0  0  0
 28 29  1  0  0  0
 28 30  1  0  0  0
 30 31  2  0  0  0
 30 32  1  0  0  0
 32 36  1  0  0  0
 36 37  1  0  0  0
 37 38  1  0  0  0
 37 39  1  0  0  0
 37 40  1  0  0  0
 32 33  1  0  0  0
 33 34  2  0  0  0
 33 35  1  0  0  0
  9  5  1  0  0  0
 15 10  1  0  0  0
 21 16  1  0  0  0
 35 24  1  0  0  0
 20 18  1  0  0  0
 35 27  2  0  0  0
  3  4  1  0  0  0
M  END
> <minimizedAffinity>
-6.40202

> <CNNscore>
0.3163338900

> <CNNaffinity>
6.1812219620

> <CNN_VS>
1.9553300142

> <CNNaffinity_variance>
0.2272566259

$$$$
[H]c1nc(N2C([H])([H])C3([H])C([H])([H])C3([H])C2([H])[H])nc([H])c1-c1nc(N([H])C(=O)[C@@]([H])(n2c([H])nc3c2c(=O)n(C([H])([H])C(F)(F)F)c(=O)n3C([H])([H])[H])C([H])([H])[H])c([H])s1


 40 45  0  0  0  0  0  0  0  0999 V2000
  149.7173  136.5669  185.0985 C   0  0  0  0  0  0  0  0  0  0  0  0
  149.1141  135.3867  184.7878 O   0  0  0  0  0  0  0  0  0  0  0  0
  151.0351  136.3810  185.3720 N   0  0  0  0  0  0  0  0  0  0  0  0
  151.3168  135.2933  185.2708 H   0  0  0  0  0  0  0  0  0  0  0  0
  152.1619  137.1402  185.7829 C   0  0  0  0  0  0  0  0  0  0  0  0
  152.5892  137.3325  187.0663 C   0  0  0  0  0  0  0  0  0  0  0  0
  153.9316  138.3865  186.8781 S   0  0  0  0  0  0  0  0  0  0  0  0
  153.8854  138.5294  185.1827 C   0  0  0  0  0  0  0  0  0  0  0  0
  152.8803  137.7893  184.8621 N   0  0  0  0  0  0  0  0  0  0  0  0
  154.7798  139.3164  184.2963 C   0  0  0  0  0  0  0  0  0  0  0  0
  154.3675  139.9296  183.1484 C   0  0  0  0  0  0  0  0  0  0  0  0
  155.2761  140.6344  182.4042 N   0  0  0  0  0  0  0  0  0  0  0  0
  156.5625  140.7393  182.7724 C   0  0  0  0  0  0  0  0  0  0  0  0
  156.9518  140.1304  183.9039 N   0  0  0  0  0  0  0  0  0  0  0  0
  156.0898  139.4143  184.6854 C   0  0  0  0  0  0  0  0  0  0  0  0
  157.4750  141.4845  181.9655 N   0  0  0  0  0  0  0  0  0  0  0  0
  157.7599  142.9058  182.0154 C   0  0  0  0  0  0  0  0  0  0  0  0
  157.9965  143.3172  180.5965 C   0  0  0  0  0  0  0  0  0  0  0  0
  159.2601  143.0780  179.8903 C   0  0  0  0  0  0  0  0  0  0  0  0
  158.2100  141.9925  179.8491 C   0  0  0  0  0  0  0  0  0  0  0  0
  158.3027  140.9501  180.9263 C   0  0  0  0  0  0  0  0  0  0  0  0
  148.0423  137.9832  186.3227 C   0  0  0  0  0  0  0  0  0  0  0  0
  148.7809  137.7030  185.0494 C   0  0  0  0  0  0  0  0  0  0  0  0
  147.9561  137.7265  183.8819 N   0  0  0  0  0  0  0  0  0  0  0  0
  146.6337  137.5482  183.8425 C   0  0  0  0  0  0  0  0  0  0  0  0
  146.1645  137.6196  182.5878 N   0  0  0  0  0  0  0  0  0  0  0  0
  147.1962  137.8515  181.7514 C   0  0  0  0  0  0  0  0  0  0  0  0
  147.2973  138.0014  180.4185 N   0  0  0  0  0  0  0  0  0  0  0  0
  146.1301  137.9348  179.5708 C   0  0  0  0  0  0  0  0  0  0  0  0
  148.4977  138.2166  179.8619 C   0  0  0  0  0  0  0  0  0  0  0  0
  148.5881  138.3588  178.5947 O   0  0  0  0  0  0  0  0  0  0  0  0
  149.6113  138.2864  180.6063 N   0  0  0  0  0  0  0  0  0  0  0  0
  149.5098  138.1341  181.9643 C   0  0  0  0  0  0  0  0  0  0  0  0
  150.5534  138.1955  182.6735 O   0  0  0  0  0  0  0  0  0  0  0  0
  148.3165  137.9150  182.5843 C   0  0  0  0  0  0  0  0  0  0  0  0
  150.9034  138.5191  179.9958 C   0  0  0  0  0  0  0  0  0  0  0  0
  151.1996  139.9980  179.8615 C   0  0  0  0  0  0  0  0  0  0  0  0
  151.1380  140.4115  178.5425 F   0  0  0  0  0  0  0  0  0  0  0  0
  152.4280  140.3045  180.4119 F   0  0  0  0  0  0  0  0  0  0  0  0
  150.2613  140.7382  180.5488 F   0  0  0  0  0  0  0  0  0  0  0  0
 22 23  1  0  0  0
 23  1  1  0  0  0
  1  2  2  0  0  0
  1  3  1  0  0  0
  3  5  1  0  0  0
  5  6  2  0  0  0
  6  7  1  0  0  0
  7  8  1  0  0  0
  8  9  2  0  0  0
  8 10  1  0  0  0
 10 11  2  0  0  0
 11 12  1  0  0  0
 12 13  2  0  0  0
 13 14  1  0  0  0
 14 15  2  0  0  0
 13 16  1  0  0  0
 16 17  1  0  0  0
 17 18  1  0  0  0
 18 19  1  0  0  0
 19 20  1  0  0  0
 20 21  1  0  0  0
 23 24  1  0  0  0
 24 25  1  0  0  0
 25 26  2  0  0  0
 26 27  1  0  0  0
 27 28  1  0  0  0
 28 29  1  0  0  0
 28 30  1  0  0  0
 30 31  2  0  0  0
 30 32  1  0  0  0
 32 36  1  0  0  0
 36 37  1  0  0  0
 37 38  1  0  0  0
 37 39  1  0  0  0
 37 40  1  0  0  0
 32 33  1  0  0  0
 33 34  2  0  0  0
 33 35  1  0  0  0
  9  5  1  0  0  0
 15 10  1  0  0  0
 21 16  1  0  0  0
 35 24  1  0  0  0
 20 18  1  0  0  0
 35 27  2  0  0  0
  3  4  1  0  0  0
M  END
> <minimizedAffinity>
-8.35069

> <CNNscore>
0.3139174879

> <CNNaffinity>
6.7868185043

> <CNN_VS>
2.1305010319

> <CNNaffinity_variance>
0.2415980548

$$$$
[H]c1nc(N2C([H])([H])C3([H])C([H])([H])C3([H])C2([H])[H])nc([H])c1-c1nc(N([H])C(=O)[C@@]([H])(n2c([H])nc3c2c(=O)n(C([H])([H])C(F)(F)F)c(=O)n3C([H])([H])[H])C([H])([H])[H])c([H])s1


 40 45  0  0  0  0  0  0  0  0999 V2000
  151.1304  135.6486  185.4876 C   0  0  0  0  0  0  0  0  0  0  0  0
  151.2755  134.3186  185.7398 O   0  0  0  0  0  0  0  0  0  0  0  0
  151.3785  135.9244  184.1806 N   0  0  0  0  0  0  0  0  0  0  0  0
  151.6402  134.9845  183.6143 H   0  0  0  0  0  0  0  0  0  0  0  0
  151.4427  137.0483  183.3159 C   0  0  0  0  0  0  0  0  0  0  0  0
  150.5777  137.3439  182.3005 C   0  0  0  0  0  0  0  0  0  0  0  0
  151.2503  138.7676  181.6155 S   0  0  0  0  0  0  0  0  0  0  0  0
  152.5926  138.9180  182.6510 C   0  0  0  0  0  0  0  0  0  0  0  0
  152.4597  137.9062  183.4379 N   0  0  0  0  0  0  0  0  0  0  0  0
  153.6545  139.9561  182.6436 C   0  0  0  0  0  0  0  0  0  0  0  0
  153.5957  141.1008  181.9023 C   0  0  0  0  0  0  0  0  0  0  0  0
  154.6310  141.9951  181.9713 N   0  0  0  0  0  0  0  0  0  0  0  0
  155.7032  141.7772  182.7485 C   0  0  0  0  0  0  0  0  0  0  0  0
  155.7455  140.6465  183.4713 N   0  0  0  0  0  0  0  0  0  0  0  0
  154.7426  139.7193  183.4419 C   0  0  0  0  0  0  0  0  0  0  0  0
  156.7593  142.7374  182.7894 N   0  0  0  0  0  0  0  0  0  0  0  0
  156.7530  144.0976  182.2857 C   0  0  0  0  0  0  0  0  0  0  0  0
  158.1340  144.3375  181.7623 C   0  0  0  0  0  0  0  0  0  0  0  0
  159.2776  144.6515  182.6260 C   0  0  0  0  0  0  0  0  0  0  0  0
  158.9692  143.1963  182.3614 C   0  0  0  0  0  0  0  0  0  0  0  0
  158.0593  142.5288  183.3523 C   0  0  0  0  0  0  0  0  0  0  0  0
  149.5941  137.3482  186.5178 C   0  0  0  0  0  0  0  0  0  0  0  0
  150.7470  136.4068  186.6909 C   0  0  0  0  0  0  0  0  0  0  0  0
  151.8535  136.9677  187.4018 N   0  0  0  0  0  0  0  0  0  0  0  0
  152.7689  137.8053  186.9093 C   0  0  0  0  0  0  0  0  0  0  0  0
  153.6818  138.1362  187.8347 N   0  0  0  0  0  0  0  0  0  0  0  0
  153.3795  137.5054  188.9874 C   0  0  0  0  0  0  0  0  0  0  0  0
  153.9480  137.4717  190.2059 N   0  0  0  0  0  0  0  0  0  0  0  0
  155.1399  138.2348  190.4932 C   0  0  0  0  0  0  0  0  0  0  0  0
  153.4044  136.7200  191.1737 C   0  0  0  0  0  0  0  0  0  0  0  0
  153.9484  136.6919  192.3301 O   0  0  0  0  0  0  0  0  0  0  0  0
  152.2982  135.9932  190.9564 N   0  0  0  0  0  0  0  0  0  0  0  0
  151.7178  136.0267  189.7155 C   0  0  0  0  0  0  0  0  0  0  0  0
  150.6774  135.3433  189.5004 O   0  0  0  0  0  0  0  0  0  0  0  0
  152.2254  136.7735  188.6953 C   0  0  0  0  0  0  0  0  0  0  0  0
  151.7185  135.1843  192.0080 C   0  0  0  0  0  0  0  0  0  0  0  0
  150.7013  135.9629  192.8154 C   0  0  0  0  0  0  0  0  0  0  0  0
  150.6281  137.2822  192.4049 F   0  0  0  0  0  0  0  0  0  0  0  0
  150.9833  135.8867  194.1646 F   0  0  0  0  0  0  0  0  0  0  0  0
  149.4425  135.4281  192.6425 F   0  0  0  0  0  0  0  0  0  0  0  0
 22 23  1  0  0  0
 23  1  1  0  0  0
  1  2  2  0  0  0
  1  3  1  0  0  0
  3  5  1  0  0  0
  5  6  2  0  0  0
  6  7  1  0  0  0
  7  8  1  0  0  0
  8  9  2  0  0  0
  8 10  1  0  0  0
 10 11  2  0  0  0
 11 12  1  0  0  0
 12 13  2  0  0  0
 13 14  1  0  0  0
 14 15  2  0  0  0
 13 16  1  0  0  0
 16 17  1  0  0  0
 17 18  1  0  0  0
 18 19  1  0  0  0
 19 20  1  0  0  0
 20 21  1  0  0  0
 23 24  1  0  0  0
 24 25  1  0  0  0
 25 26  2  0  0  0
 26 27  1  0  0  0
 27 28  1  0  0  0
 28 29  1  0  0  0
 28 30  1  0  0  0
 30 31  2  0  0  0
 30 32  1  0  0  0
 32 36  1  0  0  0
 36 37  1  0  0  0
 37 38  1  0  0  0
 37 39  1  0  0  0
 37 40  1  0  0  0
 32 33  1  0  0  0
 33 34  2  0  0  0
 33 35  1  0  0  0
  9  5  1  0  0  0
 15 10  1  0  0  0
 21 16  1  0  0  0
 35 24  1  0  0  0
 20 18  1  0  0  0
 35 27  2  0  0  0
  3  4  1  0  0  0
M  END
> <minimizedAffinity>
-7.88324

> <CNNscore>
0.2904443741

> <CNNaffinity>
6.4795274734

> <CNN_VS>
1.8819422722

> <CNNaffinity_variance>
0.1019964591

$$$$
[H]c1nc(N2C([H])([H])C3([H])C([H])([H])C3([H])C2([H])[H])nc([H])c1-c1nc(N([H])C(=O)[C@@]([H])(n2c([H])nc3c2c(=O)n(C([H])([H])C(F)(F)F)c(=O)n3C([H])([H])[H])C([H])([H])[H])c([H])s1


 40 45  0  0  0  0  0  0  0  0999 V2000
  152.2095  137.4653  184.1084 C   0  0  0  0  0  0  0  0  0  0  0  0
  152.5614  137.8121  182.8398 O   0  0  0  0  0  0  0  0  0  0  0  0
  150.9763  136.8956  184.1312 N   0  0  0  0  0  0  0  0  0  0  0  0
  150.5400  136.8404  183.0924 H   0  0  0  0  0  0  0  0  0  0  0  0
  150.0520  136.3785  185.0763 C   0  0  0  0  0  0  0  0  0  0  0  0
  148.7438  136.0600  184.8444 C   0  0  0  0  0  0  0  0  0  0  0  0
  148.1802  135.5700  186.3906 S   0  0  0  0  0  0  0  0  0  0  0  0
  149.6306  135.7915  187.2530 C   0  0  0  0  0  0  0  0  0  0  0  0
  150.4405  136.2142  186.3441 N   0  0  0  0  0  0  0  0  0  0  0  0
  149.8932  135.5593  188.6961 C   0  0  0  0  0  0  0  0  0  0  0  0
  148.9223  135.5523  189.6556 C   0  0  0  0  0  0  0  0  0  0  0  0
  149.2738  135.3249  190.9598 N   0  0  0  0  0  0  0  0  0  0  0  0
  150.5480  135.1085  191.3215 C   0  0  0  0  0  0  0  0  0  0  0  0
  151.4908  135.1186  190.3656 N   0  0  0  0  0  0  0  0  0  0  0  0
  151.1987  135.3399  189.0495 C   0  0  0  0  0  0  0  0  0  0  0  0
  150.8685  134.8757  192.6934 N   0  0  0  0  0  0  0  0  0  0  0  0
  150.5055  135.6773  193.8464 C   0  0  0  0  0  0  0  0  0  0  0  0
  151.6762  135.5973  194.7747 C   0  0  0  0  0  0  0  0  0  0  0  0
  151.9349  134.4445  195.6445 C   0  0  0  0  0  0  0  0  0  0  0  0
  152.5000  134.4149  194.2437 C   0  0  0  0  0  0  0  0  0  0  0  0
  151.6307  133.7743  193.1999 C   0  0  0  0  0  0  0  0  0  0  0  0
  154.2040  138.8839  184.6744 C   0  0  0  0  0  0  0  0  0  0  0  0
  153.2557  137.8005  185.0898 C   0  0  0  0  0  0  0  0  0  0  0  0
  153.8940  136.6610  185.6713 N   0  0  0  0  0  0  0  0  0  0  0  0
  154.2907  135.5609  185.0276 C   0  0  0  0  0  0  0  0  0  0  0  0
  154.8455  134.6730  185.8662 N   0  0  0  0  0  0  0  0  0  0  0  0
  154.8242  135.1828  187.1141 C   0  0  0  0  0  0  0  0  0  0  0  0
  155.2320  134.7271  188.3121 N   0  0  0  0  0  0  0  0  0  0  0  0
  155.8557  133.4311  188.4431 C   0  0  0  0  0  0  0  0  0  0  0  0
  155.0599  135.4828  189.4058 C   0  0  0  0  0  0  0  0  0  0  0  0
  155.4497  135.0451  190.5418 O   0  0  0  0  0  0  0  0  0  0  0  0
  154.4857  136.6931  189.3362 N   0  0  0  0  0  0  0  0  0  0  0  0
  154.0700  137.1588  188.1164 C   0  0  0  0  0  0  0  0  0  0  0  0
  153.5256  138.2962  188.0412 O   0  0  0  0  0  0  0  0  0  0  0  0
  154.2206  136.4352  186.9719 C   0  0  0  0  0  0  0  0  0  0  0  0
  154.3042  137.5021  190.5231 C   0  0  0  0  0  0  0  0  0  0  0  0
  155.5170  138.3647  190.8022 C   0  0  0  0  0  0  0  0  0  0  0  0
  155.1624  139.5666  191.3887 F   0  0  0  0  0  0  0  0  0  0  0  0
  156.2419  138.5806  189.6473 F   0  0  0  0  0  0  0  0  0  0  0  0
  156.3617  137.7302  191.6879 F   0  0  0  0  0  0  0  0  0  0  0  0
 22 23  1  0  0  0
 23  1  1  0  0  0
  1  2  2  0  0  0
  1  3  1  0  0  0
  3  5  1  0  0  0
  5  6  2  0  0  0
  6  7  1  0  0  0
  7  8  1  0  0  0
  8  9  2  0  0  0
  8 10  1  0  0  0
 10 11  2  0  0  0
 11 12  1  0  0  0
 12 13  2  0  0  0
 13 14  1  0  0  0
 14 15  2  0  0  0
 13 16  1  0  0  0
 16 17  1  0  0  0
 17 18  1  0  0  0
 18 19  1  0  0  0
 19 20  1  0  0  0
 20 21  1  0  0  0
 23 24  1  0  0  0
 24 25  1  0  0  0
 25 26  2  0  0  0
 26 27  1  0  0  0
 27 28  1  0  0  0
 28 29  1  0  0  0
 28 30  1  0  0  0
 30 31  2  0  0  0
 30 32  1  0  0  0
 32 36  1  0  0  0
 36 37  1  0  0  0
 37 38  1  0  0  0
 37 39  1  0  0  0
 37 40  1  0  0  0
 32 33  1  0  0  0
 33 34  2  0  0  0
 33 35  1  0  0  0
  9  5  1  0  0  0
 15 10  1  0  0  0
 21 16  1  0  0  0
 35 24  1  0  0  0
 20 18  1  0  0  0
 35 27  2  0  0  0
  3  4  1  0  0  0
M  END
> <minimizedAffinity>
-6.54762

> <CNNscore>
0.2773576677

> <CNNaffinity>
6.2592496872

> <CNN_VS>
1.7360508442

> <CNNaffinity_variance>
0.2471878082

$$$$
[H]c1nc(N2C([H])([H])C3([H])C([H])([H])C3([H])C2([H])[H])nc([H])c1-c1nc(N([H])C(=O)[C@@]([H])(n2c([H])nc3c2c(=O)n(C([H])([H])C(F)(F)F)c(=O)n3C([H])([H])[H])C([H])([H])[H])c([H])s1


 40 45  0  0  0  0  0  0  0  0999 V2000
  150.6137  135.3606  192.4250 C   0  0  0  0  0  0  0  0  0  0  0  0
  150.0198  136.2151  193.3028 O   0  0  0  0  0  0  0  0  0  0  0  0
  150.1020  135.5152  191.1760 N   0  0  0  0  0  0  0  0  0  0  0  0
  149.3107  136.3190  191.1627 H   0  0  0  0  0  0  0  0  0  0  0  0
  150.2381  134.9436  189.8838 C   0  0  0  0  0  0  0  0  0  0  0  0
  150.1295  133.6196  189.5643 C   0  0  0  0  0  0  0  0  0  0  0  0
  150.4697  133.5940  187.8814 S   0  0  0  0  0  0  0  0  0  0  0  0
  150.7307  135.2620  187.6665 C   0  0  0  0  0  0  0  0  0  0  0  0
  150.5504  135.7334  188.8523 N   0  0  0  0  0  0  0  0  0  0  0  0
  151.0835  135.9899  186.4212 C   0  0  0  0  0  0  0  0  0  0  0  0
  152.3184  136.5142  186.1690 C   0  0  0  0  0  0  0  0  0  0  0  0
  152.5381  137.1660  184.9844 N   0  0  0  0  0  0  0  0  0  0  0  0
  151.5718  137.3040  184.0632 C   0  0  0  0  0  0  0  0  0  0  0  0
  150.3629  136.7826  184.3267 N   0  0  0  0  0  0  0  0  0  0  0  0
  150.0865  136.1226  185.4906 C   0  0  0  0  0  0  0  0  0  0  0  0
  151.8459  137.9913  182.8420 N   0  0  0  0  0  0  0  0  0  0  0  0
  152.9226  138.9213  182.5599 C   0  0  0  0  0  0  0  0  0  0  0  0
  152.3370  139.9452  181.6394 C   0  0  0  0  0  0  0  0  0  0  0  0
  152.1432  139.7176  180.2031 C   0  0  0  0  0  0  0  0  0  0  0  0
  151.0333  139.3043  181.1411 C   0  0  0  0  0  0  0  0  0  0  0  0
  151.0854  137.8863  181.6332 C   0  0  0  0  0  0  0  0  0  0  0  0
  152.2741  135.1038  194.2924 C   0  0  0  0  0  0  0  0  0  0  0  0
  151.6355  134.5181  193.0700 C   0  0  0  0  0  0  0  0  0  0  0  0
  152.5630  133.9270  192.1564 N   0  0  0  0  0  0  0  0  0  0  0  0
  152.7602  132.6211  191.9618 C   0  0  0  0  0  0  0  0  0  0  0  0
  153.7107  132.3987  191.0417 N   0  0  0  0  0  0  0  0  0  0  0  0
  154.1730  133.5856  190.5997 C   0  0  0  0  0  0  0  0  0  0  0  0
  155.1113  133.9433  189.7049 N   0  0  0  0  0  0  0  0  0  0  0  0
  155.8609  132.9489  188.9736 C   0  0  0  0  0  0  0  0  0  0  0  0
  155.3596  135.2420  189.4837 C   0  0  0  0  0  0  0  0  0  0  0  0
  156.2521  135.5766  188.6319 O   0  0  0  0  0  0  0  0  0  0  0  0
  154.6907  136.2031  190.1378 N   0  0  0  0  0  0  0  0  0  0  0  0
  153.7342  135.8401  191.0495 C   0  0  0  0  0  0  0  0  0  0  0  0
  153.1010  136.7382  191.6726 O   0  0  0  0  0  0  0  0  0  0  0  0
  153.4389  134.5366  191.3136 C   0  0  0  0  0  0  0  0  0  0  0  0
  154.9659  137.6032  189.8919 C   0  0  0  0  0  0  0  0  0  0  0  0
  156.0085  138.1438  190.8478 C   0  0  0  0  0  0  0  0  0  0  0  0
  156.3522  137.2086  191.8077 F   0  0  0  0  0  0  0  0  0  0  0  0
  155.5728  139.3127  191.4393 F   0  0  0  0  0  0  0  0  0  0  0  0
  157.1673  138.4517  190.1675 F   0  0  0  0  0  0  0  0  0  0  0  0
 22 23  1  0  0  0
 23  1  1  0  0  0
  1  2  2  0  0  0
  1  3  1  0  0  0
  3  5  1  0  0  0
  5  6  2  0  0  0
  6  7  1  0  0  0
  7  8  1  0  0  0
  8  9  2  0  0  0
  8 10  1  0  0  0
 10 11  2  0  0  0
 11 12  1  0  0  0
 12 13  2  0  0  0
 13 14  1  0  0  0
 14 15  2  0  0  0
 13 16  1  0  0  0
 16 17  1  0  0  0
 17 18  1  0  0  0
 18 19  1  0  0  0
 19 20  1  0  0  0
 20 21  1  0  0  0
 23 24  1  0  0  0
 24 25  1  0  0  0
 25 26  2  0  0  0
 26 27  1  0  0  0
 27 28  1  0  0  0
 28 29  1  0  0  0
 28 30  1  0  0  0
 30 31  2  0  0  0
 30 32  1  0  0  0
 32 36  1  0  0  0
 36 37  1  0  0  0
 37 38  1  0  0  0
 37 39  1  0  0  0
 37 40  1  0  0  0
 32 33  1  0  0  0
 33 34  2  0  0  0
 33 35  1  0  0  0
  9  5  1  0  0  0
 15 10  1  0  0  0
 21 16  1  0  0  0
 35 24  1  0  0  0
 20 18  1  0  0  0
 35 27  2  0  0  0
  3  4  1  0  0  0
M  END
> <minimizedAffinity>
-6.84239

> <CNNscore>
0.2737034559

> <CNNaffinity>
6.2118997574

> <CNN_VS>
1.7002184391

> <CNNaffinity_variance>
0.1088350862

$$$$
[H]c1nc(N2C([H])([H])C3([H])C([H])([H])C3([H])C2([H])[H])nc([H])c1-c1nc(N([H])C(=O)[C@@]([H])(n2c([H])nc3c2c(=O)n(C([H])([H])C(F)(F)F)c(=O)n3C([H])([H])[H])C([H])([H])[H])c([H])s1


 40 45  0  0  0  0  0  0  0  0999 V2000
  154.9270  137.6607  191.1553 C   0  0  0  0  0  0  0  0  0  0  0  0
  155.1247  138.9686  191.4774 O   0  0  0  0  0  0  0  0  0  0  0  0
  156.1080  136.9917  191.0965 N   0  0  0  0  0  0  0  0  0  0  0  0
  156.9709  137.6783  191.3342 H   0  0  0  0  0  0  0  0  0  0  0  0
  156.5893  135.6918  190.7903 C   0  0  0  0  0  0  0  0  0  0  0  0
  157.1231  134.7937  191.6707 C   0  0  0  0  0  0  0  0  0  0  0  0
  157.5657  133.4748  190.6642 S   0  0  0  0  0  0  0  0  0  0  0  0
  157.0506  134.1265  189.1787 C   0  0  0  0  0  0  0  0  0  0  0  0
  156.5842  135.2784  189.5198 N   0  0  0  0  0  0  0  0  0  0  0  0
  157.1260  133.5182  187.8261 C   0  0  0  0  0  0  0  0  0  0  0  0
  156.2587  133.8059  186.8120 C   0  0  0  0  0  0  0  0  0  0  0  0
  156.4202  133.1888  185.5998 N   0  0  0  0  0  0  0  0  0  0  0  0
  157.4087  132.3077  185.3807 C   0  0  0  0  0  0  0  0  0  0  0  0
  158.2531  132.0359  186.3886 N   0  0  0  0  0  0  0  0  0  0  0  0
  158.1403  132.6208  187.6180 C   0  0  0  0  0  0  0  0  0  0  0  0
  157.5390  131.6883  184.1008 N   0  0  0  0  0  0  0  0  0  0  0  0
  158.4436  130.6245  183.7085 C   0  0  0  0  0  0  0  0  0  0  0  0
  158.8350  130.9312  182.2974 C   0  0  0  0  0  0  0  0  0  0  0  0
  157.9762  130.6405  181.1439 C   0  0  0  0  0  0  0  0  0  0  0  0
  157.8040  131.9721  181.8365 C   0  0  0  0  0  0  0  0  0  0  0  0
  156.7776  132.0128  182.9322 C   0  0  0  0  0  0  0  0  0  0  0  0
  152.7243  137.0941  192.2218 C   0  0  0  0  0  0  0  0  0  0  0  0
  153.5016  137.3415  190.9648 C   0  0  0  0  0  0  0  0  0  0  0  0
  153.2528  136.3866  189.9303 N   0  0  0  0  0  0  0  0  0  0  0  0
  152.9809  135.0903  190.0974 C   0  0  0  0  0  0  0  0  0  0  0  0
  152.8095  134.4678  188.9216 N   0  0  0  0  0  0  0  0  0  0  0  0
  152.9704  135.3650  187.9281 C   0  0  0  0  0  0  0  0  0  0  0  0
  152.9187  135.2861  186.5864 N   0  0  0  0  0  0  0  0  0  0  0  0
  152.6272  134.0362  185.9243 C   0  0  0  0  0  0  0  0  0  0  0  0
  153.1400  136.3815  185.8460 C   0  0  0  0  0  0  0  0  0  0  0  0
  153.0892  136.3012  184.5712 O   0  0  0  0  0  0  0  0  0  0  0  0
  153.4149  137.5654  186.4136 N   0  0  0  0  0  0  0  0  0  0  0  0
  153.4677  137.6473  187.7804 C   0  0  0  0  0  0  0  0  0  0  0  0
  153.7287  138.7572  188.3241 O   0  0  0  0  0  0  0  0  0  0  0  0
  153.2498  136.5677  188.5826 C   0  0  0  0  0  0  0  0  0  0  0  0
  153.6525  138.7430  185.6055 C   0  0  0  0  0  0  0  0  0  0  0  0
  155.0946  138.8272  185.1513 C   0  0  0  0  0  0  0  0  0  0  0  0
  155.9507  138.2365  186.0637 F   0  0  0  0  0  0  0  0  0  0  0  0
  155.4597  140.1379  184.9175 F   0  0  0  0  0  0  0  0  0  0  0  0
  155.2618  138.1507  183.9618 F   0  0  0  0  0  0  0  0  0  0  0  0
 22 23  1  0  0  0
 23  1  1  0  0  0
  1  2  2  0  0  0
  1  3  1  0  0  0
  3  5  1  0  0  0
  5  6  2  0  0  0
  6  7  1  0  0  0
  7  8  1  0  0  0
  8  9  2  0  0  0
  8 10  1  0  0  0
 10 11  2  0  0  0
 11 12  1  0  0  0
 12 13  2  0  0  0
 13 14  1  0  0  0
 14 15  2  0  0  0
 13 16  1  0  0  0
 16 17  1  0  0  0
 17 18  1  0  0  0
 18 19  1  0  0  0
 19 20  1  0  0  0
 20 21  1  0  0  0
 23 24  1  0  0  0
 24 25  1  0  0  0
 25 26  2  0  0  0
 26 27  1  0  0  0
 27 28  1  0  0  0
 28 29  1  0  0  0
 28 30  1  0  0  0
 30 31  2  0  0  0
 30 32  1  0  0  0
 32 36  1  0  0  0
 36 37  1  0  0  0
 37 38  1  0  0  0
 37 39  1  0  0  0
 37 40  1  0  0  0
 32 33  1  0  0  0
 33 34  2  0  0  0
 33 35  1  0  0  0
  9  5  1  0  0  0
 15 10  1  0  0  0
 21 16  1  0  0  0
 35 24  1  0  0  0
 20 18  1  0  0  0
 35 27  2  0  0  0
  3  4  1  0  0  0
M  END
> <minimizedAffinity>
-5.88363

> <CNNscore>
0.2535038590

> <CNNaffinity>
6.1649961472

> <CNN_VS>
1.5628503561

> <CNNaffinity_variance>
0.2420134544

$$$$
[H]c1nc(N2C([H])([H])C3([H])C([H])([H])C3([H])C2([H])[H])nc([H])c1-c1nc(N([H])C(=O)[C@@]([H])(n2c([H])nc3c2c(=O)n(C([H])([H])C(F)(F)F)c(=O)n3C([H])([H])[H])C([H])([H])[H])c([H])s1


 40 45  0  0  0  0  0  0  0  0999 V2000
  152.7253  139.0307  182.3660 C   0  0  0  0  0  0  0  0  0  0  0  0
  152.1452  139.9895  181.5929 O   0  0  0  0  0  0  0  0  0  0  0  0
  153.4146  139.5888  183.3952 N   0  0  0  0  0  0  0  0  0  0  0  0
  153.3373  140.7139  183.3672 H   0  0  0  0  0  0  0  0  0  0  0  0
  154.2358  139.1834  184.4797 C   0  0  0  0  0  0  0  0  0  0  0  0
  155.6008  139.1247  184.4890 C   0  0  0  0  0  0  0  0  0  0  0  0
  155.9549  138.4963  186.0473 S   0  0  0  0  0  0  0  0  0  0  0  0
  154.3561  138.3410  186.6096 C   0  0  0  0  0  0  0  0  0  0  0  0
  153.6606  138.7630  185.6101 N   0  0  0  0  0  0  0  0  0  0  0  0
  153.8829  137.8387  187.9245 C   0  0  0  0  0  0  0  0  0  0  0  0
  154.4862  138.1310  189.1136 C   0  0  0  0  0  0  0  0  0  0  0  0
  153.9651  137.6165  190.2712 N   0  0  0  0  0  0  0  0  0  0  0  0
  152.8763  136.8318  190.2692 C   0  0  0  0  0  0  0  0  0  0  0  0
  152.2948  136.5540  189.0914 N   0  0  0  0  0  0  0  0  0  0  0  0
  152.7705  137.0390  187.9060 C   0  0  0  0  0  0  0  0  0  0  0  0
  152.3677  136.3175  191.5004 N   0  0  0  0  0  0  0  0  0  0  0  0
  151.3934  136.9217  192.3890 C   0  0  0  0  0  0  0  0  0  0  0  0
  151.8322  136.5569  193.7722 C   0  0  0  0  0  0  0  0  0  0  0  0
  151.5820  135.2427  194.3744 C   0  0  0  0  0  0  0  0  0  0  0  0
  152.8428  135.4199  193.5610 C   0  0  0  0  0  0  0  0  0  0  0  0
  152.7367  135.0724  192.1038 C   0  0  0  0  0  0  0  0  0  0  0  0
  151.2600  137.5484  180.9638 C   0  0  0  0  0  0  0  0  0  0  0  0
  152.4435  137.6709  181.8748 C   0  0  0  0  0  0  0  0  0  0  0  0
  152.5045  136.6628  182.8869 N   0  0  0  0  0  0  0  0  0  0  0  0
  153.5168  135.8207  183.1062 C   0  0  0  0  0  0  0  0  0  0  0  0
  153.2539  134.9900  184.1260 N   0  0  0  0  0  0  0  0  0  0  0  0
  152.0290  135.2743  184.6125 C   0  0  0  0  0  0  0  0  0  0  0  0
  151.2798  134.7600  185.6041 N   0  0  0  0  0  0  0  0  0  0  0  0
  151.7663  133.6698  186.4167 C   0  0  0  0  0  0  0  0  0  0  0  0
  150.0612  135.2628  185.8473 C   0  0  0  0  0  0  0  0  0  0  0  0
  149.3534  134.7706  186.7912 O   0  0  0  0  0  0  0  0  0  0  0  0
  149.5645  136.2748  185.1204 N   0  0  0  0  0  0  0  0  0  0  0  0
  150.3268  136.8000  184.1100 C   0  0  0  0  0  0  0  0  0  0  0  0
  149.8665  137.7513  183.4181 O   0  0  0  0  0  0  0  0  0  0  0  0
  151.5721  136.3300  183.8190 C   0  0  0  0  0  0  0  0  0  0  0  0
  148.2471  136.8112  185.3907 C   0  0  0  0  0  0  0  0  0  0  0  0
  148.2921  137.8998  186.4423 C   0  0  0  0  0  0  0  0  0  0  0  0
  147.6351  139.0421  186.0205 F   0  0  0  0  0  0  0  0  0  0  0  0
  149.5955  138.1885  186.7943 F   0  0  0  0  0  0  0  0  0  0  0  0
  147.6544  137.4820  187.5908 F   0  0  0  0  0  0  0  0  0  0  0  0
 22 23  1  0  0  0
 23  1  1  0  0  0
  1  2  2  0  0  0
  1  3  1  0  0  0
  3  5  1  0  0  0
  5  6  2  0  0  0
  6  7  1  0  0  0
  7  8  1  0  0  0
  8  9  2  0  0  0
  8 10  1  0  0  0
 10 11  2  0  0  0
 11 12  1  0  0  0
 12 13  2  0  0  0
 13 14  1  0  0  0
 14 15  2  0  0  0
 13 16  1  0  0  0
 16 17  1  0  0  0
 17 18  1  0  0  0
 18 19  1  0  0  0
 19 20  1  0  0  0
 20 21  1  0  0  0
 23 24  1  0  0  0
 24 25  1  0  0  0
 25 26  2  0  0  0
 26 27  1  0  0  0
 27 28  1  0  0  0
 28 29  1  0  0  0
 28 30  1  0  0  0
 30 31  2  0  0  0
 30 32  1  0  0  0
 32 36  1  0  0  0
 36 37  1  0  0  0
 37 38  1  0  0  0
 37 39  1  0  0  0
 37 40  1  0  0  0
 32 33  1  0  0  0
 33 34  2  0  0  0
 33 35  1  0  0  0
  9  5  1  0  0  0
 15 10  1  0  0  0
 21 16  1  0  0  0
 35 24  1  0  0  0
 20 18  1  0  0  0
 35 27  2  0  0  0
  3  4  1  0  0  0
M  END
> <minimizedAffinity>
-6.09871

> <CNNscore>
0.2491048425

> <CNNaffinity>
6.1612162590

> <CNN_VS>
1.5347888470

> <CNNaffinity_variance>
0.3938632011

$$$$
[H]c1s/c(=N\C(=O)C([H])([H])c2c(C([H])([H])[H])oc3c2c(=O)n(C([H])([H])[H])c(=O)n3C([H])([H])[H])n(C([H])([H])OC(=O)C([H])([H])N([H])[H])c1-c1c([H])c([H])c(OC(F)(F)F)c(Cl)c1[H]


 43 46  0  0  0  0  0  0  0  0999 V2000
  151.6458  136.7376  187.3237 N   0  0  0  0  0  0  0  0  0  0  0  0
  152.2005  137.2557  186.2647 C   0  0  0  0  0  0  0  0  0  0  0  0
  151.8311  136.8216  184.6911 S   0  0  0  0  0  0  0  0  0  0  0  0
  152.8991  137.8558  183.8870 C   0  0  0  0  0  0  0  0  0  0  0  0
  153.5443  138.5418  184.9361 C   0  0  0  0  0  0  0  0  0  0  0  0
  153.1578  138.2087  186.1480 N   0  0  0  0  0  0  0  0  0  0  0  0
  154.6299  139.4462  184.5009 C   0  0  0  0  0  0  0  0  0  0  0  0
  155.9315  139.1560  184.6352 C   0  0  0  0  0  0  0  0  0  0  0  0
  156.9233  140.0237  184.1272 C   0  0  0  0  0  0  0  0  0  0  0  0
  156.6127  141.1831  183.4857 C   0  0  0  0  0  0  0  0  0  0  0  0
  155.2826  141.5026  183.3370 C   0  0  0  0  0  0  0  0  0  0  0  0
  154.8312  142.9929  182.5073 Cl  0  0  0  0  0  0  0  0  0  0  0  0
  154.3294  140.6433  183.8385 C   0  0  0  0  0  0  0  0  0  0  0  0
  157.5868  142.0345  182.9871 O   0  0  0  0  0  0  0  0  0  0  0  0
  158.1299  141.9897  181.7053 C   0  0  0  0  0  0  0  0  0  0  0  0
  157.6996  143.0114  180.8911 F   0  0  0  0  0  0  0  0  0  0  0  0
  159.5127  141.9558  181.7207 F   0  0  0  0  0  0  0  0  0  0  0  0
  157.6913  140.8119  181.1138 F   0  0  0  0  0  0  0  0  0  0  0  0
  150.6495  135.7281  187.2114 C   0  0  0  0  0  0  0  0  0  0  0  0
  149.6733  136.0388  186.4434 O   0  0  0  0  0  0  0  0  0  0  0  0
  150.6927  134.4265  187.8977 C   0  0  0  0  0  0  0  0  0  0  0  0
  147.7197  134.3995  188.9911 C   0  0  0  0  0  0  0  0  0  0  0  0
  148.9749  134.6052  189.7393 C   0  0  0  0  0  0  0  0  0  0  0  0
  148.9919  134.8176  191.0536 O   0  0  0  0  0  0  0  0  0  0  0  0
  150.1980  134.9698  191.4899 C   0  0  0  0  0  0  0  0  0  0  0  0
  150.7571  135.2032  192.7060 N   0  0  0  0  0  0  0  0  0  0  0  0
  149.8833  135.3280  193.8546 C   0  0  0  0  0  0  0  0  0  0  0  0
  152.0991  135.3158  192.8387 C   0  0  0  0  0  0  0  0  0  0  0  0
  152.5769  135.5327  193.9858 O   0  0  0  0  0  0  0  0  0  0  0  0
  152.9512  135.2087  191.8120 N   0  0  0  0  0  0  0  0  0  0  0  0
  154.3864  135.3276  191.9488 C   0  0  0  0  0  0  0  0  0  0  0  0
  152.4190  134.9765  190.5921 C   0  0  0  0  0  0  0  0  0  0  0  0
  153.1817  134.8705  189.6096 O   0  0  0  0  0  0  0  0  0  0  0  0
  151.0712  134.8561  190.4129 C   0  0  0  0  0  0  0  0  0  0  0  0
  150.2841  134.6257  189.3124 C   0  0  0  0  0  0  0  0  0  0  0  0
  153.6982  138.7608  187.4212 C   0  0  0  0  0  0  0  0  0  0  0  0
  154.8827  138.1229  187.8094 O   0  0  0  0  0  0  0  0  0  0  0  0
  155.1555  138.0895  189.1694 C   0  0  0  0  0  0  0  0  0  0  0  0
  154.2122  138.1825  190.0227 O   0  0  0  0  0  0  0  0  0  0  0  0
  156.5280  137.9472  189.7081 C   0  0  0  0  0  0  0  0  0  0  0  0
  156.5182  138.1812  191.1250 N   0  0  0  0  0  0  0  0  0  0  0  0
  155.8346  138.9455  191.3258 H   0  0  0  0  0  0  0  0  0  0  0  0
  157.4739  138.5174  191.4032 H   0  0  0  0  0  0  0  0  0  0  0  0
 22 23  1  0  0  0
 23 24  1  0  0  0
 24 25  1  0  0  0
 25 26  1  0  0  0
 26 27  1  0  0  0
 26 28  1  0  0  0
 28 29  2  0  0  0
 28 30  1  0  0  0
 30 31  1  0  0  0
 30 32  1  0  0  0
 32 33  2  0  0  0
 32 34  1  0  0  0
 34 35  1  0  0  0
 35 21  1  0  0  0
 21 19  1  0  0  0
 19 20  2  0  0  0
 19  1  1  0  0  0
  1  2  2  0  0  0
  2  3  1  0  0  0
  3  4  1  0  0  0
  4  5  2  0  0  0
  5  7  1  0  0  0
  7  8  2  0  0  0
  8  9  1  0  0  0
  9 10  2  0  0  0
 10 14  1  0  0  0
 14 15  1  0  0  0
 15 16  1  0  0  0
 15 17  1  0  0  0
 15 18  1  0  0  0
 10 11  1  0  0  0
 11 12  1  0  0  0
 11 13  2  0  0  0
  5  6  1  0  0  0
  6 36  1  0  0  0
 36 37  1  0  0  0
 37 38  1  0  0  0
 38 39  2  0  0  0
 38 40  1  0  0  0
 40 41  1  0  0  0
 35 23  2  0  0  0
  6  2  1  0  0  0
 34 25  2  0  0  0
 13  7  1  0  0  0
 41 42  1  0  0  0
 41 43  1  0  0  0
M  END
> <minimizedAffinity>
-7.04465

> <CNNscore>
0.3215024769

> <CNNaffinity>
6.4721512794

> <CNN_VS>
2.0808126926

> <CNNaffinity_variance>
0.1141761914

$$$$
[H]c1s/c(=N\C(=O)C([H])([H])c2c(C([H])([H])[H])oc3c2c(=O)n(C([H])([H])[H])c(=O)n3C([H])([H])[H])n(C([H])([H])OC(=O)C([H])([H])N([H])[H])c1-c1c([H])c([H])c(OC(F)(F)F)c(Cl)c1[H]


 43 46  0  0  0  0  0  0  0  0999 V2000
  151.4247  136.7775  185.0694 N   0  0  0  0  0  0  0  0  0  0  0  0
  152.4159  137.6229  185.0865 C   0  0  0  0  0  0  0  0  0  0  0  0
  153.1465  138.2010  186.4769 S   0  0  0  0  0  0  0  0  0  0  0  0
  154.2926  139.2134  185.7571 C   0  0  0  0  0  0  0  0  0  0  0  0
  154.0494  139.0562  184.3774 C   0  0  0  0  0  0  0  0  0  0  0  0
  153.0765  138.2272  184.0683 N   0  0  0  0  0  0  0  0  0  0  0  0
  154.8590  139.9361  183.5080 C   0  0  0  0  0  0  0  0  0  0  0  0
  154.3725  141.0308  182.9068 C   0  0  0  0  0  0  0  0  0  0  0  0
  155.2144  141.8777  182.1526 C   0  0  0  0  0  0  0  0  0  0  0  0
  156.5434  141.6284  181.9988 C   0  0  0  0  0  0  0  0  0  0  0  0
  157.0652  140.5094  182.6061 C   0  0  0  0  0  0  0  0  0  0  0  0
  158.7842  140.1481  182.4393 Cl  0  0  0  0  0  0  0  0  0  0  0  0
  156.2285  139.6957  183.3383 C   0  0  0  0  0  0  0  0  0  0  0  0
  157.3695  142.4603  181.2585 O   0  0  0  0  0  0  0  0  0  0  0  0
  157.9806  143.6234  181.7208 C   0  0  0  0  0  0  0  0  0  0  0  0
  157.0936  144.6401  181.9882 F   0  0  0  0  0  0  0  0  0  0  0  0
  158.7766  143.3948  182.8288 F   0  0  0  0  0  0  0  0  0  0  0  0
  158.8058  144.0865  180.7039 F   0  0  0  0  0  0  0  0  0  0  0  0
  150.8734  136.2678  186.2779 C   0  0  0  0  0  0  0  0  0  0  0  0
  149.8971  136.9557  186.7394 O   0  0  0  0  0  0  0  0  0  0  0  0
  151.3491  135.0608  186.9736 C   0  0  0  0  0  0  0  0  0  0  0  0
  148.5337  133.9005  187.8470 C   0  0  0  0  0  0  0  0  0  0  0  0
  149.5643  134.5456  188.6834 C   0  0  0  0  0  0  0  0  0  0  0  0
  149.4077  134.7219  189.9938 O   0  0  0  0  0  0  0  0  0  0  0  0
  150.4350  135.3054  190.5159 C   0  0  0  0  0  0  0  0  0  0  0  0
  150.7786  135.7060  191.7679 N   0  0  0  0  0  0  0  0  0  0  0  0
  149.8431  135.4711  192.8486 C   0  0  0  0  0  0  0  0  0  0  0  0
  151.9677  136.3100  191.9975 C   0  0  0  0  0  0  0  0  0  0  0  0
  152.2472  136.6663  193.1748 O   0  0  0  0  0  0  0  0  0  0  0  0
  152.8679  136.5507  191.0365 N   0  0  0  0  0  0  0  0  0  0  0  0
  154.1404  137.1952  191.2769 C   0  0  0  0  0  0  0  0  0  0  0  0
  152.5488  136.1614  189.7827 C   0  0  0  0  0  0  0  0  0  0  0  0
  153.3629  136.3687  188.8594 O   0  0  0  0  0  0  0  0  0  0  0  0
  151.3607  135.5490  189.5064 C   0  0  0  0  0  0  0  0  0  0  0  0
  150.7970  135.0634  188.3531 C   0  0  0  0  0  0  0  0  0  0  0  0
  152.6035  137.9079  182.6928 C   0  0  0  0  0  0  0  0  0  0  0  0
  151.6340  138.8146  182.2471 O   0  0  0  0  0  0  0  0  0  0  0  0
  151.7248  139.2236  180.9243 C   0  0  0  0  0  0  0  0  0  0  0  0
  152.8327  139.1493  180.2970 O   0  0  0  0  0  0  0  0  0  0  0  0
  150.5684  139.7608  180.1705 C   0  0  0  0  0  0  0  0  0  0  0  0
  150.9994  140.2031  178.8739 N   0  0  0  0  0  0  0  0  0  0  0  0
  151.9465  140.6331  178.9730 H   0  0  0  0  0  0  0  0  0  0  0  0
  150.3348  140.9496  178.5502 H   0  0  0  0  0  0  0  0  0  0  0  0
 22 23  1  0  0  0
 23 24  1  0  0  0
 24 25  1  0  0  0
 25 26  1  0  0  0
 26 27  1  0  0  0
 26 28  1  0  0  0
 28 29  2  0  0  0
 28 30  1  0  0  0
 30 31  1  0  0  0
 30 32  1  0  0  0
 32 33  2  0  0  0
 32 34  1  0  0  0
 34 35  1  0  0  0
 35 21  1  0  0  0
 21 19  1  0  0  0
 19 20  2  0  0  0
 19  1  1  0  0  0
  1  2  2  0  0  0
  2  3  1  0  0  0
  3  4  1  0  0  0
  4  5  2  0  0  0
  5  7  1  0  0  0
  7  8  2  0  0  0
  8  9  1  0  0  0
  9 10  2  0  0  0
 10 14  1  0  0  0
 14 15  1  0  0  0
 15 16  1  0  0  0
 15 17  1  0  0  0
 15 18  1  0  0  0
 10 11  1  0  0  0
 11 12  1  0  0  0
 11 13  2  0  0  0
  5  6  1  0  0  0
  6 36  1  0  0  0
 36 37  1  0  0  0
 37 38  1  0  0  0
 38 39  2  0  0  0
 38 40  1  0  0  0
 40 41  1  0  0  0
 35 23  2  0  0  0
  6  2  1  0  0  0
 34 25  2  0  0  0
 13  7  1  0  0  0
 41 42  1  0  0  0
 41 43  1  0  0  0
M  END
> <minimizedAffinity>
-7.43684

> <CNNscore>
0.2340310216

> <CNNaffinity>
6.3030729294

> <CNN_VS>
1.4751145840

> <CNNaffinity_variance>
0.1152964383

$$$$
[H]c1s/c(=N\C(=O)C([H])([H])c2c(C([H])([H])[H])oc3c2c(=O)n(C([H])([H])[H])c(=O)n3C([H])([H])[H])n(C([H])([H])OC(=O)C([H])([H])N([H])[H])c1-c1c([H])c([H])c(OC(F)(F)F)c(Cl)c1[H]


 43 46  0  0  0  0  0  0  0  0999 V2000
  155.4595  138.1032  186.8322 N   0  0  0  0  0  0  0  0  0  0  0  0
  155.4828  136.8455  187.1717 C   0  0  0  0  0  0  0  0  0  0  0  0
  154.6619  135.6296  186.3661 S   0  0  0  0  0  0  0  0  0  0  0  0
  155.1324  134.3250  187.3323 C   0  0  0  0  0  0  0  0  0  0  0  0
  155.9602  134.9194  188.3064 C   0  0  0  0  0  0  0  0  0  0  0  0
  156.1202  136.2196  188.1916 N   0  0  0  0  0  0  0  0  0  0  0  0
  156.4241  133.9955  189.3632 C   0  0  0  0  0  0  0  0  0  0  0  0
  155.6450  133.5722  190.3684 C   0  0  0  0  0  0  0  0  0  0  0  0
  156.1194  132.6260  191.3035 C   0  0  0  0  0  0  0  0  0  0  0  0
  157.3744  132.1042  191.2337 C   0  0  0  0  0  0  0  0  0  0  0  0
  158.1928  132.5249  190.2107 C   0  0  0  0  0  0  0  0  0  0  0  0
  159.8265  131.8720  190.0762 Cl  0  0  0  0  0  0  0  0  0  0  0  0
  157.7121  133.4478  189.3076 C   0  0  0  0  0  0  0  0  0  0  0  0
  157.8395  131.1752  192.1519 O   0  0  0  0  0  0  0  0  0  0  0  0
  158.5315  131.4651  193.3254 C   0  0  0  0  0  0  0  0  0  0  0  0
  158.7366  132.8108  193.5232 F   0  0  0  0  0  0  0  0  0  0  0  0
  157.9272  130.9159  194.4419 F   0  0  0  0  0  0  0  0  0  0  0  0
  159.7924  130.8937  193.2111 F   0  0  0  0  0  0  0  0  0  0  0  0
  154.7057  138.5471  185.7102 C   0  0  0  0  0  0  0  0  0  0  0  0
  153.6202  139.1537  186.0152 O   0  0  0  0  0  0  0  0  0  0  0  0
  155.0975  138.3497  184.3049 C   0  0  0  0  0  0  0  0  0  0  0  0
  152.8741  139.8004  182.5766 C   0  0  0  0  0  0  0  0  0  0  0  0
  154.2304  140.2720  182.9168 C   0  0  0  0  0  0  0  0  0  0  0  0
  154.6989  141.4471  182.5013 O   0  0  0  0  0  0  0  0  0  0  0  0
  155.9046  141.6470  182.9193 C   0  0  0  0  0  0  0  0  0  0  0  0
  156.8134  142.6482  182.7865 N   0  0  0  0  0  0  0  0  0  0  0  0
  156.4454  143.8159  182.0123 C   0  0  0  0  0  0  0  0  0  0  0  0
  158.0331  142.5546  183.3652 C   0  0  0  0  0  0  0  0  0  0  0  0
  158.8471  143.5068  183.2169 O   0  0  0  0  0  0  0  0  0  0  0  0
  158.4240  141.4997  184.0904 N   0  0  0  0  0  0  0  0  0  0  0  0
  159.7263  141.3952  184.7115 C   0  0  0  0  0  0  0  0  0  0  0  0
  157.5374  140.4908  184.2368 C   0  0  0  0  0  0  0  0  0  0  0  0
  157.8654  139.4896  184.9063 O   0  0  0  0  0  0  0  0  0  0  0  0
  156.2966  140.5436  183.6704 C   0  0  0  0  0  0  0  0  0  0  0  0
  155.2282  139.6822  183.6604 C   0  0  0  0  0  0  0  0  0  0  0  0
  156.9181  137.0864  189.1025 C   0  0  0  0  0  0  0  0  0  0  0  0
  156.1045  137.8282  189.9678 O   0  0  0  0  0  0  0  0  0  0  0  0
  155.7293  137.2108  191.1525 C   0  0  0  0  0  0  0  0  0  0  0  0
  156.6031  136.9062  192.0301 O   0  0  0  0  0  0  0  0  0  0  0  0
  154.3224  136.8725  191.4691 C   0  0  0  0  0  0  0  0  0  0  0  0
  153.4910  137.1468  190.3308 N   0  0  0  0  0  0  0  0  0  0  0  0
  153.8456  138.0138  189.8679 H   0  0  0  0  0  0  0  0  0  0  0  0
  152.5187  137.3382  190.6799 H   0  0  0  0  0  0  0  0  0  0  0  0
 22 23  1  0  0  0
 23 24  1  0  0  0
 24 25  1  0  0  0
 25 26  1  0  0  0
 26 27  1  0  0  0
 26 28  1  0  0  0
 28 29  2  0  0  0
 28 30  1  0  0  0
 30 31  1  0  0  0
 30 32  1  0  0  0
 32 33  2  0  0  0
 32 34  1  0  0  0
 34 35  1  0  0  0
 35 21  1  0  0  0
 21 19  1  0  0  0
 19 20  2  0  0  0
 19  1  1  0  0  0
  1  2  2  0  0  0
  2  3  1  0  0  0
  3  4  1  0  0  0
  4  5  2  0  0  0
  5  7  1  0  0  0
  7  8  2  0  0  0
  8  9  1  0  0  0
  9 10  2  0  0  0
 10 14  1  0  0  0
 14 15  1  0  0  0
 15 16  1  0  0  0
 15 17  1  0  0  0
 15 18  1  0  0  0
 10 11  1  0  0  0
 11 12  1  0  0  0
 11 13  2  0  0  0
  5  6  1  0  0  0
  6 36  1  0  0  0
 36 37  1  0  0  0
 37 38  1  0  0  0
 38 39  2  0  0  0
 38 40  1  0  0  0
 40 41  1  0  0  0
 35 23  2  0  0  0
  6  2  1  0  0  0
 34 25  2  0  0  0
 13  7  1  0  0  0
 41 42  1  0  0  0
 41 43  1  0  0  0
M  END
> <minimizedAffinity>
-7.00092

> <CNNscore>
0.2236312330

> <CNNaffinity>
6.4134531021

> <CNN_VS>
1.4342484474

> <CNNaffinity_variance>
0.2278229892

$$$$
[H]c1s/c(=N\C(=O)C([H])([H])c2c(C([H])([H])[H])oc3c2c(=O)n(C([H])([H])[H])c(=O)n3C([H])([H])[H])n(C([H])([H])OC(=O)C([H])([H])N([H])[H])c1-c1c([H])c([H])c(OC(F)(F)F)c(Cl)c1[H]


 43 46  0  0  0  0  0  0  0  0999 V2000
  155.9796  136.9937  187.5219 N   0  0  0  0  0  0  0  0  0  0  0  0
  155.0287  136.5787  186.7336 C   0  0  0  0  0  0  0  0  0  0  0  0
  154.4154  135.0215  186.7245 S   0  0  0  0  0  0  0  0  0  0  0  0
  153.2695  135.2093  185.4962 C   0  0  0  0  0  0  0  0  0  0  0  0
  153.4159  136.5583  185.1140 C   0  0  0  0  0  0  0  0  0  0  0  0
  154.3302  137.2344  185.7743 N   0  0  0  0  0  0  0  0  0  0  0  0
  152.5901  136.9603  183.9554 C   0  0  0  0  0  0  0  0  0  0  0  0
  153.0314  136.9365  182.6900 C   0  0  0  0  0  0  0  0  0  0  0  0
  152.1706  137.2550  181.6165 C   0  0  0  0  0  0  0  0  0  0  0  0
  150.8681  137.5988  181.8093 C   0  0  0  0  0  0  0  0  0  0  0  0
  150.3928  137.6312  183.1003 C   0  0  0  0  0  0  0  0  0  0  0  0
  148.7092  138.0661  183.3991 Cl  0  0  0  0  0  0  0  0  0  0  0  0
  151.2473  137.3166  184.1343 C   0  0  0  0  0  0  0  0  0  0  0  0
  150.0234  137.9113  180.7551 O   0  0  0  0  0  0  0  0  0  0  0  0
  149.8684  139.1706  180.1806 C   0  0  0  0  0  0  0  0  0  0  0  0
  148.9111  139.9413  180.7983 F   0  0  0  0  0  0  0  0  0  0  0  0
  151.0602  139.8697  180.1159 F   0  0  0  0  0  0  0  0  0  0  0  0
  149.4283  138.9768  178.8775 F   0  0  0  0  0  0  0  0  0  0  0  0
  156.5856  136.1182  188.4655 C   0  0  0  0  0  0  0  0  0  0  0  0
  157.0593  135.0440  187.9544 O   0  0  0  0  0  0  0  0  0  0  0  0
  156.6833  136.3800  189.9108 C   0  0  0  0  0  0  0  0  0  0  0  0
  154.6865  138.8167  190.2429 C   0  0  0  0  0  0  0  0  0  0  0  0
  154.4866  137.4036  190.6184 C   0  0  0  0  0  0  0  0  0  0  0  0
  153.3596  136.9703  191.1796 O   0  0  0  0  0  0  0  0  0  0  0  0
  153.4112  135.7022  191.4199 C   0  0  0  0  0  0  0  0  0  0  0  0
  152.5611  134.7925  191.9635 N   0  0  0  0  0  0  0  0  0  0  0  0
  151.2610  135.2458  192.4136 C   0  0  0  0  0  0  0  0  0  0  0  0
  152.9225  133.4936  192.0804 C   0  0  0  0  0  0  0  0  0  0  0  0
  152.1031  132.6819  192.5911 O   0  0  0  0  0  0  0  0  0  0  0  0
  154.1098  133.0218  191.6809 N   0  0  0  0  0  0  0  0  0  0  0  0
  154.5005  131.6344  191.8031 C   0  0  0  0  0  0  0  0  0  0  0  0
  154.9727  133.9077  191.1369 C   0  0  0  0  0  0  0  0  0  0  0  0
  156.0901  133.5056  190.7523 O   0  0  0  0  0  0  0  0  0  0  0  0
  154.6493  135.2267  190.9999 C   0  0  0  0  0  0  0  0  0  0  0  0
  155.3188  136.3133  190.4953 C   0  0  0  0  0  0  0  0  0  0  0  0
  154.6989  138.6592  185.5467 C   0  0  0  0  0  0  0  0  0  0  0  0
  155.5110  138.8175  184.4170 O   0  0  0  0  0  0  0  0  0  0  0  0
  155.4287  140.0347  183.7561 C   0  0  0  0  0  0  0  0  0  0  0  0
  156.4830  140.7026  183.4931 O   0  0  0  0  0  0  0  0  0  0  0  0
  154.1415  140.6256  183.3224 C   0  0  0  0  0  0  0  0  0  0  0  0
  153.9352  140.3633  181.9256 N   0  0  0  0  0  0  0  0  0  0  0  0
  154.8582  140.4291  181.4404 H   0  0  0  0  0  0  0  0  0  0  0  0
  153.3119  141.1182  181.5441 H   0  0  0  0  0  0  0  0  0  0  0  0
 22 23  1  0  0  0
 23 24  1  0  0  0
 24 25  1  0  0  0
 25 26  1  0  0  0
 26 27  1  0  0  0
 26 28  1  0  0  0
 28 29  2  0  0  0
 28 30  1  0  0  0
 30 31  1  0  0  0
 30 32  1  0  0  0
 32 33  2  0  0  0
 32 34  1  0  0  0
 34 35  1  0  0  0
 35 21  1  0  0  0
 21 19  1  0  0  0
 19 20  2  0  0  0
 19  1  1  0  0  0
  1  2  2  0  0  0
  2  3  1  0  0  0
  3  4  1  0  0  0
  4  5  2  0  0  0
  5  7  1  0  0  0
  7  8  2  0  0  0
  8  9  1  0  0  0
  9 10  2  0  0  0
 10 14  1  0  0  0
 14 15  1  0  0  0
 15 16  1  0  0  0
 15 17  1  0  0  0
 15 18  1  0  0  0
 10 11  1  0  0  0
 11 12  1  0  0  0
 11 13  2  0  0  0
  5  6  1  0  0  0
  6 36  1  0  0  0
 36 37  1  0  0  0
 37 38  1  0  0  0
 38 39  2  0  0  0
 38 40  1  0  0  0
 40 41  1  0  0  0
 35 23  2  0  0  0
  6  2  1  0  0  0
 34 25  2  0  0  0
 13  7  1  0  0  0
 41 42  1  0  0  0
 41 43  1  0  0  0
M  END
> <minimizedAffinity>
-6.16244

> <CNNscore>
0.2203970850

> <CNNaffinity>
6.2499132156

> <CNN_VS>
1.3774626255

> <CNNaffinity_variance>
0.2639607489

$$$$
[H]c1s/c(=N\C(=O)C([H])([H])c2c(C([H])([H])[H])oc3c2c(=O)n(C([H])([H])[H])c(=O)n3C([H])([H])[H])n(C([H])([H])OC(=O)C([H])([H])N([H])[H])c1-c1c([H])c([H])c(OC(F)(F)F)c(Cl)c1[H]


 43 46  0  0  0  0  0  0  0  0999 V2000
  153.1861  135.6390  187.1038 N   0  0  0  0  0  0  0  0  0  0  0  0
  153.2424  136.5285  186.1534 C   0  0  0  0  0  0  0  0  0  0  0  0
  152.1987  136.5885  184.8464 S   0  0  0  0  0  0  0  0  0  0  0  0
  152.8521  137.9367  184.0639 C   0  0  0  0  0  0  0  0  0  0  0  0
  153.9244  138.3129  184.8981 C   0  0  0  0  0  0  0  0  0  0  0  0
  154.0948  137.5663  185.9670 N   0  0  0  0  0  0  0  0  0  0  0  0
  154.7494  139.4219  184.3734 C   0  0  0  0  0  0  0  0  0  0  0  0
  154.2365  140.5768  183.9265 C   0  0  0  0  0  0  0  0  0  0  0  0
  155.0795  141.6314  183.5121 C   0  0  0  0  0  0  0  0  0  0  0  0
  156.4363  141.5302  183.5435 C   0  0  0  0  0  0  0  0  0  0  0  0
  156.9857  140.3531  183.9977 C   0  0  0  0  0  0  0  0  0  0  0  0
  158.7402  140.1773  184.0617 Cl  0  0  0  0  0  0  0  0  0  0  0  0
  156.1473  139.3359  184.3984 C   0  0  0  0  0  0  0  0  0  0  0  0
  157.2634  142.5660  183.1367 O   0  0  0  0  0  0  0  0  0  0  0  0
  157.3771  143.0560  181.8379 C   0  0  0  0  0  0  0  0  0  0  0  0
  158.6013  143.6233  181.5708 F   0  0  0  0  0  0  0  0  0  0  0  0
  157.0905  142.0943  180.8858 F   0  0  0  0  0  0  0  0  0  0  0  0
  156.4404  144.0721  181.6983 F   0  0  0  0  0  0  0  0  0  0  0  0
  152.1954  134.6178  187.0959 C   0  0  0  0  0  0  0  0  0  0  0  0
  152.5308  133.5676  186.4448 O   0  0  0  0  0  0  0  0  0  0  0  0
  150.8861  134.7138  187.7621 C   0  0  0  0  0  0  0  0  0  0  0  0
  149.9967  131.6856  188.0343 C   0  0  0  0  0  0  0  0  0  0  0  0
  150.5308  132.5863  189.0742 C   0  0  0  0  0  0  0  0  0  0  0  0
  150.7088  132.1912  190.3332 O   0  0  0  0  0  0  0  0  0  0  0  0
  151.1850  133.1450  191.0625 C   0  0  0  0  0  0  0  0  0  0  0  0
  151.5385  133.2704  192.3684 N   0  0  0  0  0  0  0  0  0  0  0  0
  151.3856  132.1220  193.2380 C   0  0  0  0  0  0  0  0  0  0  0  0
  152.0222  134.4417  192.8432 C   0  0  0  0  0  0  0  0  0  0  0  0
  152.3383  134.5152  194.0621 O   0  0  0  0  0  0  0  0  0  0  0  0
  152.1838  135.5323  192.0842 N   0  0  0  0  0  0  0  0  0  0  0  0
  152.7010  136.7863  192.5867 C   0  0  0  0  0  0  0  0  0  0  0  0
  151.8390  135.4323  190.7817 C   0  0  0  0  0  0  0  0  0  0  0  0
  151.9754  136.4283  190.0417 O   0  0  0  0  0  0  0  0  0  0  0  0
  151.3473  134.2703  190.2610 C   0  0  0  0  0  0  0  0  0  0  0  0
  150.9297  133.9026  189.0063 C   0  0  0  0  0  0  0  0  0  0  0  0
  155.1653  137.7329  186.9888 C   0  0  0  0  0  0  0  0  0  0  0  0
  154.6980  138.3827  188.1378 O   0  0  0  0  0  0  0  0  0  0  0  0
  155.0624  137.8306  189.3575 C   0  0  0  0  0  0  0  0  0  0  0  0
  155.3091  136.5833  189.4570 O   0  0  0  0  0  0  0  0  0  0  0  0
  155.1862  138.6340  190.5958 C   0  0  0  0  0  0  0  0  0  0  0  0
  156.3873  138.2672  191.2924 N   0  0  0  0  0  0  0  0  0  0  0  0
  156.5234  137.2364  191.1894 H   0  0  0  0  0  0  0  0  0  0  0  0
  156.2458  138.4770  192.3121 H   0  0  0  0  0  0  0  0  0  0  0  0
 22 23  1  0  0  0
 23 24  1  0  0  0
 24 25  1  0  0  0
 25 26  1  0  0  0
 26 27  1  0  0  0
 26 28  1  0  0  0
 28 29  2  0  0  0
 28 30  1  0  0  0
 30 31  1  0  0  0
 30 32  1  0  0  0
 32 33  2  0  0  0
 32 34  1  0  0  0
 34 35  1  0  0  0
 35 21  1  0  0  0
 21 19  1  0  0  0
 19 20  2  0  0  0
 19  1  1  0  0  0
  1  2  2  0  0  0
  2  3  1  0  0  0
  3  4  1  0  0  0
  4  5  2  0  0  0
  5  7  1  0  0  0
  7  8  2  0  0  0
  8  9  1  0  0  0
  9 10  2  0  0  0
 10 14  1  0  0  0
 14 15  1  0  0  0
 15 16  1  0  0  0
 15 17  1  0  0  0
 15 18  1  0  0  0
 10 11  1  0  0  0
 11 12  1  0  0  0
 11 13  2  0  0  0
  5  6  1  0  0  0
  6 36  1  0  0  0
 36 37  1  0  0  0
 37 38  1  0  0  0
 38 39  2  0  0  0
 38 40  1  0  0  0
 40 41  1  0  0  0
 35 23  2  0  0  0
  6  2  1  0  0  0
 34 25  2  0  0  0
 13  7  1  0  0  0
 41 42  1  0  0  0
 41 43  1  0  0  0
M  END
> <minimizedAffinity>
-6.35169

> <CNNscore>
0.2131300718

> <CNNaffinity>
6.3856711388

> <CNN_VS>
1.3609786034

> <CNNaffinity_variance>
0.1330086440

$$$$
[H]c1s/c(=N\C(=O)C([H])([H])c2c(C([H])([H])[H])oc3c2c(=O)n(C([H])([H])[H])c(=O)n3C([H])([H])[H])n(C([H])([H])OC(=O)C([H])([H])N([H])[H])c1-c1c([H])c([H])c(OC(F)(F)F)c(Cl)c1[H]


 43 46  0  0  0  0  0  0  0  0999 V2000
  151.5931  136.4968  187.1548 N   0  0  0  0  0  0  0  0  0  0  0  0
  152.3092  136.9654  186.1724 C   0  0  0  0  0  0  0  0  0  0  0  0
  152.4394  136.2475  184.6661 S   0  0  0  0  0  0  0  0  0  0  0  0
  153.4913  137.3584  183.9476 C   0  0  0  0  0  0  0  0  0  0  0  0
  153.7176  138.3040  184.9684 C   0  0  0  0  0  0  0  0  0  0  0  0
  153.0907  138.0710  186.1006 N   0  0  0  0  0  0  0  0  0  0  0  0
  154.7119  139.3446  184.6306 C   0  0  0  0  0  0  0  0  0  0  0  0
  156.0141  139.2479  184.9329 C   0  0  0  0  0  0  0  0  0  0  0  0
  156.9306  140.2371  184.5131 C   0  0  0  0  0  0  0  0  0  0  0  0
  156.5439  141.3242  183.7916 C   0  0  0  0  0  0  0  0  0  0  0  0
  155.2114  141.4455  183.4702 C   0  0  0  0  0  0  0  0  0  0  0  0
  154.6637  142.8353  182.5314 Cl  0  0  0  0  0  0  0  0  0  0  0  0
  154.3325  140.4701  183.8879 C   0  0  0  0  0  0  0  0  0  0  0  0
  157.4441  142.2950  183.3795 O   0  0  0  0  0  0  0  0  0  0  0  0
  158.2417  142.2354  182.2393 C   0  0  0  0  0  0  0  0  0  0  0  0
  158.1892  143.3763  181.4727 F   0  0  0  0  0  0  0  0  0  0  0  0
  159.5586  141.9310  182.5337 F   0  0  0  0  0  0  0  0  0  0  0  0
  157.7456  141.2107  181.4435 F   0  0  0  0  0  0  0  0  0  0  0  0
  150.8434  135.2963  187.0096 C   0  0  0  0  0  0  0  0  0  0  0  0
  149.8138  135.4094  186.2570 O   0  0  0  0  0  0  0  0  0  0  0  0
  151.1815  134.0136  187.6481 C   0  0  0  0  0  0  0  0  0  0  0  0
  153.5491  132.9057  185.8586 C   0  0  0  0  0  0  0  0  0  0  0  0
  153.6181  133.5353  187.1916 C   0  0  0  0  0  0  0  0  0  0  0  0
  154.7709  133.7180  187.8322 O   0  0  0  0  0  0  0  0  0  0  0  0
  154.5875  134.2852  188.9780 C   0  0  0  0  0  0  0  0  0  0  0  0
  155.3980  134.6837  189.9930 N   0  0  0  0  0  0  0  0  0  0  0  0
  156.8245  134.4688  189.8619 C   0  0  0  0  0  0  0  0  0  0  0  0
  154.8824  135.2677  191.0996 C   0  0  0  0  0  0  0  0  0  0  0  0
  155.6702  135.6225  192.0185 O   0  0  0  0  0  0  0  0  0  0  0  0
  153.5737  135.4900  191.2718 N   0  0  0  0  0  0  0  0  0  0  0  0
  153.0177  136.1144  192.4523 C   0  0  0  0  0  0  0  0  0  0  0  0
  152.7472  135.1023  190.2758 C   0  0  0  0  0  0  0  0  0  0  0  0
  151.5198  135.2928  190.3997 O   0  0  0  0  0  0  0  0  0  0  0  0
  153.2245  134.5097  189.1427 C   0  0  0  0  0  0  0  0  0  0  0  0
  152.6237  134.0305  188.0055 C   0  0  0  0  0  0  0  0  0  0  0  0
  153.1814  138.8967  187.3366 C   0  0  0  0  0  0  0  0  0  0  0  0
  153.4840  138.1230  188.4639 O   0  0  0  0  0  0  0  0  0  0  0  0
  154.7827  138.2049  188.9453 C   0  0  0  0  0  0  0  0  0  0  0  0
  155.7678  137.8488  188.2178 O   0  0  0  0  0  0  0  0  0  0  0  0
  155.1039  138.6995  190.3042 C   0  0  0  0  0  0  0  0  0  0  0  0
  156.4539  138.3445  190.6415 N   0  0  0  0  0  0  0  0  0  0  0  0
  156.6508  137.3964  190.2492 H   0  0  0  0  0  0  0  0  0  0  0  0
  156.5198  138.2841  191.6884 H   0  0  0  0  0  0  0  0  0  0  0  0
 22 23  1  0  0  0
 23 24  1  0  0  0
 24 25  1  0  0  0
 25 26  1  0  0  0
 26 27  1  0  0  0
 26 28  1  0  0  0
 28 29  2  0  0  0
 28 30  1  0  0  0
 30 31  1  0  0  0
 30 32  1  0  0  0
 32 33  2  0  0  0
 32 34  1  0  0  0
 34 35  1  0  0  0
 35 21  1  0  0  0
 21 19  1  0  0  0
 19 20  2  0  0  0
 19  1  1  0  0  0
  1  2  2  0  0  0
  2  3  1  0  0  0
  3  4  1  0  0  0
  4  5  2  0  0  0
  5  7  1  0  0  0
  7  8  2  0  0  0
  8  9  1  0  0  0
  9 10  2  0  0  0
 10 14  1  0  0  0
 14 15  1  0  0  0
 15 16  1  0  0  0
 15 17  1  0  0  0
 15 18  1  0  0  0
 10 11  1  0  0  0
 11 12  1  0  0  0
 11 13  2  0  0  0
  5  6  1  0  0  0
  6 36  1  0  0  0
 36 37  1  0  0  0
 37 38  1  0  0  0
 38 39  2  0  0  0
 38 40  1  0  0  0
 40 41  1  0  0  0
 35 23  2  0  0  0
  6  2  1  0  0  0
 34 25  2  0  0  0
 13  7  1  0  0  0
 41 42  1  0  0  0
 41 43  1  0  0  0
M  END
> <minimizedAffinity>
-6.49279

> <CNNscore>
0.2113475353

> <CNNaffinity>
6.5195226669

> <CNN_VS>
1.3778851032

> <CNNaffinity_variance>
0.2254464924

$$$$
[H]c1s/c(=N\C(=O)C([H])([H])c2c(C([H])([H])[H])oc3c2c(=O)n(C([H])([H])[H])c(=O)n3C([H])([H])[H])n(C([H])([H])OC(=O)C([H])([H])N([H])[H])c1-c1c([H])c([H])c(OC(F)(F)F)c(Cl)c1[H]


 43 46  0  0  0  0  0  0  0  0999 V2000
  151.6338  136.6918  186.8615 N   0  0  0  0  0  0  0  0  0  0  0  0
  152.1714  137.1530  185.7679 C   0  0  0  0  0  0  0  0  0  0  0  0
  151.8430  136.5750  184.2319 S   0  0  0  0  0  0  0  0  0  0  0  0
  152.8627  137.5982  183.3543 C   0  0  0  0  0  0  0  0  0  0  0  0
  153.4586  138.4000  184.3490 C   0  0  0  0  0  0  0  0  0  0  0  0
  153.0773  138.1443  185.5812 N   0  0  0  0  0  0  0  0  0  0  0  0
  154.4986  139.3244  183.8496 C   0  0  0  0  0  0  0  0  0  0  0  0
  154.2252  140.4407  183.1598 C   0  0  0  0  0  0  0  0  0  0  0  0
  155.2563  141.3273  182.7784 C   0  0  0  0  0  0  0  0  0  0  0  0
  156.5617  141.0964  183.0860 C   0  0  0  0  0  0  0  0  0  0  0  0
  156.8667  139.9558  183.7929 C   0  0  0  0  0  0  0  0  0  0  0  0
  158.5448  139.6167  184.2194 Cl  0  0  0  0  0  0  0  0  0  0  0  0
  155.8473  139.1033  184.1568 C   0  0  0  0  0  0  0  0  0  0  0  0
  157.5735  141.9672  182.7115 O   0  0  0  0  0  0  0  0  0  0  0  0
  158.1799  142.0214  181.4588 C   0  0  0  0  0  0  0  0  0  0  0  0
  159.5020  142.3980  181.5051 F   0  0  0  0  0  0  0  0  0  0  0  0
  158.0573  140.8322  180.7630 F   0  0  0  0  0  0  0  0  0  0  0  0
  157.5232  143.0019  180.7261 F   0  0  0  0  0  0  0  0  0  0  0  0
  150.6945  135.6239  186.8242 C   0  0  0  0  0  0  0  0  0  0  0  0
  149.6712  135.8517  186.0890 O   0  0  0  0  0  0  0  0  0  0  0  0
  150.8417  134.3512  187.5493 C   0  0  0  0  0  0  0  0  0  0  0  0
  148.9606  135.0350  190.0048 C   0  0  0  0  0  0  0  0  0  0  0  0
  150.4329  134.9396  189.9702 C   0  0  0  0  0  0  0  0  0  0  0  0
  151.1838  135.1469  191.0501 O   0  0  0  0  0  0  0  0  0  0  0  0
  152.4400  135.0101  190.7827 C   0  0  0  0  0  0  0  0  0  0  0  0
  153.5905  135.1087  191.4987 N   0  0  0  0  0  0  0  0  0  0  0  0
  153.5013  135.4418  192.9056 C   0  0  0  0  0  0  0  0  0  0  0  0
  154.7905  134.9000  190.9091 C   0  0  0  0  0  0  0  0  0  0  0  0
  155.8342  135.0017  191.6102 O   0  0  0  0  0  0  0  0  0  0  0  0
  154.9298  134.5898  189.6145 N   0  0  0  0  0  0  0  0  0  0  0  0
  156.2101  134.3651  188.9798 C   0  0  0  0  0  0  0  0  0  0  0  0
  153.7997  134.4860  188.8814 C   0  0  0  0  0  0  0  0  0  0  0  0
  153.8888  134.1982  187.6700 O   0  0  0  0  0  0  0  0  0  0  0  0
  152.5688  134.6883  189.4354 C   0  0  0  0  0  0  0  0  0  0  0  0
  151.2918  134.6471  188.9342 C   0  0  0  0  0  0  0  0  0  0  0  0
  153.5733  138.8252  186.8094 C   0  0  0  0  0  0  0  0  0  0  0  0
  154.7386  138.2285  187.3063 O   0  0  0  0  0  0  0  0  0  0  0  0
  154.8290  138.0906  188.6840 C   0  0  0  0  0  0  0  0  0  0  0  0
  153.7767  137.9693  189.3942 O   0  0  0  0  0  0  0  0  0  0  0  0
  156.1231  138.0754  189.4045 C   0  0  0  0  0  0  0  0  0  0  0  0
  155.8906  138.1685  190.8186 N   0  0  0  0  0  0  0  0  0  0  0  0
  155.0851  138.8152  190.9759 H   0  0  0  0  0  0  0  0  0  0  0  0
  156.7432  138.5969  191.2584 H   0  0  0  0  0  0  0  0  0  0  0  0
 22 23  1  0  0  0
 23 24  1  0  0  0
 24 25  1  0  0  0
 25 26  1  0  0  0
 26 27  1  0  0  0
 26 28  1  0  0  0
 28 29  2  0  0  0
 28 30  1  0  0  0
 30 31  1  0  0  0
 30 32  1  0  0  0
 32 33  2  0  0  0
 32 34  1  0  0  0
 34 35  1  0  0  0
 35 21  1  0  0  0
 21 19  1  0  0  0
 19 20  2  0  0  0
 19  1  1  0  0  0
  1  2  2  0  0  0
  2  3  1  0  0  0
  3  4  1  0  0  0
  4  5  2  0  0  0
  5  7  1  0  0  0
  7  8  2  0  0  0
  8  9  1  0  0  0
  9 10  2  0  0  0
 10 14  1  0  0  0
 14 15  1  0  0  0
 15 16  1  0  0  0
 15 17  1  0  0  0
 15 18  1  0  0  0
 10 11  1  0  0  0
 11 12  1  0  0  0
 11 13  2  0  0  0
  5  6  1  0  0  0
  6 36  1  0  0  0
 36 37  1  0  0  0
 37 38  1  0  0  0
 38 39  2  0  0  0
 38 40  1  0  0  0
 40 41  1  0  0  0
 35 23  2  0  0  0
  6  2  1  0  0  0
 34 25  2  0  0  0
 13  7  1  0  0  0
 41 42  1  0  0  0
 41 43  1  0  0  0
M  END
> <minimizedAffinity>
-6.48728

> <CNNscore>
0.2093505561

> <CNNaffinity>
6.3383240700

> <CNN_VS>
1.3269317150

> <CNNaffinity_variance>
0.3725306988

$$$$
[H]c1s/c(=N\C(=O)C([H])([H])c2c(C([H])([H])[H])oc3c2c(=O)n(C([H])([H])[H])c(=O)n3C([H])([H])[H])n(C([H])([H])OC(=O)C([H])([H])N([H])[H])c1-c1c([H])c([H])c(OC(F)(F)F)c(Cl)c1[H]


 43 46  0  0  0  0  0  0  0  0999 V2000
  150.6372  136.6789  182.4604 N   0  0  0  0  0  0  0  0  0  0  0  0
  151.3296  137.7686  182.2848 C   0  0  0  0  0  0  0  0  0  0  0  0
  151.0378  138.8951  181.0819 S   0  0  0  0  0  0  0  0  0  0  0  0
  152.2779  139.9831  181.4494 C   0  0  0  0  0  0  0  0  0  0  0  0
  152.9132  139.3937  182.5613 C   0  0  0  0  0  0  0  0  0  0  0  0
  152.3965  138.2542  182.9661 N   0  0  0  0  0  0  0  0  0  0  0  0
  154.1266  140.1023  183.0210 C   0  0  0  0  0  0  0  0  0  0  0  0
  155.0591  139.5397  183.8024 C   0  0  0  0  0  0  0  0  0  0  0  0
  156.2372  140.2402  184.1432 C   0  0  0  0  0  0  0  0  0  0  0  0
  156.4819  141.5045  183.7032 C   0  0  0  0  0  0  0  0  0  0  0  0
  155.5380  142.1030  182.9004 C   0  0  0  0  0  0  0  0  0  0  0  0
  155.8138  143.7394  182.3011 Cl  0  0  0  0  0  0  0  0  0  0  0  0
  154.3955  141.4037  182.5780 C   0  0  0  0  0  0  0  0  0  0  0  0
  157.6387  142.1916  184.0379 O   0  0  0  0  0  0  0  0  0  0  0  0
  158.8841  142.0332  183.4348 C   0  0  0  0  0  0  0  0  0  0  0  0
  159.7549  141.2617  184.1686 F   0  0  0  0  0  0  0  0  0  0  0  0
  158.7862  141.5322  182.1492 F   0  0  0  0  0  0  0  0  0  0  0  0
  159.4621  143.2933  183.3476 F   0  0  0  0  0  0  0  0  0  0  0  0
  149.5432  136.3589  181.6090 C   0  0  0  0  0  0  0  0  0  0  0  0
  149.8741  135.7257  180.5465 O   0  0  0  0  0  0  0  0  0  0  0  0
  148.1384  136.7039  181.8822 C   0  0  0  0  0  0  0  0  0  0  0  0
  147.9361  139.5677  183.2213 C   0  0  0  0  0  0  0  0  0  0  0  0
  147.9101  138.2427  183.8707 C   0  0  0  0  0  0  0  0  0  0  0  0
  147.7900  138.1000  185.1890 O   0  0  0  0  0  0  0  0  0  0  0  0
  147.7910  136.8539  185.5291 C   0  0  0  0  0  0  0  0  0  0  0  0
  147.6982  136.1794  186.7048 N   0  0  0  0  0  0  0  0  0  0  0  0
  147.5626  136.9418  187.9290 C   0  0  0  0  0  0  0  0  0  0  0  0
  147.7318  134.8267  186.7291 C   0  0  0  0  0  0  0  0  0  0  0  0
  147.6427  134.2399  187.8422 O   0  0  0  0  0  0  0  0  0  0  0  0
  147.8552  134.0742  185.6290 N   0  0  0  0  0  0  0  0  0  0  0  0
  147.8909  132.6283  185.6497 C   0  0  0  0  0  0  0  0  0  0  0  0
  147.9493  134.7224  184.4473 C   0  0  0  0  0  0  0  0  0  0  0  0
  148.0656  134.0550  183.3989 O   0  0  0  0  0  0  0  0  0  0  0  0
  147.9198  136.0853  184.3768 C   0  0  0  0  0  0  0  0  0  0  0  0
  147.9941  136.9765  183.3358 C   0  0  0  0  0  0  0  0  0  0  0  0
  152.8949  137.4196  184.0943 C   0  0  0  0  0  0  0  0  0  0  0  0
  152.3479  137.8146  185.3213 O   0  0  0  0  0  0  0  0  0  0  0  0
  153.0954  137.5335  186.4560 C   0  0  0  0  0  0  0  0  0  0  0  0
  152.6151  137.7457  187.6182 O   0  0  0  0  0  0  0  0  0  0  0  0
  154.4686  136.9814  186.3945 C   0  0  0  0  0  0  0  0  0  0  0  0
  155.3841  137.8904  187.0252 N   0  0  0  0  0  0  0  0  0  0  0  0
  155.0826  138.8657  186.8025 H   0  0  0  0  0  0  0  0  0  0  0  0
  156.3335  137.7381  186.6016 H   0  0  0  0  0  0  0  0  0  0  0  0
 22 23  1  0  0  0
 23 24  1  0  0  0
 24 25  1  0  0  0
 25 26  1  0  0  0
 26 27  1  0  0  0
 26 28  1  0  0  0
 28 29  2  0  0  0
 28 30  1  0  0  0
 30 31  1  0  0  0
 30 32  1  0  0  0
 32 33  2  0  0  0
 32 34  1  0  0  0
 34 35  1  0  0  0
 35 21  1  0  0  0
 21 19  1  0  0  0
 19 20  2  0  0  0
 19  1  1  0  0  0
  1  2  2  0  0  0
  2  3  1  0  0  0
  3  4  1  0  0  0
  4  5  2  0  0  0
  5  7  1  0  0  0
  7  8  2  0  0  0
  8  9  1  0  0  0
  9 10  2  0  0  0
 10 14  1  0  0  0
 14 15  1  0  0  0
 15 16  1  0  0  0
 15 17  1  0  0  0
 15 18  1  0  0  0
 10 11  1  0  0  0
 11 12  1  0  0  0
 11 13  2  0  0  0
  5  6  1  0  0  0
  6 36  1  0  0  0
 36 37  1  0  0  0
 37 38  1  0  0  0
 38 39  2  0  0  0
 38 40  1  0  0  0
 40 41  1  0  0  0
 35 23  2  0  0  0
  6  2  1  0  0  0
 34 25  2  0  0  0
 13  7  1  0  0  0
 41 42  1  0  0  0
 41 43  1  0  0  0
M  END
> <minimizedAffinity>
-6.27574

> <CNNscore>
0.2079157978

> <CNNaffinity>
6.3958940506

> <CNN_VS>
1.3298074007

> <CNNaffinity_variance>
0.2801996768

$$$$
[H]c1s/c(=N\C(=O)C([H])([H])c2c(C([H])([H])[H])oc3c2c(=O)n(C([H])([H])[H])c(=O)n3C([H])([H])[H])n(C([H])([H])OC(=O)C([H])([H])N([H])[H])c1-c1c([H])c([H])c(OC(F)(F)F)c(Cl)c1[H]


 43 46  0  0  0  0  0  0  0  0999 V2000
  152.6632  137.9932  184.8767 N   0  0  0  0  0  0  0  0  0  0  0  0
  153.8876  138.4381  184.9042 C   0  0  0  0  0  0  0  0  0  0  0  0
  155.0582  137.9294  185.9867 S   0  0  0  0  0  0  0  0  0  0  0  0
  156.3340  138.9013  185.4533 C   0  0  0  0  0  0  0  0  0  0  0  0
  155.7678  139.6314  184.3886 C   0  0  0  0  0  0  0  0  0  0  0  0
  154.5058  139.3654  184.1321 N   0  0  0  0  0  0  0  0  0  0  0  0
  156.6590  140.6573  183.8063 C   0  0  0  0  0  0  0  0  0  0  0  0
  157.3573  141.5330  184.5425 C   0  0  0  0  0  0  0  0  0  0  0  0
  158.2550  142.4377  183.9338 C   0  0  0  0  0  0  0  0  0  0  0  0
  158.4530  142.4671  182.5877 C   0  0  0  0  0  0  0  0  0  0  0  0
  157.7460  141.5779  181.8112 C   0  0  0  0  0  0  0  0  0  0  0  0
  157.9737  141.5752  180.0616 Cl  0  0  0  0  0  0  0  0  0  0  0  0
  156.8756  140.7025  182.4231 C   0  0  0  0  0  0  0  0  0  0  0  0
  159.3345  143.3554  181.9906 O   0  0  0  0  0  0  0  0  0  0  0  0
  159.1047  144.7125  181.7778 C   0  0  0  0  0  0  0  0  0  0  0  0
  159.4866  145.1444  180.5290 F   0  0  0  0  0  0  0  0  0  0  0  0
  157.7880  145.0663  182.0117 F   0  0  0  0  0  0  0  0  0  0  0  0
  159.8907  145.4101  182.6862 F   0  0  0  0  0  0  0  0  0  0  0  0
  152.2197  137.0064  185.8008 C   0  0  0  0  0  0  0  0  0  0  0  0
  152.6353  135.8231  185.5432 O   0  0  0  0  0  0  0  0  0  0  0  0
  151.3585  137.2735  186.9645 C   0  0  0  0  0  0  0  0  0  0  0  0
  150.0732  134.4205  187.4585 C   0  0  0  0  0  0  0  0  0  0  0  0
  151.1381  135.0968  188.2244 C   0  0  0  0  0  0  0  0  0  0  0  0
  151.7153  134.5364  189.2854 O   0  0  0  0  0  0  0  0  0  0  0  0
  152.6165  135.3096  189.7936 C   0  0  0  0  0  0  0  0  0  0  0  0
  153.4719  135.2252  190.8458 N   0  0  0  0  0  0  0  0  0  0  0  0
  153.4512  134.0254  191.6573 C   0  0  0  0  0  0  0  0  0  0  0  0
  154.3224  136.2395  191.1272 C   0  0  0  0  0  0  0  0  0  0  0  0
  155.0999  136.1203  192.1134 O   0  0  0  0  0  0  0  0  0  0  0  0
  154.3831  137.3685  190.4108 N   0  0  0  0  0  0  0  0  0  0  0  0
  155.2909  138.4552  190.7070 C   0  0  0  0  0  0  0  0  0  0  0  0
  153.5419  137.4760  189.3590 C   0  0  0  0  0  0  0  0  0  0  0  0
  153.5687  138.5144  188.6667 O   0  0  0  0  0  0  0  0  0  0  0  0
  152.6679  136.4775  189.0395 C   0  0  0  0  0  0  0  0  0  0  0  0
  151.7277  136.3291  188.0507 C   0  0  0  0  0  0  0  0  0  0  0  0
  153.6707  140.0142  183.0835 C   0  0  0  0  0  0  0  0  0  0  0  0
  153.6006  139.2434  181.9165 O   0  0  0  0  0  0  0  0  0  0  0  0
  152.4419  139.3592  181.1621 C   0  0  0  0  0  0  0  0  0  0  0  0
  152.4903  139.7820  179.9598 O   0  0  0  0  0  0  0  0  0  0  0  0
  151.1033  139.0080  181.6903 C   0  0  0  0  0  0  0  0  0  0  0  0
  151.1301  137.6772  182.2297 N   0  0  0  0  0  0  0  0  0  0  0  0
  151.7460  137.0905  181.6229 H   0  0  0  0  0  0  0  0  0  0  0  0
  150.1555  137.2883  182.1777 H   0  0  0  0  0  0  0  0  0  0  0  0
 22 23  1  0  0  0
 23 24  1  0  0  0
 24 25  1  0  0  0
 25 26  1  0  0  0
 26 27  1  0  0  0
 26 28  1  0  0  0
 28 29  2  0  0  0
 28 30  1  0  0  0
 30 31  1  0  0  0
 30 32  1  0  0  0
 32 33  2  0  0  0
 32 34  1  0  0  0
 34 35  1  0  0  0
 35 21  1  0  0  0
 21 19  1  0  0  0
 19 20  2  0  0  0
 19  1  1  0  0  0
  1  2  2  0  0  0
  2  3  1  0  0  0
  3  4  1  0  0  0
  4  5  2  0  0  0
  5  7  1  0  0  0
  7  8  2  0  0  0
  8  9  1  0  0  0
  9 10  2  0  0  0
 10 14  1  0  0  0
 14 15  1  0  0  0
 15 16  1  0  0  0
 15 17  1  0  0  0
 15 18  1  0  0  0
 10 11  1  0  0  0
 11 12  1  0  0  0
 11 13  2  0  0  0
  5  6  1  0  0  0
  6 36  1  0  0  0
 36 37  1  0  0  0
 37 38  1  0  0  0
 38 39  2  0  0  0
 38 40  1  0  0  0
 40 41  1  0  0  0
 35 23  2  0  0  0
  6  2  1  0  0  0
 34 25  2  0  0  0
 13  7  1  0  0  0
 41 42  1  0  0  0
 41 43  1  0  0  0
M  END
> <minimizedAffinity>
-7.79147

> <CNNscore>
0.1816511750

> <CNNaffinity>
6.3731708527

> <CNN_VS>
1.1576939821

> <CNNaffinity_variance>
0.4618057311

$$$$
[H]c1nc(C([H])([H])[H])c(C(F)(F)F)c([H])c1-c1nc(N([H])C(=O)[C@@]([H])(n2c([H])nc3c2c(=O)n(C([H])([H])C(F)(F)F)c(=O)n3C([H])([H])[H])C([H])([H])[H])c([H])s1


 39 42  0  0  0  0  0  0  0  0999 V2000
  153.8645  138.0826  185.1609 C   0  0  0  0  0  0  0  0  0  0  0  0
  153.7299  138.8985  186.0698 O   0  0  0  0  0  0  0  0  0  0  0  0
  154.6435  138.4112  184.0241 N   0  0  0  0  0  0  0  0  0  0  0  0
  154.7906  137.7593  183.2265 H   0  0  0  0  0  0  0  0  0  0  0  0
  155.3008  139.7090  183.8981 C   0  0  0  0  0  0  0  0  0  0  0  0
  154.6256  140.8627  183.5640 C   0  0  0  0  0  0  0  0  0  0  0  0
  155.8791  142.0211  183.5693 S   0  0  0  0  0  0  0  0  0  0  0  0
  157.1749  140.9960  183.9889 C   0  0  0  0  0  0  0  0  0  0  0  0
  156.5816  139.8229  184.1028 N   0  0  0  0  0  0  0  0  0  0  0  0
  158.6079  141.3295  184.1796 C   0  0  0  0  0  0  0  0  0  0  0  0
  159.4697  140.9624  183.1862 C   0  0  0  0  0  0  0  0  0  0  0  0
  160.7709  141.2279  183.2864 N   0  0  0  0  0  0  0  0  0  0  0  0
  161.2697  141.8718  184.3829 C   0  0  0  0  0  0  0  0  0  0  0  0
  162.7249  142.1239  184.4085 C   0  0  0  0  0  0  0  0  0  0  0  0
  160.4243  142.2539  185.4003 C   0  0  0  0  0  0  0  0  0  0  0  0
  159.0616  141.9762  185.2961 C   0  0  0  0  0  0  0  0  0  0  0  0
  160.9669  142.9447  186.5739 C   0  0  0  0  0  0  0  0  0  0  0  0
  159.9957  143.1999  187.5414 F   0  0  0  0  0  0  0  0  0  0  0  0
  162.0031  142.2772  187.1938 F   0  0  0  0  0  0  0  0  0  0  0  0
  161.4705  144.2013  186.2299 F   0  0  0  0  0  0  0  0  0  0  0  0
  152.7795  136.5817  183.8175 C   0  0  0  0  0  0  0  0  0  0  0  0
  153.2444  136.6908  185.1429 C   0  0  0  0  0  0  0  0  0  0  0  0
  152.6711  136.5284  186.3840 N   0  0  0  0  0  0  0  0  0  0  0  0
  151.2931  136.5122  186.4712 C   0  0  0  0  0  0  0  0  0  0  0  0
  150.9014  136.3528  187.7135 N   0  0  0  0  0  0  0  0  0  0  0  0
  151.9325  136.2559  188.5060 C   0  0  0  0  0  0  0  0  0  0  0  0
  152.1141  136.0889  189.8251 N   0  0  0  0  0  0  0  0  0  0  0  0
  150.9817  135.9739  190.6951 C   0  0  0  0  0  0  0  0  0  0  0  0
  153.3590  136.0279  190.3428 C   0  0  0  0  0  0  0  0  0  0  0  0
  153.5109  135.8707  191.5788 O   0  0  0  0  0  0  0  0  0  0  0  0
  154.4468  136.1364  189.5237 N   0  0  0  0  0  0  0  0  0  0  0  0
  154.3094  136.3040  188.1983 C   0  0  0  0  0  0  0  0  0  0  0  0
  155.2786  136.3977  187.4829 O   0  0  0  0  0  0  0  0  0  0  0  0
  153.0511  136.3672  187.6625 C   0  0  0  0  0  0  0  0  0  0  0  0
  155.7912  136.0726  190.0555 C   0  0  0  0  0  0  0  0  0  0  0  0
  156.2236  137.4328  190.5256 C   0  0  0  0  0  0  0  0  0  0  0  0
  155.2673  138.4052  190.3528 F   0  0  0  0  0  0  0  0  0  0  0  0
  157.3084  137.8254  189.7522 F   0  0  0  0  0  0  0  0  0  0  0  0
  156.5525  137.4149  191.8641 F   0  0  0  0  0  0  0  0  0  0  0  0
 21 22  1  0  0  0
 22  1  1  0  0  0
  1  2  2  0  0  0
  1  3  1  0  0  0
  3  5  1  0  0  0
  5  6  2  0  0  0
  6  7  1  0  0  0
  7  8  1  0  0  0
  8  9  2  0  0  0
  8 10  1  0  0  0
 10 11  2  0  0  0
 11 12  1  0  0  0
 12 13  2  0  0  0
 13 14  1  0  0  0
 13 15  1  0  0  0
 15 16  2  0  0  0
 15 17  1  0  0  0
 17 18  1  0  0  0
 17 19  1  0  0  0
 17 20  1  0  0  0
 22 23  1  0  0  0
 23 24  1  0  0  0
 24 25  2  0  0  0
 25 26  1  0  0  0
 26 27  1  0  0  0
 27 28  1  0  0  0
 27 29  1  0  0  0
 29 30  2  0  0  0
 29 31  1  0  0  0
 31 35  1  0  0  0
 35 36  1  0  0  0
 36 37  1  0  0  0
 36 38  1  0  0  0
 36 39  1  0  0  0
 31 32  1  0  0  0
 32 33  2  0  0  0
 32 34  1  0  0  0
  9  5  1  0  0  0
 16 10  1  0  0  0
 34 23  1  0  0  0
 34 26  2  0  0  0
  3  4  1  0  0  0
M  END
> <minimizedAffinity>
-8.92923

> <CNNscore>
0.4757912755

> <CNNaffinity>
7.0141921043

> <CNN_VS>
3.3372914791

> <CNNaffinity_variance>
0.2106202096

$$$$
[H]c1nc(C([H])([H])[H])c(C(F)(F)F)c([H])c1-c1nc(N([H])C(=O)[C@@]([H])(n2c([H])nc3c2c(=O)n(C([H])([H])C(F)(F)F)c(=O)n3C([H])([H])[H])C([H])([H])[H])c([H])s1


 39 42  0  0  0  0  0  0  0  0999 V2000
  154.3678  138.0358  188.6657 C   0  0  0  0  0  0  0  0  0  0  0  0
  153.4396  138.7813  188.3616 O   0  0  0  0  0  0  0  0  0  0  0  0
  155.3112  137.6431  187.6844 N   0  0  0  0  0  0  0  0  0  0  0  0
  156.1154  137.0146  187.8866 H   0  0  0  0  0  0  0  0  0  0  0  0
  155.2122  138.1044  186.3025 C   0  0  0  0  0  0  0  0  0  0  0  0
  154.2178  137.6911  185.4430 C   0  0  0  0  0  0  0  0  0  0  0  0
  154.6093  138.5387  184.0143 S   0  0  0  0  0  0  0  0  0  0  0  0
  155.9938  139.3609  184.5742 C   0  0  0  0  0  0  0  0  0  0  0  0
  156.0838  138.9444  185.8230 N   0  0  0  0  0  0  0  0  0  0  0  0
  156.8781  140.3058  183.8488 C   0  0  0  0  0  0  0  0  0  0  0  0
  156.4548  140.7398  182.6254 C   0  0  0  0  0  0  0  0  0  0  0  0
  157.1949  141.5890  181.9149 N   0  0  0  0  0  0  0  0  0  0  0  0
  158.3908  142.0427  182.3943 C   0  0  0  0  0  0  0  0  0  0  0  0
  159.1440  142.9815  181.5381 C   0  0  0  0  0  0  0  0  0  0  0  0
  158.8431  141.6222  183.6249 C   0  0  0  0  0  0  0  0  0  0  0  0
  158.0685  140.7329  184.3695 C   0  0  0  0  0  0  0  0  0  0  0  0
  160.1273  142.1136  184.1329 C   0  0  0  0  0  0  0  0  0  0  0  0
  161.2170  141.5339  183.4842 F   0  0  0  0  0  0  0  0  0  0  0  0
  160.2796  143.4827  184.0544 F   0  0  0  0  0  0  0  0  0  0  0  0
  160.2945  141.7850  185.4801 F   0  0  0  0  0  0  0  0  0  0  0  0
  155.5166  138.3955  190.6114 C   0  0  0  0  0  0  0  0  0  0  0  0
  154.6080  137.4706  190.0603 C   0  0  0  0  0  0  0  0  0  0  0  0
  154.5951  136.1022  189.9090 N   0  0  0  0  0  0  0  0  0  0  0  0
  153.3777  135.4514  189.9447 C   0  0  0  0  0  0  0  0  0  0  0  0
  153.5306  134.1573  189.7894 N   0  0  0  0  0  0  0  0  0  0  0  0
  154.7930  133.8629  189.6461 C   0  0  0  0  0  0  0  0  0  0  0  0
  155.4985  132.7366  189.4607 N   0  0  0  0  0  0  0  0  0  0  0  0
  154.8253  131.4745  189.3815 C   0  0  0  0  0  0  0  0  0  0  0  0
  156.8427  132.7812  189.3477 C   0  0  0  0  0  0  0  0  0  0  0  0
  157.4872  131.7183  189.1739 O   0  0  0  0  0  0  0  0  0  0  0  0
  157.4963  133.9785  189.4218 N   0  0  0  0  0  0  0  0  0  0  0  0
  156.8283  135.1288  189.6062 C   0  0  0  0  0  0  0  0  0  0  0  0
  157.4164  136.1824  189.6691 O   0  0  0  0  0  0  0  0  0  0  0  0
  155.4645  135.0952  189.7221 C   0  0  0  0  0  0  0  0  0  0  0  0
  158.9366  134.0515  189.3019 C   0  0  0  0  0  0  0  0  0  0  0  0
  159.3275  134.1615  187.8550 C   0  0  0  0  0  0  0  0  0  0  0  0
  158.2897  134.5255  187.0301 F   0  0  0  0  0  0  0  0  0  0  0  0
  159.7301  132.9033  187.4262 F   0  0  0  0  0  0  0  0  0  0  0  0
  160.3335  135.0876  187.6808 F   0  0  0  0  0  0  0  0  0  0  0  0
 21 22  1  0  0  0
 22  1  1  0  0  0
  1  2  2  0  0  0
  1  3  1  0  0  0
  3  5  1  0  0  0
  5  6  2  0  0  0
  6  7  1  0  0  0
  7  8  1  0  0  0
  8  9  2  0  0  0
  8 10  1  0  0  0
 10 11  2  0  0  0
 11 12  1  0  0  0
 12 13  2  0  0  0
 13 14  1  0  0  0
 13 15  1  0  0  0
 15 16  2  0  0  0
 15 17  1  0  0  0
 17 18  1  0  0  0
 17 19  1  0  0  0
 17 20  1  0  0  0
 22 23  1  0  0  0
 23 24  1  0  0  0
 24 25  2  0  0  0
 25 26  1  0  0  0
 26 27  1  0  0  0
 27 28  1  0  0  0
 27 29  1  0  0  0
 29 30  2  0  0  0
 29 31  1  0  0  0
 31 35  1  0  0  0
 35 36  1  0  0  0
 36 37  1  0  0  0
 36 38  1  0  0  0
 36 39  1  0  0  0
 31 32  1  0  0  0
 32 33  2  0  0  0
 32 34  1  0  0  0
  9  5  1  0  0  0
 16 10  1  0  0  0
 34 23  1  0  0  0
 34 26  2  0  0  0
  3  4  1  0  0  0
M  END
> <minimizedAffinity>
-8.07941

> <CNNscore>
0.4022463560

> <CNNaffinity>
6.7380018234

> <CNN_VS>
2.7103366852

> <CNNaffinity_variance>
0.2319793403

$$$$
[H]c1nc(C([H])([H])[H])c(C(F)(F)F)c([H])c1-c1nc(N([H])C(=O)[C@@]([H])(n2c([H])nc3c2c(=O)n(C([H])([H])C(F)(F)F)c(=O)n3C([H])([H])[H])C([H])([H])[H])c([H])s1


 39 42  0  0  0  0  0  0  0  0999 V2000
  154.7908  137.8310  187.8531 C   0  0  0  0  0  0  0  0  0  0  0  0
  153.8984  138.6690  187.9589 O   0  0  0  0  0  0  0  0  0  0  0  0
  155.3566  137.5555  186.5838 N   0  0  0  0  0  0  0  0  0  0  0  0
  156.1135  136.8569  186.4369 H   0  0  0  0  0  0  0  0  0  0  0  0
  154.9044  138.2475  185.3800 C   0  0  0  0  0  0  0  0  0  0  0  0
  155.5100  139.3873  184.8976 C   0  0  0  0  0  0  0  0  0  0  0  0
  154.5730  139.7271  183.5121 S   0  0  0  0  0  0  0  0  0  0  0  0
  153.4784  138.4244  183.6160 C   0  0  0  0  0  0  0  0  0  0  0  0
  153.8864  137.7987  184.7037 N   0  0  0  0  0  0  0  0  0  0  0  0
  152.3510  138.0756  182.7168 C   0  0  0  0  0  0  0  0  0  0  0  0
  151.9086  136.7842  182.7458 C   0  0  0  0  0  0  0  0  0  0  0  0
  150.9004  136.3963  181.9668 N   0  0  0  0  0  0  0  0  0  0  0  0
  150.2890  137.2805  181.1242 C   0  0  0  0  0  0  0  0  0  0  0  0
  149.1803  136.7621  180.2973 C   0  0  0  0  0  0  0  0  0  0  0  0
  150.7138  138.5893  181.0737 C   0  0  0  0  0  0  0  0  0  0  0  0
  151.7695  138.9962  181.8892 C   0  0  0  0  0  0  0  0  0  0  0  0
  150.0526  139.5326  180.1672 C   0  0  0  0  0  0  0  0  0  0  0  0
  149.9971  139.0646  178.8548 F   0  0  0  0  0  0  0  0  0  0  0  0
  148.7678  139.8694  180.5409 F   0  0  0  0  0  0  0  0  0  0  0  0
  150.7582  140.7354  180.0903 F   0  0  0  0  0  0  0  0  0  0  0  0
  156.1862  136.0873  188.3501 C   0  0  0  0  0  0  0  0  0  0  0  0
  155.3698  137.0264  189.0105 C   0  0  0  0  0  0  0  0  0  0  0  0
  154.3586  136.9419  189.9408 N   0  0  0  0  0  0  0  0  0  0  0  0
  154.5227  137.5942  191.1468 C   0  0  0  0  0  0  0  0  0  0  0  0
  153.4798  137.4181  191.9236 N   0  0  0  0  0  0  0  0  0  0  0  0
  152.5893  136.6753  191.3270 C   0  0  0  0  0  0  0  0  0  0  0  0
  151.3769  136.1942  191.6424 N   0  0  0  0  0  0  0  0  0  0  0  0
  150.7972  136.4932  192.9179 C   0  0  0  0  0  0  0  0  0  0  0  0
  150.6949  135.4276  190.7656 C   0  0  0  0  0  0  0  0  0  0  0  0
  149.5617  134.9864  191.0765 O   0  0  0  0  0  0  0  0  0  0  0  0
  151.2369  135.1353  189.5462 N   0  0  0  0  0  0  0  0  0  0  0  0
  152.4469  135.5968  189.1908 C   0  0  0  0  0  0  0  0  0  0  0  0
  152.9164  135.3329  188.1092 O   0  0  0  0  0  0  0  0  0  0  0  0
  153.1476  136.3753  190.0726 C   0  0  0  0  0  0  0  0  0  0  0  0
  150.5240  134.3167  188.5892 C   0  0  0  0  0  0  0  0  0  0  0  0
  149.5414  135.1577  187.8240 C   0  0  0  0  0  0  0  0  0  0  0  0
  149.4147  134.7935  186.5044 F   0  0  0  0  0  0  0  0  0  0  0  0
  150.0159  136.4631  187.8136 F   0  0  0  0  0  0  0  0  0  0  0  0
  148.2858  135.0935  188.3892 F   0  0  0  0  0  0  0  0  0  0  0  0
 21 22  1  0  0  0
 22  1  1  0  0  0
  1  2  2  0  0  0
  1  3  1  0  0  0
  3  5  1  0  0  0
  5  6  2  0  0  0
  6  7  1  0  0  0
  7  8  1  0  0  0
  8  9  2  0  0  0
  8 10  1  0  0  0
 10 11  2  0  0  0
 11 12  1  0  0  0
 12 13  2  0  0  0
 13 14  1  0  0  0
 13 15  1  0  0  0
 15 16  2  0  0  0
 15 17  1  0  0  0
 17 18  1  0  0  0
 17 19  1  0  0  0
 17 20  1  0  0  0
 22 23  1  0  0  0
 23 24  1  0  0  0
 24 25  2  0  0  0
 25 26  1  0  0  0
 26 27  1  0  0  0
 27 28  1  0  0  0
 27 29  1  0  0  0
 29 30  2  0  0  0
 29 31  1  0  0  0
 31 35  1  0  0  0
 35 36  1  0  0  0
 36 37  1  0  0  0
 36 38  1  0  0  0
 36 39  1  0  0  0
 31 32  1  0  0  0
 32 33  2  0  0  0
 32 34  1  0  0  0
  9  5  1  0  0  0
 16 10  1  0  0  0
 34 23  1  0  0  0
 34 26  2  0  0  0
  3  4  1  0  0  0
M  END
> <minimizedAffinity>
-6.62030

> <CNNscore>
0.3903203309

> <CNNaffinity>
6.2013502121

> <CNN_VS>
2.4205131531

> <CNNaffinity_variance>
0.1851727515

$$$$
[H]c1nc(C([H])([H])[H])c(C(F)(F)F)c([H])c1-c1nc(N([H])C(=O)[C@@]([H])(n2c([H])nc3c2c(=O)n(C([H])([H])C(F)(F)F)c(=O)n3C([H])([H])[H])C([H])([H])[H])c([H])s1


 39 42  0  0  0  0  0  0  0  0999 V2000
  153.9527  138.0909  185.5932 C   0  0  0  0  0  0  0  0  0  0  0  0
  153.2721  138.8243  186.3065 O   0  0  0  0  0  0  0  0  0  0  0  0
  154.9660  137.2852  186.1686 N   0  0  0  0  0  0  0  0  0  0  0  0
  155.5709  136.6470  185.6124 H   0  0  0  0  0  0  0  0  0  0  0  0
  155.2300  137.3005  187.6047 C   0  0  0  0  0  0  0  0  0  0  0  0
  156.2700  138.0066  188.1690 C   0  0  0  0  0  0  0  0  0  0  0  0
  156.0791  137.6535  189.8279 S   0  0  0  0  0  0  0  0  0  0  0  0
  154.7101  136.6436  189.7201 C   0  0  0  0  0  0  0  0  0  0  0  0
  154.4711  136.6293  188.4225 N   0  0  0  0  0  0  0  0  0  0  0  0
  153.9695  135.9524  190.8041 C   0  0  0  0  0  0  0  0  0  0  0  0
  154.1871  134.6124  190.9500 C   0  0  0  0  0  0  0  0  0  0  0  0
  153.5583  133.9240  191.9010 N   0  0  0  0  0  0  0  0  0  0  0  0
  152.6842  134.5429  192.7488 C   0  0  0  0  0  0  0  0  0  0  0  0
  152.0325  133.7007  193.7724 C   0  0  0  0  0  0  0  0  0  0  0  0
  152.4451  135.8932  192.6253 C   0  0  0  0  0  0  0  0  0  0  0  0
  153.1032  136.6148  191.6296 C   0  0  0  0  0  0  0  0  0  0  0  0
  151.5059  136.5505  193.5390 C   0  0  0  0  0  0  0  0  0  0  0  0
  150.1746  136.3362  193.1839 F   0  0  0  0  0  0  0  0  0  0  0  0
  151.6471  136.1769  194.8596 F   0  0  0  0  0  0  0  0  0  0  0  0
  151.6661  137.9378  193.5129 F   0  0  0  0  0  0  0  0  0  0  0  0
  154.3113  136.6733  183.8335 C   0  0  0  0  0  0  0  0  0  0  0  0
  153.8007  137.9625  184.0824 C   0  0  0  0  0  0  0  0  0  0  0  0
  154.0597  139.2176  183.5795 N   0  0  0  0  0  0  0  0  0  0  0  0
  153.0836  139.8328  182.8209 C   0  0  0  0  0  0  0  0  0  0  0  0
  153.4790  141.0161  182.4140 N   0  0  0  0  0  0  0  0  0  0  0  0
  154.6835  141.2663  182.8469 C   0  0  0  0  0  0  0  0  0  0  0  0
  155.5474  142.2873  182.7378 N   0  0  0  0  0  0  0  0  0  0  0  0
  155.1865  143.4542  181.9891 C   0  0  0  0  0  0  0  0  0  0  0  0
  156.7590  142.2255  183.3293 C   0  0  0  0  0  0  0  0  0  0  0  0
  157.5547  143.1897  183.2178 O   0  0  0  0  0  0  0  0  0  0  0  0
  157.1150  141.1182  184.0458 N   0  0  0  0  0  0  0  0  0  0  0  0
  156.2803  140.0748  184.1801 C   0  0  0  0  0  0  0  0  0  0  0  0
  156.6050  139.1008  184.8170 O   0  0  0  0  0  0  0  0  0  0  0  0
  155.0487  140.1269  183.5842 C   0  0  0  0  0  0  0  0  0  0  0  0
  158.4078  141.0297  184.6900 C   0  0  0  0  0  0  0  0  0  0  0  0
  159.4010  140.3859  183.7641 C   0  0  0  0  0  0  0  0  0  0  0  0
  158.9820  140.3353  182.4557 F   0  0  0  0  0  0  0  0  0  0  0  0
  159.5607  139.0651  184.1630 F   0  0  0  0  0  0  0  0  0  0  0  0
  160.6053  141.0562  183.7829 F   0  0  0  0  0  0  0  0  0  0  0  0
 21 22  1  0  0  0
 22  1  1  0  0  0
  1  2  2  0  0  0
  1  3  1  0  0  0
  3  5  1  0  0  0
  5  6  2  0  0  0
  6  7  1  0  0  0
  7  8  1  0  0  0
  8  9  2  0  0  0
  8 10  1  0  0  0
 10 11  2  0  0  0
 11 12  1  0  0  0
 12 13  2  0  0  0
 13 14  1  0  0  0
 13 15  1  0  0  0
 15 16  2  0  0  0
 15 17  1  0  0  0
 17 18  1  0  0  0
 17 19  1  0  0  0
 17 20  1  0  0  0
 22 23  1  0  0  0
 23 24  1  0  0  0
 24 25  2  0  0  0
 25 26  1  0  0  0
 26 27  1  0  0  0
 27 28  1  0  0  0
 27 29  1  0  0  0
 29 30  2  0  0  0
 29 31  1  0  0  0
 31 35  1  0  0  0
 35 36  1  0  0  0
 36 37  1  0  0  0
 36 38  1  0  0  0
 36 39  1  0  0  0
 31 32  1  0  0  0
 32 33  2  0  0  0
 32 34  1  0  0  0
  9  5  1  0  0  0
 16 10  1  0  0  0
 34 23  1  0  0  0
 34 26  2  0  0  0
  3  4  1  0  0  0
M  END
> <minimizedAffinity>
-8.00608

> <CNNscore>
0.3804270029

> <CNNaffinity>
6.5038604736

> <CNN_VS>
2.4742441177

> <CNNaffinity_variance>
0.1591152102

$$$$
[H]c1nc(C([H])([H])[H])c(C(F)(F)F)c([H])c1-c1nc(N([H])C(=O)[C@@]([H])(n2c([H])nc3c2c(=O)n(C([H])([H])C(F)(F)F)c(=O)n3C([H])([H])[H])C([H])([H])[H])c([H])s1


 39 42  0  0  0  0  0  0  0  0999 V2000
  154.8150  137.6115  188.8963 C   0  0  0  0  0  0  0  0  0  0  0  0
  155.9513  137.3756  188.4924 O   0  0  0  0  0  0  0  0  0  0  0  0
  153.8147  138.0371  187.9877 N   0  0  0  0  0  0  0  0  0  0  0  0
  152.8376  138.2502  188.2749 H   0  0  0  0  0  0  0  0  0  0  0  0
  154.0976  138.2063  186.5652 C   0  0  0  0  0  0  0  0  0  0  0  0
  153.2744  137.7194  185.5733 C   0  0  0  0  0  0  0  0  0  0  0  0
  154.0960  138.2079  184.1593 S   0  0  0  0  0  0  0  0  0  0  0  0
  155.4212  138.9928  184.8899 C   0  0  0  0  0  0  0  0  0  0  0  0
  155.1661  138.8401  186.1755 N   0  0  0  0  0  0  0  0  0  0  0  0
  156.5726  139.6760  184.2507 C   0  0  0  0  0  0  0  0  0  0  0  0
  157.7762  139.5974  184.8905 C   0  0  0  0  0  0  0  0  0  0  0  0
  158.8553  140.1856  184.3774 N   0  0  0  0  0  0  0  0  0  0  0  0
  158.7808  140.8784  183.2026 C   0  0  0  0  0  0  0  0  0  0  0  0
  160.0274  141.4983  182.7091 C   0  0  0  0  0  0  0  0  0  0  0  0
  157.5803  140.9745  182.5353 C   0  0  0  0  0  0  0  0  0  0  0  0
  156.4498  140.3588  183.0719 C   0  0  0  0  0  0  0  0  0  0  0  0
  157.5081  141.7195  181.2749 C   0  0  0  0  0  0  0  0  0  0  0  0
  158.0036  143.0177  181.3910 F   0  0  0  0  0  0  0  0  0  0  0  0
  158.1684  141.1171  180.2237 F   0  0  0  0  0  0  0  0  0  0  0  0
  156.1843  141.8760  180.8580 F   0  0  0  0  0  0  0  0  0  0  0  0
  155.1947  138.4083  191.0071 C   0  0  0  0  0  0  0  0  0  0  0  0
  154.3633  137.4831  190.3459 C   0  0  0  0  0  0  0  0  0  0  0  0
  154.0706  136.1494  190.5224 N   0  0  0  0  0  0  0  0  0  0  0  0
  152.7514  135.7514  190.4314 C   0  0  0  0  0  0  0  0  0  0  0  0
  152.6350  134.4586  190.6245 N   0  0  0  0  0  0  0  0  0  0  0  0
  153.8042  133.9253  190.8468 C   0  0  0  0  0  0  0  0  0  0  0  0
  154.2604  132.6886  191.0981 N   0  0  0  0  0  0  0  0  0  0  0  0
  153.3460  131.5880  191.1668 C   0  0  0  0  0  0  0  0  0  0  0  0
  155.5788  132.4704  191.2878 C   0  0  0  0  0  0  0  0  0  0  0  0
  155.9886  131.3072  191.5212 O   0  0  0  0  0  0  0  0  0  0  0  0
  156.4608  133.5116  191.2250 N   0  0  0  0  0  0  0  0  0  0  0  0
  156.0461  134.7644  190.9756 C   0  0  0  0  0  0  0  0  0  0  0  0
  156.8350  135.6779  190.9212 O   0  0  0  0  0  0  0  0  0  0  0  0
  154.7109  134.9972  190.7816 C   0  0  0  0  0  0  0  0  0  0  0  0
  157.8788  133.3020  191.4235 C   0  0  0  0  0  0  0  0  0  0  0  0
  158.5420  132.9939  190.1107 C   0  0  0  0  0  0  0  0  0  0  0  0
  157.6741  132.9807  189.0447 F   0  0  0  0  0  0  0  0  0  0  0  0
  159.0662  131.7101  190.1896 F   0  0  0  0  0  0  0  0  0  0  0  0
  159.5286  133.9131  189.8244 F   0  0  0  0  0  0  0  0  0  0  0  0
 21 22  1  0  0  0
 22  1  1  0  0  0
  1  2  2  0  0  0
  1  3  1  0  0  0
  3  5  1  0  0  0
  5  6  2  0  0  0
  6  7  1  0  0  0
  7  8  1  0  0  0
  8  9  2  0  0  0
  8 10  1  0  0  0
 10 11  2  0  0  0
 11 12  1  0  0  0
 12 13  2  0  0  0
 13 14  1  0  0  0
 13 15  1  0  0  0
 15 16  2  0  0  0
 15 17  1  0  0  0
 17 18  1  0  0  0
 17 19  1  0  0  0
 17 20  1  0  0  0
 22 23  1  0  0  0
 23 24  1  0  0  0
 24 25  2  0  0  0
 25 26  1  0  0  0
 26 27  1  0  0  0
 27 28  1  0  0  0
 27 29  1  0  0  0
 29 30  2  0  0  0
 29 31  1  0  0  0
 31 35  1  0  0  0
 35 36  1  0  0  0
 36 37  1  0  0  0
 36 38  1  0  0  0
 36 39  1  0  0  0
 31 32  1  0  0  0
 32 33  2  0  0  0
 32 34  1  0  0  0
  9  5  1  0  0  0
 16 10  1  0  0  0
 34 23  1  0  0  0
 34 26  2  0  0  0
  3  4  1  0  0  0
M  END
> <minimizedAffinity>
-7.05161

> <CNNscore>
0.3644571006

> <CNNaffinity>
6.5405225754

> <CNN_VS>
2.3837399483

> <CNNaffinity_variance>
0.0655125603

$$$$
[H]c1nc(C([H])([H])[H])c(C(F)(F)F)c([H])c1-c1nc(N([H])C(=O)[C@@]([H])(n2c([H])nc3c2c(=O)n(C([H])([H])C(F)(F)F)c(=O)n3C([H])([H])[H])C([H])([H])[H])c([H])s1


 39 42  0  0  0  0  0  0  0  0999 V2000
  153.9406  137.6563  184.6758 C   0  0  0  0  0  0  0  0  0  0  0  0
  154.4105  137.2774  183.6055 O   0  0  0  0  0  0  0  0  0  0  0  0
  154.1911  138.9738  185.1323 N   0  0  0  0  0  0  0  0  0  0  0  0
  153.8186  139.3463  186.0296 H   0  0  0  0  0  0  0  0  0  0  0  0
  155.0028  139.9087  184.3580 C   0  0  0  0  0  0  0  0  0  0  0  0
  154.5000  140.6501  183.3111 C   0  0  0  0  0  0  0  0  0  0  0  0
  155.8726  141.5319  182.8099 S   0  0  0  0  0  0  0  0  0  0  0  0
  156.9959  140.9226  183.9382 C   0  0  0  0  0  0  0  0  0  0  0  0
  156.2630  140.0777  184.6383 N   0  0  0  0  0  0  0  0  0  0  0  0
  158.4333  141.2527  184.0992 C   0  0  0  0  0  0  0  0  0  0  0  0
  159.2769  140.8636  183.0986 C   0  0  0  0  0  0  0  0  0  0  0  0
  160.5808  141.1247  183.1725 N   0  0  0  0  0  0  0  0  0  0  0  0
  161.1005  141.7861  184.2487 C   0  0  0  0  0  0  0  0  0  0  0  0
  162.5570  142.0317  184.2458 C   0  0  0  0  0  0  0  0  0  0  0  0
  160.2738  142.1906  185.2728 C   0  0  0  0  0  0  0  0  0  0  0  0
  158.9082  141.9175  185.1961 C   0  0  0  0  0  0  0  0  0  0  0  0
  160.8387  142.9001  186.4245 C   0  0  0  0  0  0  0  0  0  0  0  0
  161.8058  142.1507  187.0933 F   0  0  0  0  0  0  0  0  0  0  0  0
  161.4021  144.1210  186.1153 F   0  0  0  0  0  0  0  0  0  0  0  0
  159.8587  143.1613  187.3848 F   0  0  0  0  0  0  0  0  0  0  0  0
  152.1382  137.7348  186.0828 C   0  0  0  0  0  0  0  0  0  0  0  0
  153.0765  136.8033  185.5965 C   0  0  0  0  0  0  0  0  0  0  0  0
  153.9402  135.9062  186.1835 N   0  0  0  0  0  0  0  0  0  0  0  0
  153.9563  134.6086  185.7115 C   0  0  0  0  0  0  0  0  0  0  0  0
  154.8250  133.8783  186.3703 N   0  0  0  0  0  0  0  0  0  0  0  0
  155.4218  134.5945  187.2823 C   0  0  0  0  0  0  0  0  0  0  0  0
  156.3639  134.3703  188.2112 N   0  0  0  0  0  0  0  0  0  0  0  0
  156.9439  133.0670  188.3433 C   0  0  0  0  0  0  0  0  0  0  0  0
  156.7725  135.3654  189.0264 C   0  0  0  0  0  0  0  0  0  0  0  0
  157.6553  135.1387  189.8893 O   0  0  0  0  0  0  0  0  0  0  0  0
  156.2271  136.6125  188.9104 N   0  0  0  0  0  0  0  0  0  0  0  0
  155.2822  136.8794  187.9942 C   0  0  0  0  0  0  0  0  0  0  0  0
  154.8073  137.9863  187.8996 O   0  0  0  0  0  0  0  0  0  0  0  0
  154.8603  135.8773  187.1621 C   0  0  0  0  0  0  0  0  0  0  0  0
  156.6501  137.6955  189.7720 C   0  0  0  0  0  0  0  0  0  0  0  0
  155.8963  137.6439  191.0710 C   0  0  0  0  0  0  0  0  0  0  0  0
  154.7019  136.9684  190.9885 F   0  0  0  0  0  0  0  0  0  0  0  0
  155.5719  138.9468  191.4268 F   0  0  0  0  0  0  0  0  0  0  0  0
  156.6441  137.0350  192.0560 F   0  0  0  0  0  0  0  0  0  0  0  0
 21 22  1  0  0  0
 22  1  1  0  0  0
  1  2  2  0  0  0
  1  3  1  0  0  0
  3  5  1  0  0  0
  5  6  2  0  0  0
  6  7  1  0  0  0
  7  8  1  0  0  0
  8  9  2  0  0  0
  8 10  1  0  0  0
 10 11  2  0  0  0
 11 12  1  0  0  0
 12 13  2  0  0  0
 13 14  1  0  0  0
 13 15  1  0  0  0
 15 16  2  0  0  0
 15 17  1  0  0  0
 17 18  1  0  0  0
 17 19  1  0  0  0
 17 20  1  0  0  0
 22 23  1  0  0  0
 23 24  1  0  0  0
 24 25  2  0  0  0
 25 26  1  0  0  0
 26 27  1  0  0  0
 27 28  1  0  0  0
 27 29  1  0  0  0
 29 30  2  0  0  0
 29 31  1  0  0  0
 31 35  1  0  0  0
 35 36  1  0  0  0
 36 37  1  0  0  0
 36 38  1  0  0  0
 36 39  1  0  0  0
 31 32  1  0  0  0
 32 33  2  0  0  0
 32 34  1  0  0  0
  9  5  1  0  0  0
 16 10  1  0  0  0
 34 23  1  0  0  0
 34 26  2  0  0  0
  3  4  1  0  0  0
M  END
> <minimizedAffinity>
-8.63463

> <CNNscore>
0.3485862315

> <CNNaffinity>
6.9836258888

> <CNN_VS>
2.4343957901

> <CNNaffinity_variance>
0.2841250896

$$$$
[H]c1nc(C([H])([H])[H])c(C(F)(F)F)c([H])c1-c1nc(N([H])C(=O)[C@@]([H])(n2c([H])nc3c2c(=O)n(C([H])([H])C(F)(F)F)c(=O)n3C([H])([H])[H])C([H])([H])[H])c([H])s1


 39 42  0  0  0  0  0  0  0  0999 V2000
  153.6632  138.0250  185.9212 C   0  0  0  0  0  0  0  0  0  0  0  0
  153.3768  139.0455  186.5428 O   0  0  0  0  0  0  0  0  0  0  0  0
  154.5745  138.0877  184.8383 N   0  0  0  0  0  0  0  0  0  0  0  0
  154.8521  137.2558  184.2784 H   0  0  0  0  0  0  0  0  0  0  0  0
  155.1926  139.3470  184.4327 C   0  0  0  0  0  0  0  0  0  0  0  0
  154.4813  140.3858  183.8728 C   0  0  0  0  0  0  0  0  0  0  0  0
  155.7005  141.5524  183.6163 S   0  0  0  0  0  0  0  0  0  0  0  0
  157.0290  140.6739  184.2239 C   0  0  0  0  0  0  0  0  0  0  0  0
  156.4711  139.5358  184.5906 N   0  0  0  0  0  0  0  0  0  0  0  0
  158.4532  141.0783  184.3197 C   0  0  0  0  0  0  0  0  0  0  0  0
  159.2818  140.6828  183.3091 C   0  0  0  0  0  0  0  0  0  0  0  0
  160.5731  141.0080  183.3258 N   0  0  0  0  0  0  0  0  0  0  0  0
  161.0948  141.7428  184.3523 C   0  0  0  0  0  0  0  0  0  0  0  0
  162.5368  142.0562  184.2877 C   0  0  0  0  0  0  0  0  0  0  0  0
  160.2832  142.1556  185.3851 C   0  0  0  0  0  0  0  0  0  0  0  0
  158.9307  141.8153  185.3683 C   0  0  0  0  0  0  0  0  0  0  0  0
  160.8502  142.9440  186.4832 C   0  0  0  0  0  0  0  0  0  0  0  0
  161.8559  142.2628  187.1679 F   0  0  0  0  0  0  0  0  0  0  0  0
  161.3664  144.1634  186.0955 F   0  0  0  0  0  0  0  0  0  0  0  0
  159.8838  143.2262  187.4513 F   0  0  0  0  0  0  0  0  0  0  0  0
  151.9824  136.5733  185.3716 C   0  0  0  0  0  0  0  0  0  0  0  0
  153.1048  136.6391  186.2205 C   0  0  0  0  0  0  0  0  0  0  0  0
  153.3096  136.4440  187.5678 N   0  0  0  0  0  0  0  0  0  0  0  0
  152.2245  136.5446  188.4159 C   0  0  0  0  0  0  0  0  0  0  0  0
  152.5795  136.3362  189.6619 N   0  0  0  0  0  0  0  0  0  0  0  0
  153.8588  136.0939  189.7354 C   0  0  0  0  0  0  0  0  0  0  0  0
  154.7267  135.8217  190.7221 N   0  0  0  0  0  0  0  0  0  0  0  0
  154.2701  135.7489  192.0780 C   0  0  0  0  0  0  0  0  0  0  0  0
  156.0321  135.6150  190.4482 C   0  0  0  0  0  0  0  0  0  0  0  0
  156.8302  135.3608  191.3829 O   0  0  0  0  0  0  0  0  0  0  0  0
  156.4799  135.6819  189.1594 N   0  0  0  0  0  0  0  0  0  0  0  0
  155.6447  135.9512  188.1427 C   0  0  0  0  0  0  0  0  0  0  0  0
  156.0513  136.0070  187.0063 O   0  0  0  0  0  0  0  0  0  0  0  0
  154.3185  136.1626  188.4091 C   0  0  0  0  0  0  0  0  0  0  0  0
  157.8744  135.4625  188.8412 C   0  0  0  0  0  0  0  0  0  0  0  0
  158.1147  134.0061  188.5590 C   0  0  0  0  0  0  0  0  0  0  0  0
  157.1094  133.1843  189.0106 F   0  0  0  0  0  0  0  0  0  0  0  0
  159.2576  133.6220  189.2484 F   0  0  0  0  0  0  0  0  0  0  0  0
  158.2539  133.7781  187.2067 F   0  0  0  0  0  0  0  0  0  0  0  0
 21 22  1  0  0  0
 22  1  1  0  0  0
  1  2  2  0  0  0
  1  3  1  0  0  0
  3  5  1  0  0  0
  5  6  2  0  0  0
  6  7  1  0  0  0
  7  8  1  0  0  0
  8  9  2  0  0  0
  8 10  1  0  0  0
 10 11  2  0  0  0
 11 12  1  0  0  0
 12 13  2  0  0  0
 13 14  1  0  0  0
 13 15  1  0  0  0
 15 16  2  0  0  0
 15 17  1  0  0  0
 17 18  1  0  0  0
 17 19  1  0  0  0
 17 20  1  0  0  0
 22 23  1  0  0  0
 23 24  1  0  0  0
 24 25  2  0  0  0
 25 26  1  0  0  0
 26 27  1  0  0  0
 27 28  1  0  0  0
 27 29  1  0  0  0
 29 30  2  0  0  0
 29 31  1  0  0  0
 31 35  1  0  0  0
 35 36  1  0  0  0
 36 37  1  0  0  0
 36 38  1  0  0  0
 36 39  1  0  0  0
 31 32  1  0  0  0
 32 33  2  0  0  0
 32 34  1  0  0  0
  9  5  1  0  0  0
 16 10  1  0  0  0
 34 23  1  0  0  0
 34 26  2  0  0  0
  3  4  1  0  0  0
M  END
> <minimizedAffinity>
-8.33059

> <CNNscore>
0.3415776789

> <CNNaffinity>
6.8610854149

> <CNN_VS>
2.3435935974

> <CNNaffinity_variance>
0.2064232379

$$$$
[H]c1nc(C([H])([H])[H])c(C(F)(F)F)c([H])c1-c1nc(N([H])C(=O)[C@@]([H])(n2c([H])nc3c2c(=O)n(C([H])([H])C(F)(F)F)c(=O)n3C([H])([H])[H])C([H])([H])[H])c([H])s1


 39 42  0  0  0  0  0  0  0  0999 V2000
  154.9447  137.8748  188.7418 C   0  0  0  0  0  0  0  0  0  0  0  0
  153.9277  138.5624  188.6896 O   0  0  0  0  0  0  0  0  0  0  0  0
  155.6480  137.5594  187.5531 N   0  0  0  0  0  0  0  0  0  0  0  0
  156.5134  136.9819  187.5393 H   0  0  0  0  0  0  0  0  0  0  0  0
  155.1939  138.0337  186.2487 C   0  0  0  0  0  0  0  0  0  0  0  0
  154.1045  137.5013  185.5944 C   0  0  0  0  0  0  0  0  0  0  0  0
  154.0624  138.4297  184.1629 S   0  0  0  0  0  0  0  0  0  0  0  0
  155.4093  139.4299  184.4652 C   0  0  0  0  0  0  0  0  0  0  0  0
  155.8201  139.0017  185.6438 N   0  0  0  0  0  0  0  0  0  0  0  0
  155.9810  140.5093  183.6231 C   0  0  0  0  0  0  0  0  0  0  0  0
  155.5032  141.7728  183.8221 C   0  0  0  0  0  0  0  0  0  0  0  0
  155.9683  142.7933  183.1038 N   0  0  0  0  0  0  0  0  0  0  0  0
  156.9312  142.5979  182.1550 C   0  0  0  0  0  0  0  0  0  0  0  0
  157.3867  143.7871  181.4066 C   0  0  0  0  0  0  0  0  0  0  0  0
  157.4318  141.3347  181.9324 C   0  0  0  0  0  0  0  0  0  0  0  0
  156.9452  140.2654  182.6842 C   0  0  0  0  0  0  0  0  0  0  0  0
  158.4652  141.1326  180.9127 C   0  0  0  0  0  0  0  0  0  0  0  0
  157.9953  141.3655  179.6206 F   0  0  0  0  0  0  0  0  0  0  0  0
  159.5925  141.9084  181.0890 F   0  0  0  0  0  0  0  0  0  0  0  0
  158.9083  139.8082  180.9007 F   0  0  0  0  0  0  0  0  0  0  0  0
  156.7191  138.0692  190.1729 C   0  0  0  0  0  0  0  0  0  0  0  0
  155.5448  137.3058  190.0217 C   0  0  0  0  0  0  0  0  0  0  0  0
  155.2665  135.9579  189.9900 N   0  0  0  0  0  0  0  0  0  0  0  0
  154.1587  135.5022  190.6771 C   0  0  0  0  0  0  0  0  0  0  0  0
  154.0296  134.2022  190.5536 N   0  0  0  0  0  0  0  0  0  0  0  0
  154.9894  133.7184  189.8149 C   0  0  0  0  0  0  0  0  0  0  0  0
  155.3383  132.4992  189.3760 N   0  0  0  0  0  0  0  0  0  0  0  0
  154.5498  131.3572  189.7315 C   0  0  0  0  0  0  0  0  0  0  0  0
  156.4301  132.3375  188.5993 C   0  0  0  0  0  0  0  0  0  0  0  0
  156.7419  131.1902  188.1969 O   0  0  0  0  0  0  0  0  0  0  0  0
  157.1903  133.4185  188.2536 N   0  0  0  0  0  0  0  0  0  0  0  0
  156.8761  134.6557  188.6711 C   0  0  0  0  0  0  0  0  0  0  0  0
  157.5549  135.6051  188.3584 O   0  0  0  0  0  0  0  0  0  0  0  0
  155.7706  134.8313  189.4594 C   0  0  0  0  0  0  0  0  0  0  0  0
  158.3644  133.2701  187.4207 C   0  0  0  0  0  0  0  0  0  0  0  0
  159.5959  133.1865  188.2778 C   0  0  0  0  0  0  0  0  0  0  0  0
  159.3298  133.1893  189.6266 F   0  0  0  0  0  0  0  0  0  0  0  0
  160.3585  134.3225  188.0390 F   0  0  0  0  0  0  0  0  0  0  0  0
  160.3152  132.0428  188.0045 F   0  0  0  0  0  0  0  0  0  0  0  0
 21 22  1  0  0  0
 22  1  1  0  0  0
  1  2  2  0  0  0
  1  3  1  0  0  0
  3  5  1  0  0  0
  5  6  2  0  0  0
  6  7  1  0  0  0
  7  8  1  0  0  0
  8  9  2  0  0  0
  8 10  1  0  0  0
 10 11  2  0  0  0
 11 12  1  0  0  0
 12 13  2  0  0  0
 13 14  1  0  0  0
 13 15  1  0  0  0
 15 16  2  0  0  0
 15 17  1  0  0  0
 17 18  1  0  0  0
 17 19  1  0  0  0
 17 20  1  0  0  0
 22 23  1  0  0  0
 23 24  1  0  0  0
 24 25  2  0  0  0
 25 26  1  0  0  0
 26 27  1  0  0  0
 27 28  1  0  0  0
 27 29  1  0  0  0
 29 30  2  0  0  0
 29 31  1  0  0  0
 31 35  1  0  0  0
 35 36  1  0  0  0
 36 37  1  0  0  0
 36 38  1  0  0  0
 36 39  1  0  0  0
 31 32  1  0  0  0
 32 33  2  0  0  0
 32 34  1  0  0  0
  9  5  1  0  0  0
 16 10  1  0  0  0
 34 23  1  0  0  0
 34 26  2  0  0  0
  3  4  1  0  0  0
M  END
> <minimizedAffinity>
-7.99904

> <CNNscore>
0.3361226022

> <CNNaffinity>
6.5652341843

> <CNN_VS>
2.2067236900

> <CNNaffinity_variance>
0.1190122142

$$$$
[H]c1nc(C([H])([H])[H])c(C(F)(F)F)c([H])c1-c1nc(N([H])C(=O)[C@@]([H])(n2c([H])nc3c2c(=O)n(C([H])([H])C(F)(F)F)c(=O)n3C([H])([H])[H])C([H])([H])[H])c([H])s1


 39 42  0  0  0  0  0  0  0  0999 V2000
  153.7864  137.5639  186.2586 C   0  0  0  0  0  0  0  0  0  0  0  0
  153.5900  138.6332  186.8313 O   0  0  0  0  0  0  0  0  0  0  0  0
  154.3059  137.5516  184.9406 N   0  0  0  0  0  0  0  0  0  0  0  0
  154.4913  136.6762  184.4095 H   0  0  0  0  0  0  0  0  0  0  0  0
  154.6194  138.7892  184.2320 C   0  0  0  0  0  0  0  0  0  0  0  0
  153.7504  139.3870  183.3454 C   0  0  0  0  0  0  0  0  0  0  0  0
  154.6379  140.7577  182.8488 S   0  0  0  0  0  0  0  0  0  0  0  0
  156.0442  140.5041  183.7783 C   0  0  0  0  0  0  0  0  0  0  0  0
  155.7615  139.3858  184.4190 N   0  0  0  0  0  0  0  0  0  0  0  0
  157.2768  141.3264  183.8538 C   0  0  0  0  0  0  0  0  0  0  0  0
  158.2456  140.9171  184.7245 C   0  0  0  0  0  0  0  0  0  0  0  0
  159.3797  141.6043  184.8474 N   0  0  0  0  0  0  0  0  0  0  0  0
  159.5973  142.7308  184.1062 C   0  0  0  0  0  0  0  0  0  0  0  0
  160.8832  143.4289  184.3083 C   0  0  0  0  0  0  0  0  0  0  0  0
  158.6382  143.1674  183.2200 C   0  0  0  0  0  0  0  0  0  0  0  0
  157.4502  142.4483  183.0908 C   0  0  0  0  0  0  0  0  0  0  0  0
  158.8788  144.3771  182.4277 C   0  0  0  0  0  0  0  0  0  0  0  0
  157.6984  145.0325  182.0793 F   0  0  0  0  0  0  0  0  0  0  0  0
  159.6992  145.3009  183.0418 F   0  0  0  0  0  0  0  0  0  0  0  0
  159.4911  144.0682  181.2110 F   0  0  0  0  0  0  0  0  0  0  0  0
  152.1682  135.9647  186.5004 C   0  0  0  0  0  0  0  0  0  0  0  0
  153.5110  136.1916  186.8609 C   0  0  0  0  0  0  0  0  0  0  0  0
  154.2108  136.1638  188.0462 N   0  0  0  0  0  0  0  0  0  0  0  0
  155.5701  136.4039  188.0094 C   0  0  0  0  0  0  0  0  0  0  0  0
  156.0925  136.3408  189.2115 N   0  0  0  0  0  0  0  0  0  0  0  0
  155.1712  136.0686  190.0935 C   0  0  0  0  0  0  0  0  0  0  0  0
  155.1408  135.8934  191.4236 N   0  0  0  0  0  0  0  0  0  0  0  0
  156.3470  136.0046  192.1885 C   0  0  0  0  0  0  0  0  0  0  0  0
  153.9794  135.6119  192.0509 C   0  0  0  0  0  0  0  0  0  0  0  0
  153.9687  135.4517  193.2958 O   0  0  0  0  0  0  0  0  0  0  0  0
  152.8226  135.5030  191.3327 N   0  0  0  0  0  0  0  0  0  0  0  0
  152.8090  135.6713  190.0004 C   0  0  0  0  0  0  0  0  0  0  0  0
  151.7798  135.5738  189.3750 O   0  0  0  0  0  0  0  0  0  0  0  0
  153.9815  135.9572  189.3537 C   0  0  0  0  0  0  0  0  0  0  0  0
  151.5652  135.2035  191.9834 C   0  0  0  0  0  0  0  0  0  0  0  0
  150.8900  136.4768  192.4089 C   0  0  0  0  0  0  0  0  0  0  0  0
  151.7601  137.5228  192.6053 F   0  0  0  0  0  0  0  0  0  0  0  0
  150.2871  136.2482  193.6391 F   0  0  0  0  0  0  0  0  0  0  0  0
  149.9634  136.8848  191.4734 F   0  0  0  0  0  0  0  0  0  0  0  0
 21 22  1  0  0  0
 22  1  1  0  0  0
  1  2  2  0  0  0
  1  3  1  0  0  0
  3  5  1  0  0  0
  5  6  2  0  0  0
  6  7  1  0  0  0
  7  8  1  0  0  0
  8  9  2  0  0  0
  8 10  1  0  0  0
 10 11  2  0  0  0
 11 12  1  0  0  0
 12 13  2  0  0  0
 13 14  1  0  0  0
 13 15  1  0  0  0
 15 16  2  0  0  0
 15 17  1  0  0  0
 17 18  1  0  0  0
 17 19  1  0  0  0
 17 20  1  0  0  0
 22 23  1  0  0  0
 23 24  1  0  0  0
 24 25  2  0  0  0
 25 26  1  0  0  0
 26 27  1  0  0  0
 27 28  1  0  0  0
 27 29  1  0  0  0
 29 30  2  0  0  0
 29 31  1  0  0  0
 31 35  1  0  0  0
 35 36  1  0  0  0
 36 37  1  0  0  0
 36 38  1  0  0  0
 36 39  1  0  0  0
 31 32  1  0  0  0
 32 33  2  0  0  0
 32 34  1  0  0  0
  9  5  1  0  0  0
 16 10  1  0  0  0
 34 23  1  0  0  0
 34 26  2  0  0  0
  3  4  1  0  0  0
M  END
> <minimizedAffinity>
-8.07814

> <CNNscore>
0.3257581890

> <CNNaffinity>
6.5352387428

> <CNN_VS>
2.1289074421

> <CNNaffinity_variance>
0.1180102080

$$$$
[H]c1c(C([H])([H])n2c(=O)c3c(nc([H])n3C([H])([H])C(=O)N([H])[H])n(C([H])([H])[H])c2=O)noc1C([H])([H])[H]


 25 27  0  0  0  0  0  0  0  0999 V2000
  154.3043  138.0859  185.4532 N   0  0  0  0  0  0  0  0  0  0  0  0
  153.0011  137.7624  185.4538 C   0  0  0  0  0  0  0  0  0  0  0  0
  152.3616  137.7391  184.3491 O   0  0  0  0  0  0  0  0  0  0  0  0
  152.3290  137.4581  186.5790 N   0  0  0  0  0  0  0  0  0  0  0  0
  150.9172  137.1133  186.5150 C   0  0  0  0  0  0  0  0  0  0  0  0
  153.0016  137.4825  187.7442 C   0  0  0  0  0  0  0  0  0  0  0  0
  152.6489  137.2436  189.0172 N   0  0  0  0  0  0  0  0  0  0  0  0
  153.7220  137.4143  189.8098 C   0  0  0  0  0  0  0  0  0  0  0  0
  154.8011  137.7719  189.0507 N   0  0  0  0  0  0  0  0  0  0  0  0
  154.3596  137.8126  187.8012 C   0  0  0  0  0  0  0  0  0  0  0  0
  154.9799  138.1120  186.6156 C   0  0  0  0  0  0  0  0  0  0  0  0
  156.2218  138.4190  186.6425 O   0  0  0  0  0  0  0  0  0  0  0  0
  155.0478  138.4152  184.2606 C   0  0  0  0  0  0  0  0  0  0  0  0
  153.9774  143.1524  182.8753 C   0  0  0  0  0  0  0  0  0  0  0  0
  154.6781  141.9398  183.3809 C   0  0  0  0  0  0  0  0  0  0  0  0
  154.1398  140.6502  183.4625 C   0  0  0  0  0  0  0  0  0  0  0  0
  155.1149  139.8409  183.9806 C   0  0  0  0  0  0  0  0  0  0  0  0
  156.1872  140.6209  184.1969 N   0  0  0  0  0  0  0  0  0  0  0  0
  155.8847  141.8282  183.8336 O   0  0  0  0  0  0  0  0  0  0  0  0
  156.1079  138.0057  189.6274 C   0  0  0  0  0  0  0  0  0  0  0  0
  156.5141  136.9295  190.5640 C   0  0  0  0  0  0  0  0  0  0  0  0
  156.8323  135.6392  190.0830 N   0  0  0  0  0  0  0  0  0  0  0  0
  156.5926  137.1103  191.8008 O   0  0  0  0  0  0  0  0  0  0  0  0
  157.7145  135.1947  190.3809 H   0  0  0  0  0  0  0  0  0  0  0  0
  156.1947  135.1452  189.4425 H   0  0  0  0  0  0  0  0  0  0  0  0
 14 15  1  0  0  0
 15 16  2  0  0  0
 16 17  1  0  0  0
 17 13  1  0  0  0
 13  1  1  0  0  0
  1  2  1  0  0  0
  2  3  2  0  0  0
  2  4  1  0  0  0
  4  5  1  0  0  0
  4  6  1  0  0  0
  6  7  1  0  0  0
  7  8  2  0  0  0
  8  9  1  0  0  0
  9 20  1  0  0  0
 20 21  1  0  0  0
 21 22  1  0  0  0
 21 23  2  0  0  0
  9 10  1  0  0  0
 10 11  1  0  0  0
 11 12  2  0  0  0
 17 18  2  0  0  0
 18 19  1  0  0  0
 19 15  1  0  0  0
 11  1  1  0  0  0
 10  6  2  0  0  0
 22 24  1  0  0  0
 22 25  1  0  0  0
M  END
> <minimizedAffinity>
-5.53146

> <CNNscore>
0.6612976789

> <CNNaffinity>
5.0067863464

> <CNN_VS>
3.3109762669

> <CNNaffinity_variance>
0.3127439320

$$$$
[H]c1c(C([H])([H])n2c(=O)c3c(nc([H])n3C([H])([H])C(=O)N([H])[H])n(C([H])([H])[H])c2=O)noc1C([H])([H])[H]


 25 27  0  0  0  0  0  0  0  0999 V2000
  153.5654  137.3100  187.5861 N   0  0  0  0  0  0  0  0  0  0  0  0
  154.7887  137.6834  187.9948 C   0  0  0  0  0  0  0  0  0  0  0  0
  155.6479  138.0645  187.1308 O   0  0  0  0  0  0  0  0  0  0  0  0
  155.1561  137.6741  189.2892 N   0  0  0  0  0  0  0  0  0  0  0  0
  156.4963  138.0924  189.6702 C   0  0  0  0  0  0  0  0  0  0  0  0
  154.2518  137.2724  190.2009 C   0  0  0  0  0  0  0  0  0  0  0  0
  154.2852  137.1411  191.5364 N   0  0  0  0  0  0  0  0  0  0  0  0
  153.0922  136.6902  191.9635 C   0  0  0  0  0  0  0  0  0  0  0  0
  152.2565  136.5200  190.8952 N   0  0  0  0  0  0  0  0  0  0  0  0
  152.9634  136.8730  189.8305 C   0  0  0  0  0  0  0  0  0  0  0  0
  152.6588  136.9074  188.4940 C   0  0  0  0  0  0  0  0  0  0  0  0
  151.4869  136.5448  188.1304 O   0  0  0  0  0  0  0  0  0  0  0  0
  153.1466  137.3119  186.2047 C   0  0  0  0  0  0  0  0  0  0  0  0
  154.8502  134.2575  182.5613 C   0  0  0  0  0  0  0  0  0  0  0  0
  154.3589  134.7849  183.8642 C   0  0  0  0  0  0  0  0  0  0  0  0
  154.0010  136.1109  184.1350 C   0  0  0  0  0  0  0  0  0  0  0  0
  153.6084  136.1604  185.4455 C   0  0  0  0  0  0  0  0  0  0  0  0
  153.7293  134.9135  185.9306 N   0  0  0  0  0  0  0  0  0  0  0  0
  154.1676  134.1528  184.9765 O   0  0  0  0  0  0  0  0  0  0  0  0
  150.8923  136.0611  191.0469 C   0  0  0  0  0  0  0  0  0  0  0  0
  150.7795  134.5842  190.9659 C   0  0  0  0  0  0  0  0  0  0  0  0
  150.7956  133.9289  189.7138 N   0  0  0  0  0  0  0  0  0  0  0  0
  150.6669  133.8629  191.9835 O   0  0  0  0  0  0  0  0  0  0  0  0
  151.4358  133.1324  189.5711 H   0  0  0  0  0  0  0  0  0  0  0  0
  150.1781  134.2396  188.9503 H   0  0  0  0  0  0  0  0  0  0  0  0
 14 15  1  0  0  0
 15 16  2  0  0  0
 16 17  1  0  0  0
 17 13  1  0  0  0
 13  1  1  0  0  0
  1  2  1  0  0  0
  2  3  2  0  0  0
  2  4  1  0  0  0
  4  5  1  0  0  0
  4  6  1  0  0  0
  6  7  1  0  0  0
  7  8  2  0  0  0
  8  9  1  0  0  0
  9 20  1  0  0  0
 20 21  1  0  0  0
 21 22  1  0  0  0
 21 23  2  0  0  0
  9 10  1  0  0  0
 10 11  1  0  0  0
 11 12  2  0  0  0
 17 18  2  0  0  0
 18 19  1  0  0  0
 19 15  1  0  0  0
 11  1  1  0  0  0
 10  6  2  0  0  0
 22 24  1  0  0  0
 22 25  1  0  0  0
M  END
> <minimizedAffinity>
-3.81093

> <CNNscore>
0.5417464375

> <CNNaffinity>
4.6097984314

> <CNN_VS>
2.4973418713

> <CNNaffinity_variance>
0.1577201188

$$$$
[H]c1c(C([H])([H])n2c(=O)c3c(nc([H])n3C([H])([H])C(=O)N([H])[H])n(C([H])([H])[H])c2=O)noc1C([H])([H])[H]


 25 27  0  0  0  0  0  0  0  0999 V2000
  158.5388  141.7460  183.2364 N   0  0  0  0  0  0  0  0  0  0  0  0
  158.0861  142.9217  182.7720 C   0  0  0  0  0  0  0  0  0  0  0  0
  158.9185  143.8536  182.5103 O   0  0  0  0  0  0  0  0  0  0  0  0
  156.7790  143.1668  182.5673 N   0  0  0  0  0  0  0  0  0  0  0  0
  156.3501  144.4610  182.0600 C   0  0  0  0  0  0  0  0  0  0  0  0
  155.9003  142.1858  182.8429 C   0  0  0  0  0  0  0  0  0  0  0  0
  154.5635  142.0958  182.7607 N   0  0  0  0  0  0  0  0  0  0  0  0
  154.1794  140.8732  183.1688 C   0  0  0  0  0  0  0  0  0  0  0  0
  155.2780  140.1427  183.5269 N   0  0  0  0  0  0  0  0  0  0  0  0
  156.3171  140.9420  183.3286 C   0  0  0  0  0  0  0  0  0  0  0  0
  157.6639  140.7631  183.5135 C   0  0  0  0  0  0  0  0  0  0  0  0
  158.0693  139.6342  183.9589 O   0  0  0  0  0  0  0  0  0  0  0  0
  159.9349  141.4579  183.4634 C   0  0  0  0  0  0  0  0  0  0  0  0
  162.8736  142.9880  187.2752 C   0  0  0  0  0  0  0  0  0  0  0  0
  161.6956  142.5955  186.4533 C   0  0  0  0  0  0  0  0  0  0  0  0
  161.7242  142.1790  185.1171 C   0  0  0  0  0  0  0  0  0  0  0  0
  160.4314  141.9170  184.7512 C   0  0  0  0  0  0  0  0  0  0  0  0
  159.6684  142.1687  185.8279 N   0  0  0  0  0  0  0  0  0  0  0  0
  160.4468  142.5589  186.7886 O   0  0  0  0  0  0  0  0  0  0  0  0
  155.1789  138.7753  183.9908 C   0  0  0  0  0  0  0  0  0  0  0  0
  155.0097  138.6875  185.4619 C   0  0  0  0  0  0  0  0  0  0  0  0
  156.1290  138.5047  186.3053 N   0  0  0  0  0  0  0  0  0  0  0  0
  153.8890  138.7696  186.0147 O   0  0  0  0  0  0  0  0  0  0  0  0
  156.2558  139.1307  187.1156 H   0  0  0  0  0  0  0  0  0  0  0  0
  156.8125  137.7576  186.1167 H   0  0  0  0  0  0  0  0  0  0  0  0
 14 15  1  0  0  0
 15 16  2  0  0  0
 16 17  1  0  0  0
 17 13  1  0  0  0
 13  1  1  0  0  0
  1  2  1  0  0  0
  2  3  2  0  0  0
  2  4  1  0  0  0
  4  5  1  0  0  0
  4  6  1  0  0  0
  6  7  1  0  0  0
  7  8  2  0  0  0
  8  9  1  0  0  0
  9 20  1  0  0  0
 20 21  1  0  0  0
 21 22  1  0  0  0
 21 23  2  0  0  0
  9 10  1  0  0  0
 10 11  1  0  0  0
 11 12  2  0  0  0
 17 18  2  0  0  0
 18 19  1  0  0  0
 19 15  1  0  0  0
 11  1  1  0  0  0
 10  6  2  0  0  0
 22 24  1  0  0  0
 22 25  1  0  0  0
M  END
> <minimizedAffinity>
-7.33231

> <CNNscore>
0.5243850946

> <CNNaffinity>
5.8829669952

> <CNN_VS>
3.0849401951

> <CNNaffinity_variance>
0.1672145426

$$$$
[H]c1c(C([H])([H])n2c(=O)c3c(nc([H])n3C([H])([H])C(=O)N([H])[H])n(C([H])([H])[H])c2=O)noc1C([H])([H])[H]


 25 27  0  0  0  0  0  0  0  0999 V2000
  155.0850  136.3685  190.3909 N   0  0  0  0  0  0  0  0  0  0  0  0
  155.5208  135.1767  189.9519 C   0  0  0  0  0  0  0  0  0  0  0  0
  156.3648  135.1327  188.9950 O   0  0  0  0  0  0  0  0  0  0  0  0
  155.1036  134.0116  190.4800 N   0  0  0  0  0  0  0  0  0  0  0  0
  155.6142  132.7516  189.9624 C   0  0  0  0  0  0  0  0  0  0  0  0
  154.2139  134.0562  191.4883 C   0  0  0  0  0  0  0  0  0  0  0  0
  153.6025  133.1118  192.2206 N   0  0  0  0  0  0  0  0  0  0  0  0
  152.7903  133.7053  193.1133 C   0  0  0  0  0  0  0  0  0  0  0  0
  152.8645  135.0627  192.9700 N   0  0  0  0  0  0  0  0  0  0  0  0
  153.7269  135.2700  191.9845 C   0  0  0  0  0  0  0  0  0  0  0  0
  154.1954  136.4175  191.3981 C   0  0  0  0  0  0  0  0  0  0  0  0
  153.7630  137.5402  191.8336 O   0  0  0  0  0  0  0  0  0  0  0  0
  155.5174  137.6317  189.8423 C   0  0  0  0  0  0  0  0  0  0  0  0
  154.4913  138.4911  184.9725 C   0  0  0  0  0  0  0  0  0  0  0  0
  154.3804  138.3746  186.4529 C   0  0  0  0  0  0  0  0  0  0  0  0
  155.3870  137.9410  187.3237 C   0  0  0  0  0  0  0  0  0  0  0  0
  154.8682  137.9854  188.5897 C   0  0  0  0  0  0  0  0  0  0  0  0
  153.6051  138.4276  188.4725 N   0  0  0  0  0  0  0  0  0  0  0  0
  153.3694  138.6392  187.2152 O   0  0  0  0  0  0  0  0  0  0  0  0
  152.1129  135.9705  193.8102 C   0  0  0  0  0  0  0  0  0  0  0  0
  150.7768  136.2867  193.2485 C   0  0  0  0  0  0  0  0  0  0  0  0
  150.6503  137.1415  192.1301 N   0  0  0  0  0  0  0  0  0  0  0  0
  149.7189  135.8200  193.7297 O   0  0  0  0  0  0  0  0  0  0  0  0
  150.0813  136.8360  191.3254 H   0  0  0  0  0  0  0  0  0  0  0  0
  151.1190  138.0584  192.1139 H   0  0  0  0  0  0  0  0  0  0  0  0
 14 15  1  0  0  0
 15 16  2  0  0  0
 16 17  1  0  0  0
 17 13  1  0  0  0
 13  1  1  0  0  0
  1  2  1  0  0  0
  2  3  2  0  0  0
  2  4  1  0  0  0
  4  5  1  0  0  0
  4  6  1  0  0  0
  6  7  1  0  0  0
  7  8  2  0  0  0
  8  9  1  0  0  0
  9 20  1  0  0  0
 20 21  1  0  0  0
 21 22  1  0  0  0
 21 23  2  0  0  0
  9 10  1  0  0  0
 10 11  1  0  0  0
 11 12  2  0  0  0
 17 18  2  0  0  0
 18 19  1  0  0  0
 19 15  1  0  0  0
 11  1  1  0  0  0
 10  6  2  0  0  0
 22 24  1  0  0  0
 22 25  1  0  0  0
M  END
> <minimizedAffinity>
-5.06836

> <CNNscore>
0.4604072869

> <CNNaffinity>
4.5690588951

> <CNN_VS>
2.1036279202

> <CNNaffinity_variance>
0.4055431783

$$$$
[H]c1c(C([H])([H])n2c(=O)c3c(nc([H])n3C([H])([H])C(=O)N([H])[H])n(C([H])([H])[H])c2=O)noc1C([H])([H])[H]


 25 27  0  0  0  0  0  0  0  0999 V2000
  154.3850  136.5543  188.2617 N   0  0  0  0  0  0  0  0  0  0  0  0
  155.3188  137.1314  189.0350 C   0  0  0  0  0  0  0  0  0  0  0  0
  156.4625  137.4036  188.5373 O   0  0  0  0  0  0  0  0  0  0  0  0
  155.1026  137.4398  190.3267 N   0  0  0  0  0  0  0  0  0  0  0  0
  156.1538  138.0666  191.1130 C   0  0  0  0  0  0  0  0  0  0  0  0
  153.8978  137.1532  190.8527 C   0  0  0  0  0  0  0  0  0  0  0  0
  153.3619  137.3175  192.0725 N   0  0  0  0  0  0  0  0  0  0  0  0
  152.1013  136.8487  192.0654 C   0  0  0  0  0  0  0  0  0  0  0  0
  151.7979  136.3665  190.8228 N   0  0  0  0  0  0  0  0  0  0  0  0
  152.8889  136.5523  190.0926 C   0  0  0  0  0  0  0  0  0  0  0  0
  153.1798  136.2658  188.7837 C   0  0  0  0  0  0  0  0  0  0  0  0
  152.2734  135.7141  188.0686 O   0  0  0  0  0  0  0  0  0  0  0  0
  154.5916  136.2146  186.8740 C   0  0  0  0  0  0  0  0  0  0  0  0
  154.7718  140.3551  183.9879 C   0  0  0  0  0  0  0  0  0  0  0  0
  154.3183  139.1083  184.6637 C   0  0  0  0  0  0  0  0  0  0  0  0
  155.0612  138.3461  185.5730 C   0  0  0  0  0  0  0  0  0  0  0  0
  154.2741  137.2908  185.9484 C   0  0  0  0  0  0  0  0  0  0  0  0
  153.1121  137.4233  185.2874 N   0  0  0  0  0  0  0  0  0  0  0  0
  153.1864  138.4914  184.5561 O   0  0  0  0  0  0  0  0  0  0  0  0
  150.4990  135.8128  190.5049 C   0  0  0  0  0  0  0  0  0  0  0  0
  150.2588  134.5117  191.1755 C   0  0  0  0  0  0  0  0  0  0  0  0
  149.1129  134.3173  191.9797 N   0  0  0  0  0  0  0  0  0  0  0  0
  151.0449  133.5432  191.0627 O   0  0  0  0  0  0  0  0  0  0  0  0
  148.5216  133.4869  191.8204 H   0  0  0  0  0  0  0  0  0  0  0  0
  148.8671  134.9939  192.7163 H   0  0  0  0  0  0  0  0  0  0  0  0
 14 15  1  0  0  0
 15 16  2  0  0  0
 16 17  1  0  0  0
 17 13  1  0  0  0
 13  1  1  0  0  0
  1  2  1  0  0  0
  2  3  2  0  0  0
  2  4  1  0  0  0
  4  5  1  0  0  0
  4  6  1  0  0  0
  6  7  1  0  0  0
  7  8  2  0  0  0
  8  9  1  0  0  0
  9 20  1  0  0  0
 20 21  1  0  0  0
 21 22  1  0  0  0
 21 23  2  0  0  0
  9 10  1  0  0  0
 10 11  1  0  0  0
 11 12  2  0  0  0
 17 18  2  0  0  0
 18 19  1  0  0  0
 19 15  1  0  0  0
 11  1  1  0  0  0
 10  6  2  0  0  0
 22 24  1  0  0  0
 22 25  1  0  0  0
M  END
> <minimizedAffinity>
-4.34986

> <CNNscore>
0.4496489167

> <CNNaffinity>
4.6870446205

> <CNN_VS>
2.1075246334

> <CNNaffinity_variance>
0.1997754425

$$$$
[H]c1c(C([H])([H])n2c(=O)c3c(nc([H])n3C([H])([H])C(=O)N([H])[H])n(C([H])([H])[H])c2=O)noc1C([H])([H])[H]


 25 27  0  0  0  0  0  0  0  0999 V2000
  158.1213  140.9268  183.0439 N   0  0  0  0  0  0  0  0  0  0  0  0
  157.8991  141.6433  181.9302 C   0  0  0  0  0  0  0  0  0  0  0  0
  157.1796  141.1468  180.9999 O   0  0  0  0  0  0  0  0  0  0  0  0
  158.4064  142.8759  181.7466 N   0  0  0  0  0  0  0  0  0  0  0  0
  158.1283  143.6038  180.5182 C   0  0  0  0  0  0  0  0  0  0  0  0
  159.1652  143.4005  182.7261 C   0  0  0  0  0  0  0  0  0  0  0  0
  159.8119  144.5685  182.8658 N   0  0  0  0  0  0  0  0  0  0  0  0
  160.4342  144.5864  184.0580 C   0  0  0  0  0  0  0  0  0  0  0  0
  160.1965  143.4128  184.7175 N   0  0  0  0  0  0  0  0  0  0  0  0
  159.4286  142.6980  183.9068 C   0  0  0  0  0  0  0  0  0  0  0  0
  158.8795  141.4472  184.0251 C   0  0  0  0  0  0  0  0  0  0  0  0
  159.1080  140.7843  185.0953 O   0  0  0  0  0  0  0  0  0  0  0  0
  157.5882  139.6038  183.2655 C   0  0  0  0  0  0  0  0  0  0  0  0
  153.6489  138.7232  186.3008 C   0  0  0  0  0  0  0  0  0  0  0  0
  154.5130  139.2281  185.1982 C   0  0  0  0  0  0  0  0  0  0  0  0
  155.8653  138.9227  185.0046 C   0  0  0  0  0  0  0  0  0  0  0  0
  156.2708  139.5930  183.8819 C   0  0  0  0  0  0  0  0  0  0  0  0
  155.2009  140.2680  183.4296 N   0  0  0  0  0  0  0  0  0  0  0  0
  154.2071  140.0244  184.2258 O   0  0  0  0  0  0  0  0  0  0  0  0
  160.7231  143.1493  186.0397 C   0  0  0  0  0  0  0  0  0  0  0  0
  162.1122  142.6302  186.0025 C   0  0  0  0  0  0  0  0  0  0  0  0
  162.9609  142.7646  187.1247 N   0  0  0  0  0  0  0  0  0  0  0  0
  162.5889  142.0597  184.9947 O   0  0  0  0  0  0  0  0  0  0  0  0
  163.4636  141.9354  187.4773 H   0  0  0  0  0  0  0  0  0  0  0  0
  163.0785  143.6768  187.5883 H   0  0  0  0  0  0  0  0  0  0  0  0
 14 15  1  0  0  0
 15 16  2  0  0  0
 16 17  1  0  0  0
 17 13  1  0  0  0
 13  1  1  0  0  0
  1  2  1  0  0  0
  2  3  2  0  0  0
  2  4  1  0  0  0
  4  5  1  0  0  0
  4  6  1  0  0  0
  6  7  1  0  0  0
  7  8  2  0  0  0
  8  9  1  0  0  0
  9 20  1  0  0  0
 20 21  1  0  0  0
 21 22  1  0  0  0
 21 23  2  0  0  0
  9 10  1  0  0  0
 10 11  1  0  0  0
 11 12  2  0  0  0
 17 18  2  0  0  0
 18 19  1  0  0  0
 19 15  1  0  0  0
 11  1  1  0  0  0
 10  6  2  0  0  0
 22 24  1  0  0  0
 22 25  1  0  0  0
M  END
> <minimizedAffinity>
-7.37692

> <CNNscore>
0.4429340363

> <CNNaffinity>
6.1759138107

> <CNN_VS>
2.7355225086

> <CNNaffinity_variance>
0.0988064930

$$$$
[H]c1c(C([H])([H])n2c(=O)c3c(nc([H])n3C([H])([H])C(=O)N([H])[H])n(C([H])([H])[H])c2=O)noc1C([H])([H])[H]


 25 27  0  0  0  0  0  0  0  0999 V2000
  154.8842  140.3329  183.5728 N   0  0  0  0  0  0  0  0  0  0  0  0
  155.0773  139.2510  184.3445 C   0  0  0  0  0  0  0  0  0  0  0  0
  156.1075  139.1944  185.0963 O   0  0  0  0  0  0  0  0  0  0  0  0
  154.2247  138.2103  184.3621 N   0  0  0  0  0  0  0  0  0  0  0  0
  154.4873  137.0665  185.2217 C   0  0  0  0  0  0  0  0  0  0  0  0
  153.1385  138.2683  183.5700 C   0  0  0  0  0  0  0  0  0  0  0  0
  152.1157  137.4284  183.3452 N   0  0  0  0  0  0  0  0  0  0  0  0
  151.2862  137.9786  182.4408 C   0  0  0  0  0  0  0  0  0  0  0  0
  151.7667  139.2006  182.0607 N   0  0  0  0  0  0  0  0  0  0  0  0
  152.8885  139.3709  182.7464 C   0  0  0  0  0  0  0  0  0  0  0  0
  153.8002  140.3946  182.7794 C   0  0  0  0  0  0  0  0  0  0  0  0
  153.5942  141.4133  182.0332 O   0  0  0  0  0  0  0  0  0  0  0  0
  155.7827  141.4621  183.5364 C   0  0  0  0  0  0  0  0  0  0  0  0
  158.7248  142.7717  179.6461 C   0  0  0  0  0  0  0  0  0  0  0  0
  158.0123  141.9886  180.6930 C   0  0  0  0  0  0  0  0  0  0  0  0
  157.1312  142.5033  181.6513 C   0  0  0  0  0  0  0  0  0  0  0  0
  156.7047  141.4478  182.4116 C   0  0  0  0  0  0  0  0  0  0  0  0
  157.3096  140.3524  181.9226 N   0  0  0  0  0  0  0  0  0  0  0  0
  158.0567  140.7173  180.9278 O   0  0  0  0  0  0  0  0  0  0  0  0
  151.0733  140.0411  181.1080 C   0  0  0  0  0  0  0  0  0  0  0  0
  151.4901  139.7746  179.7096 C   0  0  0  0  0  0  0  0  0  0  0  0
  150.5679  139.9052  178.6465 N   0  0  0  0  0  0  0  0  0  0  0  0
  152.6561  139.4281  179.4111 O   0  0  0  0  0  0  0  0  0  0  0  0
  150.8291  140.4648  177.8199 H   0  0  0  0  0  0  0  0  0  0  0  0
  149.6453  139.4496  178.6924 H   0  0  0  0  0  0  0  0  0  0  0  0
 14 15  1  0  0  0
 15 16  2  0  0  0
 16 17  1  0  0  0
 17 13  1  0  0  0
 13  1  1  0  0  0
  1  2  1  0  0  0
  2  3  2  0  0  0
  2  4  1  0  0  0
  4  5  1  0  0  0
  4  6  1  0  0  0
  6  7  1  0  0  0
  7  8  2  0  0  0
  8  9  1  0  0  0
  9 20  1  0  0  0
 20 21  1  0  0  0
 21 22  1  0  0  0
 21 23  2  0  0  0
  9 10  1  0  0  0
 10 11  1  0  0  0
 11 12  2  0  0  0
 17 18  2  0  0  0
 18 19  1  0  0  0
 19 15  1  0  0  0
 11  1  1  0  0  0
 10  6  2  0  0  0
 22 24  1  0  0  0
 22 25  1  0  0  0
M  END
> <minimizedAffinity>
-6.73752

> <CNNscore>
0.4306215346

> <CNNaffinity>
5.0361566544

> <CNN_VS>
2.1686775684

> <CNNaffinity_variance>
0.2983981371

$$$$
[H]c1c(C([H])([H])n2c(=O)c3c(nc([H])n3C([H])([H])C(=O)N([H])[H])n(C([H])([H])[H])c2=O)noc1C([H])([H])[H]


 25 27  0  0  0  0  0  0  0  0999 V2000
  154.6269  138.3557  184.6531 N   0  0  0  0  0  0  0  0  0  0  0  0
  155.4689  139.3721  184.4064 C   0  0  0  0  0  0  0  0  0  0  0  0
  156.5244  139.4961  185.1137 O   0  0  0  0  0  0  0  0  0  0  0  0
  155.2490  140.2780  183.4361 N   0  0  0  0  0  0  0  0  0  0  0  0
  156.2000  141.3564  183.2156 C   0  0  0  0  0  0  0  0  0  0  0  0
  154.1368  140.1488  182.6899 C   0  0  0  0  0  0  0  0  0  0  0  0
  153.6221  140.8571  181.6723 N   0  0  0  0  0  0  0  0  0  0  0  0
  152.4669  140.2897  181.2820 C   0  0  0  0  0  0  0  0  0  0  0  0
  152.2126  139.1896  182.0525 N   0  0  0  0  0  0  0  0  0  0  0  0
  153.2258  139.1091  182.9037 C   0  0  0  0  0  0  0  0  0  0  0  0
  153.5140  138.2233  183.9099 C   0  0  0  0  0  0  0  0  0  0  0  0
  152.6945  137.2647  184.1260 O   0  0  0  0  0  0  0  0  0  0  0  0
  154.8404  137.3709  185.6866 C   0  0  0  0  0  0  0  0  0  0  0  0
  155.2618  138.5421  190.5812 C   0  0  0  0  0  0  0  0  0  0  0  0
  154.7528  138.3992  189.1892 C   0  0  0  0  0  0  0  0  0  0  0  0
  155.4178  137.7736  188.1281 C   0  0  0  0  0  0  0  0  0  0  0  0
  154.6012  137.8659  187.0332 C   0  0  0  0  0  0  0  0  0  0  0  0
  153.4973  138.5202  187.4308 N   0  0  0  0  0  0  0  0  0  0  0  0
  153.6326  138.8080  188.6878 O   0  0  0  0  0  0  0  0  0  0  0  0
  151.0439  138.3595  181.8521 C   0  0  0  0  0  0  0  0  0  0  0  0
  150.0765  138.9635  180.9035 C   0  0  0  0  0  0  0  0  0  0  0  0
  150.2009  138.7455  179.5126 N   0  0  0  0  0  0  0  0  0  0  0  0
  149.1228  139.6810  181.2833 O   0  0  0  0  0  0  0  0  0  0  0  0
  149.3767  138.4316  178.9771 H   0  0  0  0  0  0  0  0  0  0  0  0
  151.1011  138.8963  179.0356 H   0  0  0  0  0  0  0  0  0  0  0  0
 14 15  1  0  0  0
 15 16  2  0  0  0
 16 17  1  0  0  0
 17 13  1  0  0  0
 13  1  1  0  0  0
  1  2  1  0  0  0
  2  3  2  0  0  0
  2  4  1  0  0  0
  4  5  1  0  0  0
  4  6  1  0  0  0
  6  7  1  0  0  0
  7  8  2  0  0  0
  8  9  1  0  0  0
  9 20  1  0  0  0
 20 21  1  0  0  0
 21 22  1  0  0  0
 21 23  2  0  0  0
  9 10  1  0  0  0
 10 11  1  0  0  0
 11 12  2  0  0  0
 17 18  2  0  0  0
 18 19  1  0  0  0
 19 15  1  0  0  0
 11  1  1  0  0  0
 10  6  2  0  0  0
 22 24  1  0  0  0
 22 25  1  0  0  0
M  END
> <minimizedAffinity>
-6.01731

> <CNNscore>
0.4155361354

> <CNNaffinity>
4.8183751106

> <CNN_VS>
2.0022089481

> <CNNaffinity_variance>
0.1472428739

$$$$
[H]c1c(C([H])([H])n2c(=O)c3c(nc([H])n3C([H])([H])C(=O)N([H])[H])n(C([H])([H])[H])c2=O)noc1C([H])([H])[H]


 25 27  0  0  0  0  0  0  0  0999 V2000
  154.2318  138.2848  184.1316 N   0  0  0  0  0  0  0  0  0  0  0  0
  153.9827  139.4234  183.4648 C   0  0  0  0  0  0  0  0  0  0  0  0
  154.6476  140.4748  183.7517 O   0  0  0  0  0  0  0  0  0  0  0  0
  153.0529  139.5089  182.4960 N   0  0  0  0  0  0  0  0  0  0  0  0
  152.8304  140.7711  181.8077 C   0  0  0  0  0  0  0  0  0  0  0  0
  152.3511  138.4017  182.1927 C   0  0  0  0  0  0  0  0  0  0  0  0
  151.3747  138.1426  181.3087 N   0  0  0  0  0  0  0  0  0  0  0  0
  151.0141  136.8516  181.4183 C   0  0  0  0  0  0  0  0  0  0  0  0
  151.7624  136.2467  182.3893 N   0  0  0  0  0  0  0  0  0  0  0  0
  152.5696  137.1895  182.8556 C   0  0  0  0  0  0  0  0  0  0  0  0
  153.5323  137.1761  183.8318 C   0  0  0  0  0  0  0  0  0  0  0  0
  153.7490  136.0791  184.4537 O   0  0  0  0  0  0  0  0  0  0  0  0
  155.2238  138.1667  185.1735 C   0  0  0  0  0  0  0  0  0  0  0  0
  154.6118  138.1441  190.1866 C   0  0  0  0  0  0  0  0  0  0  0  0
  154.3816  138.3015  188.7239 C   0  0  0  0  0  0  0  0  0  0  0  0
  155.3003  138.0111  187.7085 C   0  0  0  0  0  0  0  0  0  0  0  0
  154.6866  138.2975  186.5188 C   0  0  0  0  0  0  0  0  0  0  0  0
  153.4540  138.7398  186.8186 N   0  0  0  0  0  0  0  0  0  0  0  0
  153.3250  138.7238  188.1086 O   0  0  0  0  0  0  0  0  0  0  0  0
  151.6116  134.8459  182.7205 C   0  0  0  0  0  0  0  0  0  0  0  0
  152.5913  133.9877  182.0104 C   0  0  0  0  0  0  0  0  0  0  0  0
  152.7503  132.6296  182.3679 N   0  0  0  0  0  0  0  0  0  0  0  0
  153.3095  134.4181  181.0790 O   0  0  0  0  0  0  0  0  0  0  0  0
  152.7230  131.9088  181.6301 H   0  0  0  0  0  0  0  0  0  0  0  0
  152.8913  132.3582  183.3513 H   0  0  0  0  0  0  0  0  0  0  0  0
 14 15  1  0  0  0
 15 16  2  0  0  0
 16 17  1  0  0  0
 17 13  1  0  0  0
 13  1  1  0  0  0
  1  2  1  0  0  0
  2  3  2  0  0  0
  2  4  1  0  0  0
  4  5  1  0  0  0
  4  6  1  0  0  0
  6  7  1  0  0  0
  7  8  2  0  0  0
  8  9  1  0  0  0
  9 20  1  0  0  0
 20 21  1  0  0  0
 21 22  1  0  0  0
 21 23  2  0  0  0
  9 10  1  0  0  0
 10 11  1  0  0  0
 11 12  2  0  0  0
 17 18  2  0  0  0
 18 19  1  0  0  0
 19 15  1  0  0  0
 11  1  1  0  0  0
 10  6  2  0  0  0
 22 24  1  0  0  0
 22 25  1  0  0  0
M  END
> <minimizedAffinity>
-4.50231

> <CNNscore>
0.4142159820

> <CNNaffinity>
4.4886245728

> <CNN_VS>
1.8592600822

> <CNNaffinity_variance>
0.1284623593

$$$$
[H]c1nc(C(F)(F)F)c(C([H])([H])[H])c([H])c1-c1nc(N([H])C(=O)C([H])([H])n2c([H])nc3c2c(=O)n(C([H])([H])c2onc(C([H])([H])[H])c2[H])c(=O)n3C([H])([H])[H])c([H])c([H])c1[H]


 41 45  0  0  0  0  0  0  0  0999 V2000
  153.8958  138.8538  183.5556 C   0  0  0  0  0  0  0  0  0  0  0  0
  153.1547  139.6639  182.8315 O   0  0  0  0  0  0  0  0  0  0  0  0
  153.4996  137.5296  183.5177 N   0  0  0  0  0  0  0  0  0  0  0  0
  152.6118  137.3462  182.8786 H   0  0  0  0  0  0  0  0  0  0  0  0
  153.9679  136.3527  184.1150 C   0  0  0  0  0  0  0  0  0  0  0  0
  154.1059  135.1716  183.4704 C   0  0  0  0  0  0  0  0  0  0  0  0
  154.5812  134.0662  184.1807 C   0  0  0  0  0  0  0  0  0  0  0  0
  154.8894  134.2248  185.5071 C   0  0  0  0  0  0  0  0  0  0  0  0
  154.7535  135.4161  186.1694 C   0  0  0  0  0  0  0  0  0  0  0  0
  154.2942  136.4513  185.4503 N   0  0  0  0  0  0  0  0  0  0  0  0
  155.0845  135.5880  187.5979 C   0  0  0  0  0  0  0  0  0  0  0  0
  154.3376  136.3727  188.4092 C   0  0  0  0  0  0  0  0  0  0  0  0
  154.6919  136.4883  189.7006 N   0  0  0  0  0  0  0  0  0  0  0  0
  155.7628  135.8556  190.2290 C   0  0  0  0  0  0  0  0  0  0  0  0
  156.5471  135.0495  189.4384 C   0  0  0  0  0  0  0  0  0  0  0  0
  157.7222  134.3387  189.9617 C   0  0  0  0  0  0  0  0  0  0  0  0
  156.1913  134.9221  188.1030 C   0  0  0  0  0  0  0  0  0  0  0  0
  156.0774  136.0437  191.6686 C   0  0  0  0  0  0  0  0  0  0  0  0
  156.6314  137.3000  191.8885 F   0  0  0  0  0  0  0  0  0  0  0  0
  154.9702  135.8249  192.4765 F   0  0  0  0  0  0  0  0  0  0  0  0
  157.0671  135.1375  192.0482 F   0  0  0  0  0  0  0  0  0  0  0  0
  155.0157  139.4652  184.2842 C   0  0  0  0  0  0  0  0  0  0  0  0
  158.6736  141.6434  182.8301 N   0  0  0  0  0  0  0  0  0  0  0  0
  158.3979  142.9092  182.4883 C   0  0  0  0  0  0  0  0  0  0  0  0
  159.3295  143.6361  182.0657 O   0  0  0  0  0  0  0  0  0  0  0  0
  157.1785  143.4434  182.5732 N   0  0  0  0  0  0  0  0  0  0  0  0
  156.8775  144.8114  182.2045 C   0  0  0  0  0  0  0  0  0  0  0  0
  156.1596  142.6892  183.0226 C   0  0  0  0  0  0  0  0  0  0  0  0
  154.8404  142.9263  183.2194 N   0  0  0  0  0  0  0  0  0  0  0  0
  154.2863  141.7955  183.6899 C   0  0  0  0  0  0  0  0  0  0  0  0
  155.2120  140.8396  183.8009 N   0  0  0  0  0  0  0  0  0  0  0  0
  156.3717  141.3577  183.3985 C   0  0  0  0  0  0  0  0  0  0  0  0
  157.6683  140.8714  183.2823 C   0  0  0  0  0  0  0  0  0  0  0  0
  157.8914  139.6784  183.6113 O   0  0  0  0  0  0  0  0  0  0  0  0
  160.0324  141.0984  182.7196 C   0  0  0  0  0  0  0  0  0  0  0  0
  161.5836  143.3722  186.9604 C   0  0  0  0  0  0  0  0  0  0  0  0
  161.5725  142.6238  185.6890 C   0  0  0  0  0  0  0  0  0  0  0  0
  160.4695  142.3225  184.9033 C   0  0  0  0  0  0  0  0  0  0  0  0
  160.9079  141.6106  183.8059 C   0  0  0  0  0  0  0  0  0  0  0  0
  162.2141  141.4971  183.9391 O   0  0  0  0  0  0  0  0  0  0  0  0
  162.6173  142.0799  185.0275 N   0  0  0  0  0  0  0  0  0  0  0  0
 36 37  1  0  0  0
 37 38  1  0  0  0
 38 39  2  0  0  0
 39 35  1  0  0  0
 35 23  1  0  0  0
 23 24  1  0  0  0
 24 25  2  0  0  0
 24 26  1  0  0  0
 26 27  1  0  0  0
 26 28  1  0  0  0
 28 29  1  0  0  0
 29 30  2  0  0  0
 30 31  1  0  0  0
 31 22  1  0  0  0
 22  1  1  0  0  0
  1  2  2  0  0  0
  1  3  1  0  0  0
  3  5  1  0  0  0
  5  6  2  0  0  0
  6  7  1  0  0  0
  7  8  2  0  0  0
  8  9  1  0  0  0
  9 10  2  0  0  0
  9 11  1  0  0  0
 11 12  2  0  0  0
 12 13  1  0  0  0
 13 14  2  0  0  0
 14 15  1  0  0  0
 15 16  1  0  0  0
 15 17  2  0  0  0
 14 18  1  0  0  0
 18 19  1  0  0  0
 18 20  1  0  0  0
 18 21  1  0  0  0
 31 32  1  0  0  0
 32 33  1  0  0  0
 33 34  2  0  0  0
 39 40  1  0  0  0
 40 41  1  0  0  0
 41 37  2  0  0  0
 33 23  1  0  0  0
 32 28  2  0  0  0
 10  5  1  0  0  0
 17 11  1  0  0  0
  3  4  1  0  0  0
M  END
> <minimizedAffinity>
-9.45207

> <CNNscore>
0.5926826596

> <CNNaffinity>
7.3304877281

> <CNN_VS>
4.3446531296

> <CNNaffinity_variance>
0.1266550571

$$$$
[H]c1nc(C(F)(F)F)c(C([H])([H])[H])c([H])c1-c1nc(N([H])C(=O)C([H])([H])n2c([H])nc3c2c(=O)n(C([H])([H])c2onc(C([H])([H])[H])c2[H])c(=O)n3C([H])([H])[H])c([H])c([H])c1[H]


 41 45  0  0  0  0  0  0  0  0999 V2000
  154.0829  138.2950  184.6219 C   0  0  0  0  0  0  0  0  0  0  0  0
  153.2236  138.2380  183.6279 O   0  0  0  0  0  0  0  0  0  0  0  0
  153.5691  137.9039  185.8447 N   0  0  0  0  0  0  0  0  0  0  0  0
  152.5038  137.5979  185.8052 H   0  0  0  0  0  0  0  0  0  0  0  0
  154.0942  137.8100  187.1396 C   0  0  0  0  0  0  0  0  0  0  0  0
  153.7696  138.6396  188.1574 C   0  0  0  0  0  0  0  0  0  0  0  0
  154.3673  138.4436  189.4051 C   0  0  0  0  0  0  0  0  0  0  0  0
  155.2617  137.4144  189.5469 C   0  0  0  0  0  0  0  0  0  0  0  0
  155.5974  136.5686  188.5231 C   0  0  0  0  0  0  0  0  0  0  0  0
  155.0006  136.7921  187.3425 N   0  0  0  0  0  0  0  0  0  0  0  0
  156.5609  135.4602  188.6744 C   0  0  0  0  0  0  0  0  0  0  0  0
  156.2125  134.2939  189.2661 C   0  0  0  0  0  0  0  0  0  0  0  0
  157.1362  133.3234  189.3738 N   0  0  0  0  0  0  0  0  0  0  0  0
  158.4011  133.4579  188.9174 C   0  0  0  0  0  0  0  0  0  0  0  0
  158.7947  134.6269  188.3103 C   0  0  0  0  0  0  0  0  0  0  0  0
  160.1571  134.8259  187.7962 C   0  0  0  0  0  0  0  0  0  0  0  0
  157.8496  135.6365  188.1932 C   0  0  0  0  0  0  0  0  0  0  0  0
  159.3538  132.3299  189.0810 C   0  0  0  0  0  0  0  0  0  0  0  0
  158.6691  131.1297  189.2373 F   0  0  0  0  0  0  0  0  0  0  0  0
  160.2678  132.2648  188.0386 F   0  0  0  0  0  0  0  0  0  0  0  0
  160.0703  132.4976  190.2656 F   0  0  0  0  0  0  0  0  0  0  0  0
  155.4378  138.7573  184.2915 C   0  0  0  0  0  0  0  0  0  0  0  0
  158.6234  141.7598  183.2538 N   0  0  0  0  0  0  0  0  0  0  0  0
  158.1006  142.8980  182.7782 C   0  0  0  0  0  0  0  0  0  0  0  0
  158.8774  143.8270  182.4493 O   0  0  0  0  0  0  0  0  0  0  0  0
  156.7898  143.0997  182.6340 N   0  0  0  0  0  0  0  0  0  0  0  0
  156.2218  144.3290  182.1203 C   0  0  0  0  0  0  0  0  0  0  0  0
  155.9320  142.1226  182.9780 C   0  0  0  0  0  0  0  0  0  0  0  0
  154.5818  142.0154  182.9515 N   0  0  0  0  0  0  0  0  0  0  0  0
  154.2580  140.7963  183.4163 C   0  0  0  0  0  0  0  0  0  0  0  0
  155.3616  140.1181  183.7406 N   0  0  0  0  0  0  0  0  0  0  0  0
  156.4049  140.9056  183.4825 C   0  0  0  0  0  0  0  0  0  0  0  0
  157.7825  140.7691  183.6040 C   0  0  0  0  0  0  0  0  0  0  0  0
  158.2391  139.6870  184.0534 O   0  0  0  0  0  0  0  0  0  0  0  0
  160.0740  141.5830  183.3949 C   0  0  0  0  0  0  0  0  0  0  0  0
  163.0956  142.9134  187.2240 C   0  0  0  0  0  0  0  0  0  0  0  0
  161.8985  142.6032  186.4194 C   0  0  0  0  0  0  0  0  0  0  0  0
  161.8619  142.1974  185.0932 C   0  0  0  0  0  0  0  0  0  0  0  0
  160.5412  142.0171  184.7374 C   0  0  0  0  0  0  0  0  0  0  0  0
  159.8294  142.3044  185.8087 O   0  0  0  0  0  0  0  0  0  0  0  0
  160.6016  142.6468  186.7952 N   0  0  0  0  0  0  0  0  0  0  0  0
 36 37  1  0  0  0
 37 38  1  0  0  0
 38 39  2  0  0  0
 39 35  1  0  0  0
 35 23  1  0  0  0
 23 24  1  0  0  0
 24 25  2  0  0  0
 24 26  1  0  0  0
 26 27  1  0  0  0
 26 28  1  0  0  0
 28 29  1  0  0  0
 29 30  2  0  0  0
 30 31  1  0  0  0
 31 22  1  0  0  0
 22  1  1  0  0  0
  1  2  2  0  0  0
  1  3  1  0  0  0
  3  5  1  0  0  0
  5  6  2  0  0  0
  6  7  1  0  0  0
  7  8  2  0  0  0
  8  9  1  0  0  0
  9 10  2  0  0  0
  9 11  1  0  0  0
 11 12  2  0  0  0
 12 13  1  0  0  0
 13 14  2  0  0  0
 14 15  1  0  0  0
 15 16  1  0  0  0
 15 17  2  0  0  0
 14 18  1  0  0  0
 18 19  1  0  0  0
 18 20  1  0  0  0
 18 21  1  0  0  0
 31 32  1  0  0  0
 32 33  1  0  0  0
 33 34  2  0  0  0
 39 40  1  0  0  0
 40 41  1  0  0  0
 41 37  2  0  0  0
 33 23  1  0  0  0
 32 28  2  0  0  0
 10  5  1  0  0  0
 17 11  1  0  0  0
  3  4  1  0  0  0
M  END
> <minimizedAffinity>
-10.28730

> <CNNscore>
0.5855293870

> <CNNaffinity>
7.3412489891

> <CNN_VS>
4.2985172272

> <CNNaffinity_variance>
0.2462340891

$$$$
[H]c1nc(C(F)(F)F)c(C([H])([H])[H])c([H])c1-c1nc(N([H])C(=O)C([H])([H])n2c([H])nc3c2c(=O)n(C([H])([H])c2onc(C([H])([H])[H])c2[H])c(=O)n3C([H])([H])[H])c([H])c([H])c1[H]


 41 45  0  0  0  0  0  0  0  0999 V2000
  154.0296  138.5340  183.8823 C   0  0  0  0  0  0  0  0  0  0  0  0
  153.3796  139.2061  182.9574 O   0  0  0  0  0  0  0  0  0  0  0  0
  153.4283  137.3456  184.2541 N   0  0  0  0  0  0  0  0  0  0  0  0
  152.4830  137.1342  183.7139 H   0  0  0  0  0  0  0  0  0  0  0  0
  153.7436  136.3375  185.1736 C   0  0  0  0  0  0  0  0  0  0  0  0
  154.3494  135.1719  184.8512 C   0  0  0  0  0  0  0  0  0  0  0  0
  154.6069  134.2425  185.8623 C   0  0  0  0  0  0  0  0  0  0  0  0
  154.2336  134.5516  187.1447 C   0  0  0  0  0  0  0  0  0  0  0  0
  153.6198  135.7287  187.4820 C   0  0  0  0  0  0  0  0  0  0  0  0
  153.3913  136.5924  186.4812 N   0  0  0  0  0  0  0  0  0  0  0  0
  153.2168  136.0624  188.8627 C   0  0  0  0  0  0  0  0  0  0  0  0
  152.0932  135.5500  189.4165 C   0  0  0  0  0  0  0  0  0  0  0  0
  151.7809  135.8932  190.6780 N   0  0  0  0  0  0  0  0  0  0  0  0
  152.5388  136.7290  191.4220 C   0  0  0  0  0  0  0  0  0  0  0  0
  153.6876  137.2707  190.8961 C   0  0  0  0  0  0  0  0  0  0  0  0
  154.5479  138.1843  191.6611 C   0  0  0  0  0  0  0  0  0  0  0  0
  154.0207  136.9237  189.5942 C   0  0  0  0  0  0  0  0  0  0  0  0
  152.1136  137.0512  192.8084 C   0  0  0  0  0  0  0  0  0  0  0  0
  150.7274  137.0221  192.9145 F   0  0  0  0  0  0  0  0  0  0  0  0
  152.7153  136.2210  193.7439 F   0  0  0  0  0  0  0  0  0  0  0  0
  152.4746  138.3641  193.1098 F   0  0  0  0  0  0  0  0  0  0  0  0
  155.2769  139.1347  184.3745 C   0  0  0  0  0  0  0  0  0  0  0  0
  158.7217  141.5899  182.8430 N   0  0  0  0  0  0  0  0  0  0  0  0
  158.3454  142.8370  182.5295 C   0  0  0  0  0  0  0  0  0  0  0  0
  159.2087  143.6346  182.0900 O   0  0  0  0  0  0  0  0  0  0  0  0
  157.0941  143.2807  182.6599 N   0  0  0  0  0  0  0  0  0  0  0  0
  156.6845  144.6283  182.3218 C   0  0  0  0  0  0  0  0  0  0  0  0
  156.1466  142.4493  183.1285 C   0  0  0  0  0  0  0  0  0  0  0  0
  154.8206  142.5880  183.3692 N   0  0  0  0  0  0  0  0  0  0  0  0
  154.3641  141.4141  183.8389 C   0  0  0  0  0  0  0  0  0  0  0  0
  155.3589  140.5260  183.9067 N   0  0  0  0  0  0  0  0  0  0  0  0
  156.4652  141.1316  183.4771 C   0  0  0  0  0  0  0  0  0  0  0  0
  157.7890  140.7415  183.3138 C   0  0  0  0  0  0  0  0  0  0  0  0
  158.1073  139.5634  183.6173 O   0  0  0  0  0  0  0  0  0  0  0  0
  160.1118  141.1457  182.6826 C   0  0  0  0  0  0  0  0  0  0  0  0
  161.5983  143.4333  186.9393 C   0  0  0  0  0  0  0  0  0  0  0  0
  161.6035  142.6638  185.6805 C   0  0  0  0  0  0  0  0  0  0  0  0
  160.5181  142.3904  184.8607 C   0  0  0  0  0  0  0  0  0  0  0  0
  160.9675  141.6436  183.7912 C   0  0  0  0  0  0  0  0  0  0  0  0
  162.2629  141.4836  183.9729 O   0  0  0  0  0  0  0  0  0  0  0  0
  162.6494  142.0697  185.0656 N   0  0  0  0  0  0  0  0  0  0  0  0
 36 37  1  0  0  0
 37 38  1  0  0  0
 38 39  2  0  0  0
 39 35  1  0  0  0
 35 23  1  0  0  0
 23 24  1  0  0  0
 24 25  2  0  0  0
 24 26  1  0  0  0
 26 27  1  0  0  0
 26 28  1  0  0  0
 28 29  1  0  0  0
 29 30  2  0  0  0
 30 31  1  0  0  0
 31 22  1  0  0  0
 22  1  1  0  0  0
  1  2  2  0  0  0
  1  3  1  0  0  0
  3  5  1  0  0  0
  5  6  2  0  0  0
  6  7  1  0  0  0
  7  8  2  0  0  0
  8  9  1  0  0  0
  9 10  2  0  0  0
  9 11  1  0  0  0
 11 12  2  0  0  0
 12 13  1  0  0  0
 13 14  2  0  0  0
 14 15  1  0  0  0
 15 16  1  0  0  0
 15 17  2  0  0  0
 14 18  1  0  0  0
 18 19  1  0  0  0
 18 20  1  0  0  0
 18 21  1  0  0  0
 31 32  1  0  0  0
 32 33  1  0  0  0
 33 34  2  0  0  0
 39 40  1  0  0  0
 40 41  1  0  0  0
 41 37  2  0  0  0
 33 23  1  0  0  0
 32 28  2  0  0  0
 10  5  1  0  0  0
 17 11  1  0  0  0
  3  4  1  0  0  0
M  END
> <minimizedAffinity>
-9.52046

> <CNNscore>
0.5616180897

> <CNNaffinity>
7.1485166550

> <CNN_VS>
4.0147361755

> <CNNaffinity_variance>
0.0682683215

$$$$
[H]c1nc(C(F)(F)F)c(C([H])([H])[H])c([H])c1-c1nc(N([H])C(=O)C([H])([H])n2c([H])nc3c2c(=O)n(C([H])([H])c2onc(C([H])([H])[H])c2[H])c(=O)n3C([H])([H])[H])c([H])c([H])c1[H]


 41 45  0  0  0  0  0  0  0  0999 V2000
  155.6770  138.6074  185.7864 C   0  0  0  0  0  0  0  0  0  0  0  0
  156.8081  139.0836  186.2592 O   0  0  0  0  0  0  0  0  0  0  0  0
  154.7901  138.1740  186.7548 N   0  0  0  0  0  0  0  0  0  0  0  0
  155.1657  138.2939  187.7914 H   0  0  0  0  0  0  0  0  0  0  0  0
  153.5103  137.6062  186.7229 C   0  0  0  0  0  0  0  0  0  0  0  0
  152.7508  137.4968  185.6091 C   0  0  0  0  0  0  0  0  0  0  0  0
  151.4854  136.9127  185.7094 C   0  0  0  0  0  0  0  0  0  0  0  0
  151.0641  136.4726  186.9375 C   0  0  0  0  0  0  0  0  0  0  0  0
  151.8252  136.5783  188.0715 C   0  0  0  0  0  0  0  0  0  0  0  0
  153.0329  137.1452  187.9306 N   0  0  0  0  0  0  0  0  0  0  0  0
  151.3724  136.1053  189.3947 C   0  0  0  0  0  0  0  0  0  0  0  0
  150.3640  135.2115  189.5210 C   0  0  0  0  0  0  0  0  0  0  0  0
  149.9982  134.8208  190.7540 N   0  0  0  0  0  0  0  0  0  0  0  0
  150.5922  135.2802  191.8777 C   0  0  0  0  0  0  0  0  0  0  0  0
  151.6202  136.1890  191.7923 C   0  0  0  0  0  0  0  0  0  0  0  0
  152.3005  136.7205  192.9816 C   0  0  0  0  0  0  0  0  0  0  0  0
  152.0069  136.6000  190.5243 C   0  0  0  0  0  0  0  0  0  0  0  0
  150.1198  134.7909  193.1983 C   0  0  0  0  0  0  0  0  0  0  0  0
  148.9371  134.0728  193.0598 F   0  0  0  0  0  0  0  0  0  0  0  0
  151.0920  134.0520  193.8581 F   0  0  0  0  0  0  0  0  0  0  0  0
  149.7923  135.8802  194.0052 F   0  0  0  0  0  0  0  0  0  0  0  0
  155.5258  138.6068  184.3249 C   0  0  0  0  0  0  0  0  0  0  0  0
  158.5614  141.4924  182.6822 N   0  0  0  0  0  0  0  0  0  0  0  0
  158.0117  142.6759  182.3784 C   0  0  0  0  0  0  0  0  0  0  0  0
  158.7463  143.5794  181.9107 O   0  0  0  0  0  0  0  0  0  0  0  0
  156.7169  142.9487  182.5471 N   0  0  0  0  0  0  0  0  0  0  0  0
  156.1199  144.2271  182.2196 C   0  0  0  0  0  0  0  0  0  0  0  0
  155.9043  142.0005  183.0466 C   0  0  0  0  0  0  0  0  0  0  0  0
  154.5798  141.9617  183.3284 N   0  0  0  0  0  0  0  0  0  0  0  0
  154.2995  140.7400  183.8141 C   0  0  0  0  0  0  0  0  0  0  0  0
  155.4061  139.9937  183.8523 N   0  0  0  0  0  0  0  0  0  0  0  0
  156.4074  140.7395  183.3873 C   0  0  0  0  0  0  0  0  0  0  0  0
  157.7659  140.5294  183.1834 C   0  0  0  0  0  0  0  0  0  0  0  0
  158.2485  139.4065  183.4789 O   0  0  0  0  0  0  0  0  0  0  0  0
  159.9929  141.2376  182.4792 C   0  0  0  0  0  0  0  0  0  0  0  0
  161.2381  143.1866  186.9750 C   0  0  0  0  0  0  0  0  0  0  0  0
  161.3168  142.5289  185.6567 C   0  0  0  0  0  0  0  0  0  0  0  0
  160.2740  142.2997  184.7707 C   0  0  0  0  0  0  0  0  0  0  0  0
  160.7880  141.6595  183.6619 C   0  0  0  0  0  0  0  0  0  0  0  0
  162.0791  141.5174  183.8849 O   0  0  0  0  0  0  0  0  0  0  0  0
  162.4036  142.0168  185.0391 N   0  0  0  0  0  0  0  0  0  0  0  0
 36 37  1  0  0  0
 37 38  1  0  0  0
 38 39  2  0  0  0
 39 35  1  0  0  0
 35 23  1  0  0  0
 23 24  1  0  0  0
 24 25  2  0  0  0
 24 26  1  0  0  0
 26 27  1  0  0  0
 26 28  1  0  0  0
 28 29  1  0  0  0
 29 30  2  0  0  0
 30 31  1  0  0  0
 31 22  1  0  0  0
 22  1  1  0  0  0
  1  2  2  0  0  0
  1  3  1  0  0  0
  3  5  1  0  0  0
  5  6  2  0  0  0
  6  7  1  0  0  0
  7  8  2  0  0  0
  8  9  1  0  0  0
  9 10  2  0  0  0
  9 11  1  0  0  0
 11 12  2  0  0  0
 12 13  1  0  0  0
 13 14  2  0  0  0
 14 15  1  0  0  0
 15 16  1  0  0  0
 15 17  2  0  0  0
 14 18  1  0  0  0
 18 19  1  0  0  0
 18 20  1  0  0  0
 18 21  1  0  0  0
 31 32  1  0  0  0
 32 33  1  0  0  0
 33 34  2  0  0  0
 39 40  1  0  0  0
 40 41  1  0  0  0
 41 37  2  0  0  0
 33 23  1  0  0  0
 32 28  2  0  0  0
 10  5  1  0  0  0
 17 11  1  0  0  0
  3  4  1  0  0  0
M  END
> <minimizedAffinity>
-8.70112

> <CNNscore>
0.4590951502

> <CNNaffinity>
6.6218643188

> <CNN_VS>
3.0400657654

> <CNNaffinity_variance>
0.1955333054

$$$$
[H]c1nc(C(F)(F)F)c(C([H])([H])[H])c([H])c1-c1nc(N([H])C(=O)C([H])([H])n2c([H])nc3c2c(=O)n(C([H])([H])c2onc(C([H])([H])[H])c2[H])c(=O)n3C([H])([H])[H])c([H])c([H])c1[H]


 41 45  0  0  0  0  0  0  0  0999 V2000
  153.2155  138.9815  182.6497 C   0  0  0  0  0  0  0  0  0  0  0  0
  153.1973  139.3606  181.3905 O   0  0  0  0  0  0  0  0  0  0  0  0
  152.1840  138.1321  183.0059 N   0  0  0  0  0  0  0  0  0  0  0  0
  151.4918  137.8949  182.1724 H   0  0  0  0  0  0  0  0  0  0  0  0
  151.8074  137.4991  184.1969 C   0  0  0  0  0  0  0  0  0  0  0  0
  150.6927  136.7470  184.3427 C   0  0  0  0  0  0  0  0  0  0  0  0
  150.4252  136.1704  185.5871 C   0  0  0  0  0  0  0  0  0  0  0  0
  151.3071  136.3916  186.6131 C   0  0  0  0  0  0  0  0  0  0  0  0
  152.4386  137.1512  186.4762 C   0  0  0  0  0  0  0  0  0  0  0  0
  152.6572  137.6860  185.2655 N   0  0  0  0  0  0  0  0  0  0  0  0
  153.3888  137.3906  187.5806 C   0  0  0  0  0  0  0  0  0  0  0  0
  154.6454  137.8373  187.3502 C   0  0  0  0  0  0  0  0  0  0  0  0
  155.4627  138.0351  188.3988 N   0  0  0  0  0  0  0  0  0  0  0  0
  155.0874  137.8079  189.6771 C   0  0  0  0  0  0  0  0  0  0  0  0
  153.8195  137.3537  189.9533 C   0  0  0  0  0  0  0  0  0  0  0  0
  153.3599  137.0907  191.3243 C   0  0  0  0  0  0  0  0  0  0  0  0
  152.9663  137.1458  188.8786 C   0  0  0  0  0  0  0  0  0  0  0  0
  156.0602  138.0549  190.7722 C   0  0  0  0  0  0  0  0  0  0  0  0
  155.6922  139.1744  191.5105 F   0  0  0  0  0  0  0  0  0  0  0  0
  156.2262  136.9403  191.5825 F   0  0  0  0  0  0  0  0  0  0  0  0
  157.3029  138.3720  190.2245 F   0  0  0  0  0  0  0  0  0  0  0  0
  154.3102  139.5071  183.4769 C   0  0  0  0  0  0  0  0  0  0  0  0
  158.1900  141.7622  183.1597 N   0  0  0  0  0  0  0  0  0  0  0  0
  158.0036  143.0189  182.7340 C   0  0  0  0  0  0  0  0  0  0  0  0
  159.0038  143.7650  182.6010 O   0  0  0  0  0  0  0  0  0  0  0  0
  156.8042  143.5244  182.4414 N   0  0  0  0  0  0  0  0  0  0  0  0
  156.5997  144.8824  181.9810 C   0  0  0  0  0  0  0  0  0  0  0  0
  155.7133  142.7491  182.5741 C   0  0  0  0  0  0  0  0  0  0  0  0
  154.3913  142.9559  182.3623 N   0  0  0  0  0  0  0  0  0  0  0  0
  153.7450  141.8154  182.6597 C   0  0  0  0  0  0  0  0  0  0  0  0
  154.6142  140.8826  183.0565 N   0  0  0  0  0  0  0  0  0  0  0  0
  155.8301  141.4255  183.0142 C   0  0  0  0  0  0  0  0  0  0  0  0
  157.1115  140.9695  183.2994 C   0  0  0  0  0  0  0  0  0  0  0  0
  157.2501  139.7843  183.6963 O   0  0  0  0  0  0  0  0  0  0  0  0
  159.5301  141.2491  183.4699 C   0  0  0  0  0  0  0  0  0  0  0  0
  162.5984  142.9770  187.0978 C   0  0  0  0  0  0  0  0  0  0  0  0
  161.3968  142.5361  186.3640 C   0  0  0  0  0  0  0  0  0  0  0  0
  161.3345  142.0773  185.0561 C   0  0  0  0  0  0  0  0  0  0  0  0
  160.0193  141.7729  184.7719 C   0  0  0  0  0  0  0  0  0  0  0  0
  159.3351  142.0410  185.8659 O   0  0  0  0  0  0  0  0  0  0  0  0
  160.1195  142.4854  186.8009 N   0  0  0  0  0  0  0  0  0  0  0  0
 36 37  1  0  0  0
 37 38  1  0  0  0
 38 39  2  0  0  0
 39 35  1  0  0  0
 35 23  1  0  0  0
 23 24  1  0  0  0
 24 25  2  0  0  0
 24 26  1  0  0  0
 26 27  1  0  0  0
 26 28  1  0  0  0
 28 29  1  0  0  0
 29 30  2  0  0  0
 30 31  1  0  0  0
 31 22  1  0  0  0
 22  1  1  0  0  0
  1  2  2  0  0  0
  1  3  1  0  0  0
  3  5  1  0  0  0
  5  6  2  0  0  0
  6  7  1  0  0  0
  7  8  2  0  0  0
  8  9  1  0  0  0
  9 10  2  0  0  0
  9 11  1  0  0  0
 11 12  2  0  0  0
 12 13  1  0  0  0
 13 14  2  0  0  0
 14 15  1  0  0  0
 15 16  1  0  0  0
 15 17  2  0  0  0
 14 18  1  0  0  0
 18 19  1  0  0  0
 18 20  1  0  0  0
 18 21  1  0  0  0
 31 32  1  0  0  0
 32 33  1  0  0  0
 33 34  2  0  0  0
 39 40  1  0  0  0
 40 41  1  0  0  0
 41 37  2  0  0  0
 33 23  1  0  0  0
 32 28  2  0  0  0
 10  5  1  0  0  0
 17 11  1  0  0  0
  3  4  1  0  0  0
M  END
> <minimizedAffinity>
-10.19361

> <CNNscore>
0.4584202766

> <CNNaffinity>
7.2211694717

> <CNN_VS>
3.3103303909

> <CNNaffinity_variance>
0.3456164896

$$$$
[H]c1nc(C(F)(F)F)c(C([H])([H])[H])c([H])c1-c1nc(N([H])C(=O)C([H])([H])n2c([H])nc3c2c(=O)n(C([H])([H])c2onc(C([H])([H])[H])c2[H])c(=O)n3C([H])([H])[H])c([H])c([H])c1[H]


 41 45  0  0  0  0  0  0  0  0999 V2000
  154.7231  137.4500  185.9526 C   0  0  0  0  0  0  0  0  0  0  0  0
  154.0882  136.3477  186.2864 O   0  0  0  0  0  0  0  0  0  0  0  0
  154.3257  137.9955  184.7456 N   0  0  0  0  0  0  0  0  0  0  0  0
  153.5260  137.4200  184.2363 H   0  0  0  0  0  0  0  0  0  0  0  0
  154.7124  139.1216  184.0085 C   0  0  0  0  0  0  0  0  0  0  0  0
  153.9254  139.7509  183.1061 C   0  0  0  0  0  0  0  0  0  0  0  0
  154.4302  140.8651  182.4307 C   0  0  0  0  0  0  0  0  0  0  0  0
  155.7075  141.2763  182.7116 C   0  0  0  0  0  0  0  0  0  0  0  0
  156.5126  140.6466  183.6234 C   0  0  0  0  0  0  0  0  0  0  0  0
  155.9889  139.5816  184.2489 N   0  0  0  0  0  0  0  0  0  0  0  0
  157.8885  141.0882  183.9263 C   0  0  0  0  0  0  0  0  0  0  0  0
  158.8732  141.0255  183.0000 C   0  0  0  0  0  0  0  0  0  0  0  0
  160.1054  141.4426  183.3383 N   0  0  0  0  0  0  0  0  0  0  0  0
  160.4084  141.9234  184.5645 C   0  0  0  0  0  0  0  0  0  0  0  0
  159.4365  142.0033  185.5335 C   0  0  0  0  0  0  0  0  0  0  0  0
  159.7116  142.5179  186.8824 C   0  0  0  0  0  0  0  0  0  0  0  0
  158.1600  141.5756  185.1960 C   0  0  0  0  0  0  0  0  0  0  0  0
  161.7995  142.3613  184.8471 C   0  0  0  0  0  0  0  0  0  0  0  0
  161.9421  143.7235  184.6072 F   0  0  0  0  0  0  0  0  0  0  0  0
  162.2006  142.0239  186.1323 F   0  0  0  0  0  0  0  0  0  0  0  0
  162.6708  141.7405  183.9525 F   0  0  0  0  0  0  0  0  0  0  0  0
  155.7426  137.9305  186.8953 C   0  0  0  0  0  0  0  0  0  0  0  0
  154.5285  136.8638  191.0939 N   0  0  0  0  0  0  0  0  0  0  0  0
  155.1514  135.7599  191.5284 C   0  0  0  0  0  0  0  0  0  0  0  0
  154.9077  135.3472  192.6881 O   0  0  0  0  0  0  0  0  0  0  0  0
  156.0229  135.0704  190.7905 N   0  0  0  0  0  0  0  0  0  0  0  0
  156.6977  133.8768  191.2576 C   0  0  0  0  0  0  0  0  0  0  0  0
  156.3048  135.4880  189.5435 C   0  0  0  0  0  0  0  0  0  0  0  0
  157.1192  135.0224  188.5662 N   0  0  0  0  0  0  0  0  0  0  0  0
  157.0037  135.8453  187.5096 C   0  0  0  0  0  0  0  0  0  0  0  0
  156.1388  136.8259  187.7807 N   0  0  0  0  0  0  0  0  0  0  0  0
  155.6928  136.6335  189.0214 C   0  0  0  0  0  0  0  0  0  0  0  0
  154.7963  137.2990  189.8489 C   0  0  0  0  0  0  0  0  0  0  0  0
  154.2291  138.3313  189.4087 O   0  0  0  0  0  0  0  0  0  0  0  0
  153.5761  137.5905  191.9425 C   0  0  0  0  0  0  0  0  0  0  0  0
  149.4896  135.2634  193.7991 C   0  0  0  0  0  0  0  0  0  0  0  0
  150.4731  135.8498  192.8687 C   0  0  0  0  0  0  0  0  0  0  0  0
  151.6644  136.4808  193.1963 C   0  0  0  0  0  0  0  0  0  0  0  0
  152.2748  136.8772  192.0243 C   0  0  0  0  0  0  0  0  0  0  0  0
  151.4769  136.4959  191.0471 O   0  0  0  0  0  0  0  0  0  0  0  0
  150.4255  135.8974  191.5194 N   0  0  0  0  0  0  0  0  0  0  0  0
 36 37  1  0  0  0
 37 38  1  0  0  0
 38 39  2  0  0  0
 39 35  1  0  0  0
 35 23  1  0  0  0
 23 24  1  0  0  0
 24 25  2  0  0  0
 24 26  1  0  0  0
 26 27  1  0  0  0
 26 28  1  0  0  0
 28 29  1  0  0  0
 29 30  2  0  0  0
 30 31  1  0  0  0
 31 22  1  0  0  0
 22  1  1  0  0  0
  1  2  2  0  0  0
  1  3  1  0  0  0
  3  5  1  0  0  0
  5  6  2  0  0  0
  6  7  1  0  0  0
  7  8  2  0  0  0
  8  9  1  0  0  0
  9 10  2  0  0  0
  9 11  1  0  0  0
 11 12  2  0  0  0
 12 13  1  0  0  0
 13 14  2  0  0  0
 14 15  1  0  0  0
 15 16  1  0  0  0
 15 17  2  0  0  0
 14 18  1  0  0  0
 18 19  1  0  0  0
 18 20  1  0  0  0
 18 21  1  0  0  0
 31 32  1  0  0  0
 32 33  1  0  0  0
 33 34  2  0  0  0
 39 40  1  0  0  0
 40 41  1  0  0  0
 41 37  2  0  0  0
 33 23  1  0  0  0
 32 28  2  0  0  0
 10  5  1  0  0  0
 17 11  1  0  0  0
  3  4  1  0  0  0
M  END
> <minimizedAffinity>
-9.64352

> <CNNscore>
0.4113268554

> <CNNaffinity>
6.8048186302

> <CNN_VS>
2.7990045547

> <CNNaffinity_variance>
0.2448451817

$$$$
[H]c1nc(C(F)(F)F)c(C([H])([H])[H])c([H])c1-c1nc(N([H])C(=O)C([H])([H])n2c([H])nc3c2c(=O)n(C([H])([H])c2onc(C([H])([H])[H])c2[H])c(=O)n3C([H])([H])[H])c([H])c([H])c1[H]


 41 45  0  0  0  0  0  0  0  0999 V2000
  151.8724  139.2583  180.6482 C   0  0  0  0  0  0  0  0  0  0  0  0
  152.8027  138.8730  179.8022 O   0  0  0  0  0  0  0  0  0  0  0  0
  150.6580  138.6151  180.4943 N   0  0  0  0  0  0  0  0  0  0  0  0
  150.6492  137.8655  179.6769 H   0  0  0  0  0  0  0  0  0  0  0  0
  149.4191  138.7000  181.1416 C   0  0  0  0  0  0  0  0  0  0  0  0
  148.3066  139.2403  180.5938 C   0  0  0  0  0  0  0  0  0  0  0  0
  147.1294  139.2694  181.3460 C   0  0  0  0  0  0  0  0  0  0  0  0
  147.1504  138.7469  182.6132 C   0  0  0  0  0  0  0  0  0  0  0  0
  148.2711  138.1974  183.1773 C   0  0  0  0  0  0  0  0  0  0  0  0
  149.3792  138.1898  182.4211 N   0  0  0  0  0  0  0  0  0  0  0  0
  148.2951  137.6349  184.5422 C   0  0  0  0  0  0  0  0  0  0  0  0
  147.5781  138.1865  185.5489 C   0  0  0  0  0  0  0  0  0  0  0  0
  147.6430  137.6273  186.7695 N   0  0  0  0  0  0  0  0  0  0  0  0
  148.3933  136.5362  187.0397 C   0  0  0  0  0  0  0  0  0  0  0  0
  149.1361  135.9462  186.0447 C   0  0  0  0  0  0  0  0  0  0  0  0
  149.9686  134.7589  186.2840 C   0  0  0  0  0  0  0  0  0  0  0  0
  149.0772  136.5146  184.7799 C   0  0  0  0  0  0  0  0  0  0  0  0
  148.4028  135.9878  188.4203 C   0  0  0  0  0  0  0  0  0  0  0  0
  147.7006  136.8220  189.2832 F   0  0  0  0  0  0  0  0  0  0  0  0
  147.9248  134.6856  188.4667 F   0  0  0  0  0  0  0  0  0  0  0  0
  149.7102  135.9790  188.9057 F   0  0  0  0  0  0  0  0  0  0  0  0
  152.2547  140.2967  181.6149 C   0  0  0  0  0  0  0  0  0  0  0  0
  156.1575  141.6451  183.4007 N   0  0  0  0  0  0  0  0  0  0  0  0
  156.6116  140.7808  184.3184 C   0  0  0  0  0  0  0  0  0  0  0  0
  157.6960  141.0314  184.8980 O   0  0  0  0  0  0  0  0  0  0  0  0
  155.9696  139.6601  184.6522 N   0  0  0  0  0  0  0  0  0  0  0  0
  156.4581  138.7240  185.6437 C   0  0  0  0  0  0  0  0  0  0  0  0
  154.8049  139.3641  184.0482 C   0  0  0  0  0  0  0  0  0  0  0  0
  153.9316  138.3346  184.1608 N   0  0  0  0  0  0  0  0  0  0  0  0
  152.9209  138.5586  183.3033 C   0  0  0  0  0  0  0  0  0  0  0  0
  153.1206  139.7022  182.6433 N   0  0  0  0  0  0  0  0  0  0  0  0
  154.2684  140.2197  183.0789 C   0  0  0  0  0  0  0  0  0  0  0  0
  154.9937  141.3679  182.7842 C   0  0  0  0  0  0  0  0  0  0  0  0
  154.5379  142.1576  181.9183 O   0  0  0  0  0  0  0  0  0  0  0  0
  156.8991  142.8671  183.0658 C   0  0  0  0  0  0  0  0  0  0  0  0
  159.8956  143.8224  179.1072 C   0  0  0  0  0  0  0  0  0  0  0  0
  159.0474  143.1263  180.0935 C   0  0  0  0  0  0  0  0  0  0  0  0
  158.4020  143.6854  181.1871 C   0  0  0  0  0  0  0  0  0  0  0  0
  157.7195  142.6803  181.8406 C   0  0  0  0  0  0  0  0  0  0  0  0
  157.9526  141.5754  181.1610 O   0  0  0  0  0  0  0  0  0  0  0  0
  158.7222  141.8161  180.1429 N   0  0  0  0  0  0  0  0  0  0  0  0
 36 37  1  0  0  0
 37 38  1  0  0  0
 38 39  2  0  0  0
 39 35  1  0  0  0
 35 23  1  0  0  0
 23 24  1  0  0  0
 24 25  2  0  0  0
 24 26  1  0  0  0
 26 27  1  0  0  0
 26 28  1  0  0  0
 28 29  1  0  0  0
 29 30  2  0  0  0
 30 31  1  0  0  0
 31 22  1  0  0  0
 22  1  1  0  0  0
  1  2  2  0  0  0
  1  3  1  0  0  0
  3  5  1  0  0  0
  5  6  2  0  0  0
  6  7  1  0  0  0
  7  8  2  0  0  0
  8  9  1  0  0  0
  9 10  2  0  0  0
  9 11  1  0  0  0
 11 12  2  0  0  0
 12 13  1  0  0  0
 13 14  2  0  0  0
 14 15  1  0  0  0
 15 16  1  0  0  0
 15 17  2  0  0  0
 14 18  1  0  0  0
 18 19  1  0  0  0
 18 20  1  0  0  0
 18 21  1  0  0  0
 31 32  1  0  0  0
 32 33  1  0  0  0
 33 34  2  0  0  0
 39 40  1  0  0  0
 40 41  1  0  0  0
 41 37  2  0  0  0
 33 23  1  0  0  0
 32 28  2  0  0  0
 10  5  1  0  0  0
 17 11  1  0  0  0
  3  4  1  0  0  0
M  END
> <minimizedAffinity>
-8.22883

> <CNNscore>
0.3683747947

> <CNNaffinity>
6.7288007736

> <CNN_VS>
2.4787206650

> <CNNaffinity_variance>
0.1997788250

$$$$
[H]c1nc(C(F)(F)F)c(C([H])([H])[H])c([H])c1-c1nc(N([H])C(=O)C([H])([H])n2c([H])nc3c2c(=O)n(C([H])([H])c2onc(C([H])([H])[H])c2[H])c(=O)n3C([H])([H])[H])c([H])c([H])c1[H]


 41 45  0  0  0  0  0  0  0  0999 V2000
  155.2755  138.0071  187.0253 C   0  0  0  0  0  0  0  0  0  0  0  0
  155.9188  137.0852  187.7080 O   0  0  0  0  0  0  0  0  0  0  0  0
  155.8258  138.2908  185.7888 N   0  0  0  0  0  0  0  0  0  0  0  0
  156.7318  137.6953  185.5549 H   0  0  0  0  0  0  0  0  0  0  0  0
  155.4973  139.1745  184.7533 C   0  0  0  0  0  0  0  0  0  0  0  0
  156.2146  140.2754  184.4324 C   0  0  0  0  0  0  0  0  0  0  0  0
  155.7788  141.0815  183.3775 C   0  0  0  0  0  0  0  0  0  0  0  0
  154.6375  140.7219  182.7085 C   0  0  0  0  0  0  0  0  0  0  0  0
  153.9039  139.6094  183.0251 C   0  0  0  0  0  0  0  0  0  0  0  0
  154.3574  138.8638  184.0440 N   0  0  0  0  0  0  0  0  0  0  0  0
  152.6743  139.2214  182.3057 C   0  0  0  0  0  0  0  0  0  0  0  0
  151.8513  138.2564  182.7781 C   0  0  0  0  0  0  0  0  0  0  0  0
  150.7472  137.9489  182.0759 N   0  0  0  0  0  0  0  0  0  0  0  0
  150.4191  138.5601  180.9160 C   0  0  0  0  0  0  0  0  0  0  0  0
  151.2287  139.5454  180.4026 C   0  0  0  0  0  0  0  0  0  0  0  0
  150.9191  140.2420  179.1461 C   0  0  0  0  0  0  0  0  0  0  0  0
  152.3718  139.8719  181.1189 C   0  0  0  0  0  0  0  0  0  0  0  0
  149.1777  138.1531  180.2090 C   0  0  0  0  0  0  0  0  0  0  0  0
  149.4246  137.9692  178.8530 F   0  0  0  0  0  0  0  0  0  0  0  0
  148.5980  137.0286  180.7800 F   0  0  0  0  0  0  0  0  0  0  0  0
  148.2477  139.1903  180.2727 F   0  0  0  0  0  0  0  0  0  0  0  0
  154.0880  138.5884  187.6661 C   0  0  0  0  0  0  0  0  0  0  0  0
  151.4952  135.4487  189.5791 N   0  0  0  0  0  0  0  0  0  0  0  0
  151.7423  135.3283  190.8904 C   0  0  0  0  0  0  0  0  0  0  0  0
  151.0871  134.4875  191.5526 O   0  0  0  0  0  0  0  0  0  0  0  0
  152.6534  136.0585  191.5356 N   0  0  0  0  0  0  0  0  0  0  0  0
  152.9226  135.9306  192.9530 C   0  0  0  0  0  0  0  0  0  0  0  0
  153.3714  136.9680  190.8530 C   0  0  0  0  0  0  0  0  0  0  0  0
  154.3460  137.8409  191.2043 N   0  0  0  0  0  0  0  0  0  0  0  0
  154.7111  138.5143  190.0996 C   0  0  0  0  0  0  0  0  0  0  0  0
  153.9987  138.0988  189.0494 N   0  0  0  0  0  0  0  0  0  0  0  0
  153.1683  137.1500  189.4800 C   0  0  0  0  0  0  0  0  0  0  0  0
  152.2026  136.3530  188.8770 C   0  0  0  0  0  0  0  0  0  0  0  0
  151.9969  136.4919  187.6443 O   0  0  0  0  0  0  0  0  0  0  0  0
  150.4819  134.6225  188.9112 C   0  0  0  0  0  0  0  0  0  0  0  0
  146.8118  137.0089  186.3820 C   0  0  0  0  0  0  0  0  0  0  0  0
  147.6418  136.4602  187.4714 C   0  0  0  0  0  0  0  0  0  0  0  0
  148.8074  135.7185  187.3450 C   0  0  0  0  0  0  0  0  0  0  0  0
  149.2571  135.4095  188.6122 C   0  0  0  0  0  0  0  0  0  0  0  0
  148.3931  135.9464  189.4501 O   0  0  0  0  0  0  0  0  0  0  0  0
  147.4482  136.5607  188.8046 N   0  0  0  0  0  0  0  0  0  0  0  0
 36 37  1  0  0  0
 37 38  1  0  0  0
 38 39  2  0  0  0
 39 35  1  0  0  0
 35 23  1  0  0  0
 23 24  1  0  0  0
 24 25  2  0  0  0
 24 26  1  0  0  0
 26 27  1  0  0  0
 26 28  1  0  0  0
 28 29  1  0  0  0
 29 30  2  0  0  0
 30 31  1  0  0  0
 31 22  1  0  0  0
 22  1  1  0  0  0
  1  2  2  0  0  0
  1  3  1  0  0  0
  3  5  1  0  0  0
  5  6  2  0  0  0
  6  7  1  0  0  0
  7  8  2  0  0  0
  8  9  1  0  0  0
  9 10  2  0  0  0
  9 11  1  0  0  0
 11 12  2  0  0  0
 12 13  1  0  0  0
 13 14  2  0  0  0
 14 15  1  0  0  0
 15 16  1  0  0  0
 15 17  2  0  0  0
 14 18  1  0  0  0
 18 19  1  0  0  0
 18 20  1  0  0  0
 18 21  1  0  0  0
 31 32  1  0  0  0
 32 33  1  0  0  0
 33 34  2  0  0  0
 39 40  1  0  0  0
 40 41  1  0  0  0
 41 37  2  0  0  0
 33 23  1  0  0  0
 32 28  2  0  0  0
 10  5  1  0  0  0
 17 11  1  0  0  0
  3  4  1  0  0  0
M  END
> <minimizedAffinity>
-7.99563

> <CNNscore>
0.3144736886

> <CNNaffinity>
6.3463525772

> <CNN_VS>
1.9957609177

> <CNNaffinity_variance>
0.3198684454

$$$$
[H]c1nc(C(F)(F)F)c(C([H])([H])[H])c([H])c1-c1nc(N([H])C(=O)C([H])([H])n2c([H])nc3c2c(=O)n(C([H])([H])c2onc(C([H])([H])[H])c2[H])c(=O)n3C([H])([H])[H])c([H])c([H])c1[H]


 41 45  0  0  0  0  0  0  0  0999 V2000
  154.0979  134.4238  183.1710 C   0  0  0  0  0  0  0  0  0  0  0  0
  153.8218  134.3448  181.8875 O   0  0  0  0  0  0  0  0  0  0  0  0
  155.1526  133.6279  183.5788 N   0  0  0  0  0  0  0  0  0  0  0  0
  155.6119  133.0391  182.7588 H   0  0  0  0  0  0  0  0  0  0  0  0
  155.7775  133.3899  184.8092 C   0  0  0  0  0  0  0  0  0  0  0  0
  156.5461  132.3102  185.0793 C   0  0  0  0  0  0  0  0  0  0  0  0
  157.1122  132.1853  186.3507 C   0  0  0  0  0  0  0  0  0  0  0  0
  156.8643  133.1662  187.2757 C   0  0  0  0  0  0  0  0  0  0  0  0
  156.0878  134.2635  187.0127 C   0  0  0  0  0  0  0  0  0  0  0  0
  155.5639  134.3441  185.7803 N   0  0  0  0  0  0  0  0  0  0  0  0
  155.8197  135.3202  188.0083 C   0  0  0  0  0  0  0  0  0  0  0  0
  155.1617  136.4556  187.6772 C   0  0  0  0  0  0  0  0  0  0  0  0
  154.9494  137.3799  188.6296 N   0  0  0  0  0  0  0  0  0  0  0  0
  155.3635  137.2283  189.9071 C   0  0  0  0  0  0  0  0  0  0  0  0
  156.0352  136.0896  190.2839 C   0  0  0  0  0  0  0  0  0  0  0  0
  156.5072  135.8737  191.6589 C   0  0  0  0  0  0  0  0  0  0  0  0
  156.2604  135.1277  189.3091 C   0  0  0  0  0  0  0  0  0  0  0  0
  155.0833  138.3048  190.8917 C   0  0  0  0  0  0  0  0  0  0  0  0
  154.1606  137.8740  191.8386 F   0  0  0  0  0  0  0  0  0  0  0  0
  156.2432  138.7802  191.4877 F   0  0  0  0  0  0  0  0  0  0  0  0
  154.4678  139.3756  190.2440 F   0  0  0  0  0  0  0  0  0  0  0  0
  153.2596  135.3304  183.9673 C   0  0  0  0  0  0  0  0  0  0  0  0
  154.0020  139.6959  183.1729 N   0  0  0  0  0  0  0  0  0  0  0  0
  153.1464  140.1913  182.2686 C   0  0  0  0  0  0  0  0  0  0  0  0
  153.2380  141.4021  181.9520 O   0  0  0  0  0  0  0  0  0  0  0  0
  152.1953  139.4627  181.6820 N   0  0  0  0  0  0  0  0  0  0  0  0
  151.2690  139.9955  180.7043 C   0  0  0  0  0  0  0  0  0  0  0  0
  152.0721  138.1620  182.0009 C   0  0  0  0  0  0  0  0  0  0  0  0
  151.2351  137.1775  181.5939 N   0  0  0  0  0  0  0  0  0  0  0  0
  151.5719  136.0548  182.2520 C   0  0  0  0  0  0  0  0  0  0  0  0
  152.6008  136.2904  183.0699 N   0  0  0  0  0  0  0  0  0  0  0  0
  152.9303  137.5746  182.9378 C   0  0  0  0  0  0  0  0  0  0  0  0
  153.8961  138.3964  183.5063 C   0  0  0  0  0  0  0  0  0  0  0  0
  154.6832  137.8984  184.3512 O   0  0  0  0  0  0  0  0  0  0  0  0
  155.0338  140.5366  183.7926 C   0  0  0  0  0  0  0  0  0  0  0  0
  158.6952  141.6631  180.4931 C   0  0  0  0  0  0  0  0  0  0  0  0
  157.9138  141.0011  181.5551 C   0  0  0  0  0  0  0  0  0  0  0  0
  156.6671  141.3750  182.0355 C   0  0  0  0  0  0  0  0  0  0  0  0
  156.3048  140.4835  183.0241 C   0  0  0  0  0  0  0  0  0  0  0  0
  157.2960  139.6206  183.1223 O   0  0  0  0  0  0  0  0  0  0  0  0
  158.2392  139.9061  182.2763 N   0  0  0  0  0  0  0  0  0  0  0  0
 36 37  1  0  0  0
 37 38  1  0  0  0
 38 39  2  0  0  0
 39 35  1  0  0  0
 35 23  1  0  0  0
 23 24  1  0  0  0
 24 25  2  0  0  0
 24 26  1  0  0  0
 26 27  1  0  0  0
 26 28  1  0  0  0
 28 29  1  0  0  0
 29 30  2  0  0  0
 30 31  1  0  0  0
 31 22  1  0  0  0
 22  1  1  0  0  0
  1  2  2  0  0  0
  1  3  1  0  0  0
  3  5  1  0  0  0
  5  6  2  0  0  0
  6  7  1  0  0  0
  7  8  2  0  0  0
  8  9  1  0  0  0
  9 10  2  0  0  0
  9 11  1  0  0  0
 11 12  2  0  0  0
 12 13  1  0  0  0
 13 14  2  0  0  0
 14 15  1  0  0  0
 15 16  1  0  0  0
 15 17  2  0  0  0
 14 18  1  0  0  0
 18 19  1  0  0  0
 18 20  1  0  0  0
 18 21  1  0  0  0
 31 32  1  0  0  0
 32 33  1  0  0  0
 33 34  2  0  0  0
 39 40  1  0  0  0
 40 41  1  0  0  0
 41 37  2  0  0  0
 33 23  1  0  0  0
 32 28  2  0  0  0
 10  5  1  0  0  0
 17 11  1  0  0  0
  3  4  1  0  0  0
M  END
> <minimizedAffinity>
-7.81878

> <CNNscore>
0.3049582541

> <CNNaffinity>
6.3886613846

> <CNN_VS>
1.9482749701

> <CNNaffinity_variance>
0.3616409898

$$$$
[H]C([H])([H])C([H])([H])C([H])(N=C=S)C([H])([H])[H]


  7  6  0  0  0  0  0  0  0  0999 V2000
  154.6883  138.1739  190.9578 C   0  0  0  0  0  0  0  0  0  0  0  0
  154.3584  138.4064  189.4850 C   0  0  0  0  0  0  0  0  0  0  0  0
  153.9979  136.9688  191.3548 N   0  0  0  0  0  0  0  0  0  0  0  0
  153.0092  136.9719  192.1490 C   0  0  0  0  0  0  0  0  0  0  0  0
  151.6215  137.1009  192.9521 S   0  0  0  0  0  0  0  0  0  0  0  0
  156.8726  137.8756  189.7547 C   0  0  0  0  0  0  0  0  0  0  0  0
  156.1770  138.0340  191.0643 C   0  0  0  0  0  0  0  0  0  0  0  0
  6  7  1  0  0  0
  7  1  1  0  0  0
  1  2  1  0  0  0
  1  3  1  0  0  0
  3  4  2  0  0  0
  4  5  2  0  0  0
M  END
> <minimizedAffinity>
-3.03717

> <CNNscore>
0.7428193092

> <CNNaffinity>
3.2859721184

> <CNN_VS>
2.4408836365

> <CNNaffinity_variance>
0.1228481904

$$$$
[H]C([H])([H])C([H])([H])C([H])(N=C=S)C([H])([H])[H]


  7  6  0  0  0  0  0  0  0  0999 V2000
  159.4618  141.6519  183.5622 C   0  0  0  0  0  0  0  0  0  0  0  0
  159.1024  140.3032  182.9426 C   0  0  0  0  0  0  0  0  0  0  0  0
  160.8682  141.5997  183.8880 N   0  0  0  0  0  0  0  0  0  0  0  0
  161.3758  142.2492  184.8518 C   0  0  0  0  0  0  0  0  0  0  0  0
  161.8771  142.9016  186.2340 S   0  0  0  0  0  0  0  0  0  0  0  0
  157.7366  143.1624  182.5378 C   0  0  0  0  0  0  0  0  0  0  0  0
  159.1565  142.7066  182.5417 C   0  0  0  0  0  0  0  0  0  0  0  0
  6  7  1  0  0  0
  7  1  1  0  0  0
  1  2  1  0  0  0
  1  3  1  0  0  0
  3  4  2  0  0  0
  4  5  2  0  0  0
M  END
> <minimizedAffinity>
-3.20680

> <CNNscore>
0.7282563448

> <CNNaffinity>
3.9716331959

> <CNN_VS>
2.8923671246

> <CNNaffinity_variance>
0.0357446223

$$$$
[H]C([H])([H])C([H])([H])C([H])(N=C=S)C([H])([H])[H]


  7  6  0  0  0  0  0  0  0  0999 V2000
  155.0951  136.9258  190.3059 C   0  0  0  0  0  0  0  0  0  0  0  0
  156.1695  137.0032  191.3884 C   0  0  0  0  0  0  0  0  0  0  0  0
  154.0154  136.1323  190.8457 N   0  0  0  0  0  0  0  0  0  0  0  0
  153.3076  136.5107  191.8277 C   0  0  0  0  0  0  0  0  0  0  0  0
  152.3133  137.1801  192.9002 S   0  0  0  0  0  0  0  0  0  0  0  0
  154.0192  138.4972  188.6687 C   0  0  0  0  0  0  0  0  0  0  0  0
  154.6675  138.3298  190.0012 C   0  0  0  0  0  0  0  0  0  0  0  0
  6  7  1  0  0  0
  7  1  1  0  0  0
  1  2  1  0  0  0
  1  3  1  0  0  0
  3  4  2  0  0  0
  4  5  2  0  0  0
M  END
> <minimizedAffinity>
-2.69526

> <CNNscore>
0.7070682645

> <CNNaffinity>
3.2570278645

> <CNN_VS>
2.3029410839

> <CNNaffinity_variance>
0.1315521300

$$$$
[H]C([H])([H])C([H])([H])C([H])(N=C=S)C([H])([H])[H]


  7  6  0  0  0  0  0  0  0  0999 V2000
  157.6871  142.6270  180.8319 C   0  0  0  0  0  0  0  0  0  0  0  0
  158.2735  142.0675  179.5376 C   0  0  0  0  0  0  0  0  0  0  0  0
  156.9631  141.5478  181.4626 N   0  0  0  0  0  0  0  0  0  0  0  0
  155.8355  141.7092  182.0203 C   0  0  0  0  0  0  0  0  0  0  0  0
  154.3122  141.9570  182.4734 S   0  0  0  0  0  0  0  0  0  0  0  0
  158.8924  144.5849  181.8425 C   0  0  0  0  0  0  0  0  0  0  0  0
  158.8340  143.1047  181.6707 C   0  0  0  0  0  0  0  0  0  0  0  0
  6  7  1  0  0  0
  7  1  1  0  0  0
  1  2  1  0  0  0
  1  3  1  0  0  0
  3  4  2  0  0  0
  4  5  2  0  0  0
M  END
> <minimizedAffinity>
-3.32017

> <CNNscore>
0.6792150736

> <CNNaffinity>
3.9961171150

> <CNN_VS>
2.7142229080

> <CNNaffinity_variance>
0.0435640626

$$$$
[H]C([H])([H])C([H])([H])C([H])(N=C=S)C([H])([H])[H]


  7  6  0  0  0  0  0  0  0  0999 V2000
  158.4312  143.5693  181.7198 C   0  0  0  0  0  0  0  0  0  0  0  0
  159.0784  144.7879  182.3741 C   0  0  0  0  0  0  0  0  0  0  0  0
  157.0121  143.8324  181.6597 N   0  0  0  0  0  0  0  0  0  0  0  0
  156.1746  143.2681  182.4269 C   0  0  0  0  0  0  0  0  0  0  0  0
  155.2296  142.7009  183.5985 S   0  0  0  0  0  0  0  0  0  0  0  0
  158.4016  142.3666  179.5152 C   0  0  0  0  0  0  0  0  0  0  0  0
  159.0370  143.4211  180.3567 C   0  0  0  0  0  0  0  0  0  0  0  0
  6  7  1  0  0  0
  7  1  1  0  0  0
  1  2  1  0  0  0
  1  3  1  0  0  0
  3  4  2  0  0  0
  4  5  2  0  0  0
M  END
> <minimizedAffinity>
-3.47689

> <CNNscore>
0.6752148271

> <CNNaffinity>
4.0248446465

> <CNN_VS>
2.7176346779

> <CNNaffinity_variance>
0.1367781460

$$$$
[H]C([H])([H])C([H])([H])C([H])(N=C=S)C([H])([H])[H]


  7  6  0  0  0  0  0  0  0  0999 V2000
  150.7833  138.8230  180.0309 C   0  0  0  0  0  0  0  0  0  0  0  0
  150.0708  139.2066  181.3259 C   0  0  0  0  0  0  0  0  0  0  0  0
  149.8567  139.0799  178.9529 N   0  0  0  0  0  0  0  0  0  0  0  0
  148.7780  138.4299  178.8031 C   0  0  0  0  0  0  0  0  0  0  0  0
  147.3291  137.7326  178.8421 S   0  0  0  0  0  0  0  0  0  0  0  0
  152.4642  140.2532  181.2295 C   0  0  0  0  0  0  0  0  0  0  0  0
  152.0152  139.6713  179.9319 C   0  0  0  0  0  0  0  0  0  0  0  0
  6  7  1  0  0  0
  7  1  1  0  0  0
  1  2  1  0  0  0
  1  3  1  0  0  0
  3  4  2  0  0  0
  4  5  2  0  0  0
M  END
> <minimizedAffinity>
-2.79418

> <CNNscore>
0.6751105189

> <CNNaffinity>
3.1620221138

> <CNN_VS>
2.1347143650

> <CNNaffinity_variance>
0.0704351887

$$$$
[H]C([H])([H])C([H])([H])C([H])(N=C=S)C([H])([H])[H]


  7  6  0  0  0  0  0  0  0  0999 V2000
  155.3181  138.2269  191.0129 C   0  0  0  0  0  0  0  0  0  0  0  0
  154.0162  137.5189  191.3813 C   0  0  0  0  0  0  0  0  0  0  0  0
  156.3905  137.4667  191.6119 N   0  0  0  0  0  0  0  0  0  0  0  0
  156.5058  136.2115  191.4719 C   0  0  0  0  0  0  0  0  0  0  0  0
  156.7096  134.6776  191.0327 S   0  0  0  0  0  0  0  0  0  0  0  0
  154.1022  138.4709  188.8289 C   0  0  0  0  0  0  0  0  0  0  0  0
  155.4064  138.2469  189.5166 C   0  0  0  0  0  0  0  0  0  0  0  0
  6  7  1  0  0  0
  7  1  1  0  0  0
  1  2  1  0  0  0
  1  3  1  0  0  0
  3  4  2  0  0  0
  4  5  2  0  0  0
M  END
> <minimizedAffinity>
-2.95427

> <CNNscore>
0.6618469954

> <CNNaffinity>
3.3070189953

> <CNN_VS>
2.1887404919

> <CNNaffinity_variance>
0.1270976663

$$$$
[H]C([H])([H])C([H])([H])C([H])(N=C=S)C([H])([H])[H]


  7  6  0  0  0  0  0  0  0  0999 V2000
  155.1428  137.7196  188.3653 C   0  0  0  0  0  0  0  0  0  0  0  0
  153.8378  138.5099  188.4315 C   0  0  0  0  0  0  0  0  0  0  0  0
  155.7807  138.0712  187.1179 N   0  0  0  0  0  0  0  0  0  0  0  0
  155.1400  138.2092  186.0322 C   0  0  0  0  0  0  0  0  0  0  0  0
  154.2194  138.6064  184.7744 S   0  0  0  0  0  0  0  0  0  0  0  0
  155.1685  138.6123  190.7127 C   0  0  0  0  0  0  0  0  0  0  0  0
  155.9656  138.1180  189.5533 C   0  0  0  0  0  0  0  0  0  0  0  0
  6  7  1  0  0  0
  7  1  1  0  0  0
  1  2  1  0  0  0
  1  3  1  0  0  0
  3  4  2  0  0  0
  4  5  2  0  0  0
M  END
> <minimizedAffinity>
-2.83993

> <CNNscore>
0.6531349421

> <CNNaffinity>
3.3536140919

> <CNN_VS>
2.1903624535

> <CNNaffinity_variance>
0.0144615490

$$$$
[H]C([H])([H])C([H])([H])C([H])(N=C=S)C([H])([H])[H]


  7  6  0  0  0  0  0  0  0  0999 V2000
  157.8003  142.3805  180.8393 C   0  0  0  0  0  0  0  0  0  0  0  0
  158.3350  142.3275  179.4098 C   0  0  0  0  0  0  0  0  0  0  0  0
  157.4868  141.0222  181.2180 N   0  0  0  0  0  0  0  0  0  0  0  0
  157.1732  140.6929  182.4019 C   0  0  0  0  0  0  0  0  0  0  0  0
  156.5458  140.4179  183.8573 S   0  0  0  0  0  0  0  0  0  0  0  0
  158.8716  144.4626  181.7474 C   0  0  0  0  0  0  0  0  0  0  0  0
  158.8783  142.9722  181.6966 C   0  0  0  0  0  0  0  0  0  0  0  0
  6  7  1  0  0  0
  7  1  1  0  0  0
  1  2  1  0  0  0
  1  3  1  0  0  0
  3  4  2  0  0  0
  4  5  2  0  0  0
M  END
> <minimizedAffinity>
-3.37036

> <CNNscore>
0.6481691599

> <CNNaffinity>
3.9104824066

> <CNN_VS>
2.5346541405

> <CNNaffinity_variance>
0.0460788272

$$$$
[H]c1nc(N2C([H])([H])C3([H])C([H])([H])C3([H])C2([H])[H])c([H])c([H])c1-c1nc(N([H])C(=O)[C@@]([H])(n2c([H])nc3c2c(=O)n(C([H])([H])C#N)c(=O)n3C([H])([H])[H])C([H])([H])[H])c([H])s1


 38 43  0  0  0  0  0  0  0  0999 V2000
  157.9799  133.4715  187.0947 C   0  0  0  0  0  0  0  0  0  0  0  0
  159.0183  132.6486  186.9840 O   0  0  0  0  0  0  0  0  0  0  0  0
  156.8690  133.0453  186.4466 N   0  0  0  0  0  0  0  0  0  0  0  0
  156.9839  132.0898  185.9160 H   0  0  0  0  0  0  0  0  0  0  0  0
  155.5641  133.6118  186.3887 C   0  0  0  0  0  0  0  0  0  0  0  0
  154.9558  134.1167  185.2762 C   0  0  0  0  0  0  0  0  0  0  0  0
  153.4045  134.5891  185.8909 S   0  0  0  0  0  0  0  0  0  0  0  0
  153.6271  134.1206  187.5051 C   0  0  0  0  0  0  0  0  0  0  0  0
  154.8322  133.6423  187.4983 N   0  0  0  0  0  0  0  0  0  0  0  0
  152.6772  134.2275  188.6517 C   0  0  0  0  0  0  0  0  0  0  0  0
  151.7309  135.2239  188.6438 C   0  0  0  0  0  0  0  0  0  0  0  0
  150.8334  135.3540  189.6910 C   0  0  0  0  0  0  0  0  0  0  0  0
  150.9481  134.4365  190.7235 C   0  0  0  0  0  0  0  0  0  0  0  0
  151.8997  133.4636  190.6941 N   0  0  0  0  0  0  0  0  0  0  0  0
  152.7720  133.3370  189.6762 C   0  0  0  0  0  0  0  0  0  0  0  0
  150.0417  134.5486  191.8057 N   0  0  0  0  0  0  0  0  0  0  0  0
  148.8448  133.7714  192.0377 C   0  0  0  0  0  0  0  0  0  0  0  0
  148.6463  133.7533  193.5437 C   0  0  0  0  0  0  0  0  0  0  0  0
  149.8290  133.4699  194.4078 C   0  0  0  0  0  0  0  0  0  0  0  0
  149.4410  134.8709  194.0701 C   0  0  0  0  0  0  0  0  0  0  0  0
  150.1769  135.5035  192.9017 C   0  0  0  0  0  0  0  0  0  0  0  0
  159.6993  134.5417  188.4917 C   0  0  0  0  0  0  0  0  0  0  0  0
  158.2855  134.6631  187.8954 C   0  0  0  0  0  0  0  0  0  0  0  0
  157.4057  134.6528  189.0703 N   0  0  0  0  0  0  0  0  0  0  0  0
  157.4419  133.6484  189.9649 C   0  0  0  0  0  0  0  0  0  0  0  0
  156.5438  133.8783  190.9320 N   0  0  0  0  0  0  0  0  0  0  0  0
  155.9175  135.0418  190.6649 C   0  0  0  0  0  0  0  0  0  0  0  0
  154.9611  135.7630  191.2456 N   0  0  0  0  0  0  0  0  0  0  0  0
  154.3882  135.2450  192.4870 C   0  0  0  0  0  0  0  0  0  0  0  0
  154.5246  136.9185  190.7334 C   0  0  0  0  0  0  0  0  0  0  0  0
  153.6192  137.5660  191.3163 O   0  0  0  0  0  0  0  0  0  0  0  0
  155.0765  137.3764  189.5762 N   0  0  0  0  0  0  0  0  0  0  0  0
  156.0509  136.7049  188.9253 C   0  0  0  0  0  0  0  0  0  0  0  0
  156.5537  137.1354  187.8578 O   0  0  0  0  0  0  0  0  0  0  0  0
  156.4830  135.5173  189.4737 C   0  0  0  0  0  0  0  0  0  0  0  0
  154.6250  138.6293  188.9955 C   0  0  0  0  0  0  0  0  0  0  0  0
  153.5880  138.2888  188.0151 C   0  0  0  0  0  0  0  0  0  0  0  0
  152.7734  138.0200  187.2296 N   0  0  0  0  0  0  0  0  0  0  0  0
 22 23  1  0  0  0
 23  1  1  0  0  0
  1  2  2  0  0  0
  1  3  1  0  0  0
  3  5  1  0  0  0
  5  6  2  0  0  0
  6  7  1  0  0  0
  7  8  1  0  0  0
  8  9  2  0  0  0
  8 10  1  0  0  0
 10 11  2  0  0  0
 11 12  1  0  0  0
 12 13  2  0  0  0
 13 14  1  0  0  0
 14 15  2  0  0  0
 13 16  1  0  0  0
 16 17  1  0  0  0
 17 18  1  0  0  0
 18 19  1  0  0  0
 19 20  1  0  0  0
 20 21  1  0  0  0
 23 24  1  0  0  0
 24 25  1  0  0  0
 25 26  2  0  0  0
 26 27  1  0  0  0
 27 28  1  0  0  0
 28 29  1  0  0  0
 28 30  1  0  0  0
 30 31  2  0  0  0
 30 32  1  0  0  0
 32 36  1  0  0  0
 36 37  1  0  0  0
 37 38  3  0  0  0
 32 33  1  0  0  0
 33 34  2  0  0  0
 33 35  1  0  0  0
  9  5  1  0  0  0
 15 10  1  0  0  0
 21 16  1  0  0  0
 35 24  1  0  0  0
 20 18  1  0  0  0
 35 27  2  0  0  0
  3  4  1  0  0  0
M  END
> <minimizedAffinity>
-4.78949

> <CNNscore>
0.3132875264

> <CNNaffinity>
5.8006658554

> <CNN_VS>
1.8172762394

> <CNNaffinity_variance>
0.5357385874

$$$$
[H]c1nc(N2C([H])([H])C3([H])C([H])([H])C3([H])C2([H])[H])c([H])c([H])c1-c1nc(N([H])C(=O)[C@@]([H])(n2c([H])nc3c2c(=O)n(C([H])([H])C#N)c(=O)n3C([H])([H])[H])C([H])([H])[H])c([H])s1


 38 43  0  0  0  0  0  0  0  0999 V2000
  154.2254  134.0863  186.4415 C   0  0  0  0  0  0  0  0  0  0  0  0
  153.8975  132.8066  186.2897 O   0  0  0  0  0  0  0  0  0  0  0  0
  153.2379  134.9505  186.1043 N   0  0  0  0  0  0  0  0  0  0  0  0
  152.3135  134.4760  185.7462 H   0  0  0  0  0  0  0  0  0  0  0  0
  153.1900  136.3708  186.1909 C   0  0  0  0  0  0  0  0  0  0  0  0
  152.4847  137.0968  187.1064 C   0  0  0  0  0  0  0  0  0  0  0  0
  152.8986  138.7255  186.6780 S   0  0  0  0  0  0  0  0  0  0  0  0
  153.9294  138.3825  185.3763 C   0  0  0  0  0  0  0  0  0  0  0  0
  153.9097  137.0868  185.3323 N   0  0  0  0  0  0  0  0  0  0  0  0
  154.6769  139.3299  184.4976 C   0  0  0  0  0  0  0  0  0  0  0  0
  153.9868  140.0478  183.5507 C   0  0  0  0  0  0  0  0  0  0  0  0
  154.6474  140.9357  182.7174 C   0  0  0  0  0  0  0  0  0  0  0  0
  156.0171  141.0510  182.8952 C   0  0  0  0  0  0  0  0  0  0  0  0
  156.6643  140.3217  183.8451 N   0  0  0  0  0  0  0  0  0  0  0  0
  156.0223  139.4588  184.6552 C   0  0  0  0  0  0  0  0  0  0  0  0
  156.7150  141.9525  182.0555 N   0  0  0  0  0  0  0  0  0  0  0  0
  156.6301  143.3959  182.0471 C   0  0  0  0  0  0  0  0  0  0  0  0
  157.9752  143.8885  181.5415 C   0  0  0  0  0  0  0  0  0  0  0  0
  159.2104  143.2754  182.1107 C   0  0  0  0  0  0  0  0  0  0  0  0
  158.5947  142.7449  180.8589 C   0  0  0  0  0  0  0  0  0  0  0  0
  157.6685  141.5526  181.0247 C   0  0  0  0  0  0  0  0  0  0  0  0
  156.0095  133.0406  187.7744 C   0  0  0  0  0  0  0  0  0  0  0  0
  155.5953  134.2641  186.9374 C   0  0  0  0  0  0  0  0  0  0  0  0
  155.5827  135.3661  187.9069 N   0  0  0  0  0  0  0  0  0  0  0  0
  156.3940  136.4307  187.7692 C   0  0  0  0  0  0  0  0  0  0  0  0
  156.1883  137.2836  188.7817 N   0  0  0  0  0  0  0  0  0  0  0  0
  155.2354  136.7702  189.5853 C   0  0  0  0  0  0  0  0  0  0  0  0
  154.6324  137.1500  190.7096 N   0  0  0  0  0  0  0  0  0  0  0  0
  155.0374  138.4290  191.2909 C   0  0  0  0  0  0  0  0  0  0  0  0
  153.6907  136.4090  191.3029 C   0  0  0  0  0  0  0  0  0  0  0  0
  153.1483  136.8076  192.3638 O   0  0  0  0  0  0  0  0  0  0  0  0
  153.3337  135.2224  190.7390 N   0  0  0  0  0  0  0  0  0  0  0  0
  153.8970  134.7655  189.5996 C   0  0  0  0  0  0  0  0  0  0  0  0
  153.5612  133.6691  189.0872 O   0  0  0  0  0  0  0  0  0  0  0  0
  154.8645  135.5478  189.0081 C   0  0  0  0  0  0  0  0  0  0  0  0
  152.3125  134.3952  191.3586 C   0  0  0  0  0  0  0  0  0  0  0  0
  153.0162  133.3353  192.0891 C   0  0  0  0  0  0  0  0  0  0  0  0
  153.5644  132.4917  192.6729 N   0  0  0  0  0  0  0  0  0  0  0  0
 22 23  1  0  0  0
 23  1  1  0  0  0
  1  2  2  0  0  0
  1  3  1  0  0  0
  3  5  1  0  0  0
  5  6  2  0  0  0
  6  7  1  0  0  0
  7  8  1  0  0  0
  8  9  2  0  0  0
  8 10  1  0  0  0
 10 11  2  0  0  0
 11 12  1  0  0  0
 12 13  2  0  0  0
 13 14  1  0  0  0
 14 15  2  0  0  0
 13 16  1  0  0  0
 16 17  1  0  0  0
 17 18  1  0  0  0
 18 19  1  0  0  0
 19 20  1  0  0  0
 20 21  1  0  0  0
 23 24  1  0  0  0
 24 25  1  0  0  0
 25 26  2  0  0  0
 26 27  1  0  0  0
 27 28  1  0  0  0
 28 29  1  0  0  0
 28 30  1  0  0  0
 30 31  2  0  0  0
 30 32  1  0  0  0
 32 36  1  0  0  0
 36 37  1  0  0  0
 37 38  3  0  0  0
 32 33  1  0  0  0
 33 34  2  0  0  0
 33 35  1  0  0  0
  9  5  1  0  0  0
 15 10  1  0  0  0
 21 16  1  0  0  0
 35 24  1  0  0  0
 20 18  1  0  0  0
 35 27  2  0  0  0
  3  4  1  0  0  0
M  END
> <minimizedAffinity>
-6.50504

> <CNNscore>
0.2067340761

> <CNNaffinity>
6.2788848877

> <CNN_VS>
1.2980594635

> <CNNaffinity_variance>
0.1333425641

$$$$
[H]c1nc(N2C([H])([H])C3([H])C([H])([H])C3([H])C2([H])[H])c([H])c([H])c1-c1nc(N([H])C(=O)[C@@]([H])(n2c([H])nc3c2c(=O)n(C([H])([H])C#N)c(=O)n3C([H])([H])[H])C([H])([H])[H])c([H])s1


 38 43  0  0  0  0  0  0  0  0999 V2000
  148.2366  138.0621  182.2175 C   0  0  0  0  0  0  0  0  0  0  0  0
  147.2769  138.8248  181.7026 O   0  0  0  0  0  0  0  0  0  0  0  0
  147.9865  137.6421  183.4812 N   0  0  0  0  0  0  0  0  0  0  0  0
  147.0358  137.9960  183.9040 H   0  0  0  0  0  0  0  0  0  0  0  0
  148.7338  136.7735  184.3261 C   0  0  0  0  0  0  0  0  0  0  0  0
  148.5679  135.4235  184.4392 C   0  0  0  0  0  0  0  0  0  0  0  0
  149.8039  134.9979  185.5788 S   0  0  0  0  0  0  0  0  0  0  0  0
  150.4442  136.5465  185.8362 C   0  0  0  0  0  0  0  0  0  0  0  0
  149.7104  137.2887  185.0668 N   0  0  0  0  0  0  0  0  0  0  0  0
  151.5715  136.9593  186.7236 C   0  0  0  0  0  0  0  0  0  0  0  0
  152.4564  137.9120  186.2790 C   0  0  0  0  0  0  0  0  0  0  0  0
  153.5146  138.3191  187.0750 C   0  0  0  0  0  0  0  0  0  0  0  0
  153.6217  137.7182  188.3193 C   0  0  0  0  0  0  0  0  0  0  0  0
  152.7242  136.7778  188.7230 N   0  0  0  0  0  0  0  0  0  0  0  0
  151.6954  136.3820  187.9496 C   0  0  0  0  0  0  0  0  0  0  0  0
  154.6953  138.1178  189.1517 N   0  0  0  0  0  0  0  0  0  0  0  0
  154.6170  138.7443  190.4523 C   0  0  0  0  0  0  0  0  0  0  0  0
  155.8828  138.3369  191.1869 C   0  0  0  0  0  0  0  0  0  0  0  0
  156.2975  136.9048  191.1370 C   0  0  0  0  0  0  0  0  0  0  0  0
  156.8264  137.8936  190.1521 C   0  0  0  0  0  0  0  0  0  0  0  0
  156.1067  137.9543  188.8160 C   0  0  0  0  0  0  0  0  0  0  0  0
  149.1387  138.6982  180.0187 C   0  0  0  0  0  0  0  0  0  0  0  0
  149.3554  137.8576  181.2898 C   0  0  0  0  0  0  0  0  0  0  0  0
  149.2938  136.4716  180.8102 N   0  0  0  0  0  0  0  0  0  0  0  0
  148.3108  136.0561  179.9906 C   0  0  0  0  0  0  0  0  0  0  0  0
  148.4836  134.7581  179.7074 N   0  0  0  0  0  0  0  0  0  0  0  0
  149.5879  134.3249  180.3477 C   0  0  0  0  0  0  0  0  0  0  0  0
  150.2391  133.1680  180.4457 N   0  0  0  0  0  0  0  0  0  0  0  0
  149.6974  132.0270  179.7093 C   0  0  0  0  0  0  0  0  0  0  0  0
  151.3467  133.0296  181.1819 C   0  0  0  0  0  0  0  0  0  0  0  0
  151.9285  131.9178  181.2452 O   0  0  0  0  0  0  0  0  0  0  0  0
  151.8282  134.1094  181.8570 N   0  0  0  0  0  0  0  0  0  0  0  0
  151.2269  135.3179  181.8100 C   0  0  0  0  0  0  0  0  0  0  0  0
  151.6785  136.3082  182.4368 O   0  0  0  0  0  0  0  0  0  0  0  0
  150.0875  135.4340  181.0443 C   0  0  0  0  0  0  0  0  0  0  0  0
  153.0305  133.9916  182.6642 C   0  0  0  0  0  0  0  0  0  0  0  0
  154.1643  133.9984  181.7332 C   0  0  0  0  0  0  0  0  0  0  0  0
  155.0667  133.9939  180.9993 N   0  0  0  0  0  0  0  0  0  0  0  0
 22 23  1  0  0  0
 23  1  1  0  0  0
  1  2  2  0  0  0
  1  3  1  0  0  0
  3  5  1  0  0  0
  5  6  2  0  0  0
  6  7  1  0  0  0
  7  8  1  0  0  0
  8  9  2  0  0  0
  8 10  1  0  0  0
 10 11  2  0  0  0
 11 12  1  0  0  0
 12 13  2  0  0  0
 13 14  1  0  0  0
 14 15  2  0  0  0
 13 16  1  0  0  0
 16 17  1  0  0  0
 17 18  1  0  0  0
 18 19  1  0  0  0
 19 20  1  0  0  0
 20 21  1  0  0  0
 23 24  1  0  0  0
 24 25  1  0  0  0
 25 26  2  0  0  0
 26 27  1  0  0  0
 27 28  1  0  0  0
 28 29  1  0  0  0
 28 30  1  0  0  0
 30 31  2  0  0  0
 30 32  1  0  0  0
 32 36  1  0  0  0
 36 37  1  0  0  0
 37 38  3  0  0  0
 32 33  1  0  0  0
 33 34  2  0  0  0
 33 35  1  0  0  0
  9  5  1  0  0  0
 15 10  1  0  0  0
 21 16  1  0  0  0
 35 24  1  0  0  0
 20 18  1  0  0  0
 35 27  2  0  0  0
  3  4  1  0  0  0
M  END
> <minimizedAffinity>
-5.40997

> <CNNscore>
0.2056112885

> <CNNaffinity>
5.8499221802

> <CNN_VS>
1.2028100491

> <CNNaffinity_variance>
0.0338134728

$$$$
[H]c1nc(N2C([H])([H])C3([H])C([H])([H])C3([H])C2([H])[H])c([H])c([H])c1-c1nc(N([H])C(=O)[C@@]([H])(n2c([H])nc3c2c(=O)n(C([H])([H])C#N)c(=O)n3C([H])([H])[H])C([H])([H])[H])c([H])s1


 38 43  0  0  0  0  0  0  0  0999 V2000
  157.5631  134.0820  190.0506 C   0  0  0  0  0  0  0  0  0  0  0  0
  158.5438  133.1881  189.9665 O   0  0  0  0  0  0  0  0  0  0  0  0
  157.7059  135.1354  189.2105 N   0  0  0  0  0  0  0  0  0  0  0  0
  158.6112  135.1081  188.5880 H   0  0  0  0  0  0  0  0  0  0  0  0
  156.8438  136.2424  188.9694 C   0  0  0  0  0  0  0  0  0  0  0  0
  156.5312  137.2268  189.8616 C   0  0  0  0  0  0  0  0  0  0  0  0
  155.4953  138.2540  188.9238 S   0  0  0  0  0  0  0  0  0  0  0  0
  155.5251  137.3751  187.4743 C   0  0  0  0  0  0  0  0  0  0  0  0
  156.2974  136.3748  187.7646 N   0  0  0  0  0  0  0  0  0  0  0  0
  154.8379  137.6731  186.1829 C   0  0  0  0  0  0  0  0  0  0  0  0
  155.2695  138.7367  185.4273 C   0  0  0  0  0  0  0  0  0  0  0  0
  154.6554  139.0434  184.2239 C   0  0  0  0  0  0  0  0  0  0  0  0
  153.6025  138.2283  183.8396 C   0  0  0  0  0  0  0  0  0  0  0  0
  153.2048  137.1839  184.6168 N   0  0  0  0  0  0  0  0  0  0  0  0
  153.8016  136.8855  185.7864 C   0  0  0  0  0  0  0  0  0  0  0  0
  152.9585  138.5214  182.6130 N   0  0  0  0  0  0  0  0  0  0  0  0
  152.4362  137.5831  181.6448 C   0  0  0  0  0  0  0  0  0  0  0  0
  151.2990  138.3027  180.9402 C   0  0  0  0  0  0  0  0  0  0  0  0
  150.3138  139.0513  181.7737 C   0  0  0  0  0  0  0  0  0  0  0  0
  151.5072  139.7345  181.1937 C   0  0  0  0  0  0  0  0  0  0  0  0
  152.7098  139.8698  182.1115 C   0  0  0  0  0  0  0  0  0  0  0  0
  156.7569  132.2586  191.4922 C   0  0  0  0  0  0  0  0  0  0  0  0
  156.5497  133.7176  191.0478 C   0  0  0  0  0  0  0  0  0  0  0  0
  155.2446  133.6993  190.3762 N   0  0  0  0  0  0  0  0  0  0  0  0
  155.0096  132.8972  189.3217 C   0  0  0  0  0  0  0  0  0  0  0  0
  153.7516  133.0746  188.8966 N   0  0  0  0  0  0  0  0  0  0  0  0
  153.1626  133.9997  189.6805 C   0  0  0  0  0  0  0  0  0  0  0  0
  151.9616  134.5704  189.7413 N   0  0  0  0  0  0  0  0  0  0  0  0
  150.9676  134.1521  188.7541 C   0  0  0  0  0  0  0  0  0  0  0  0
  151.6521  135.4921  190.6594 C   0  0  0  0  0  0  0  0  0  0  0  0
  150.5049  136.0041  190.6789 O   0  0  0  0  0  0  0  0  0  0  0  0
  152.5978  135.8622  191.5661 N   0  0  0  0  0  0  0  0  0  0  0  0
  153.8397  135.3313  191.5723 C   0  0  0  0  0  0  0  0  0  0  0  0
  154.7057  135.6796  192.4128 O   0  0  0  0  0  0  0  0  0  0  0  0
  154.1332  134.3838  190.6162 C   0  0  0  0  0  0  0  0  0  0  0  0
  152.2919  136.8598  192.5771 C   0  0  0  0  0  0  0  0  0  0  0  0
  151.8145  136.1301  193.7568 C   0  0  0  0  0  0  0  0  0  0  0  0
  151.4254  135.5540  194.6894 N   0  0  0  0  0  0  0  0  0  0  0  0
 22 23  1  0  0  0
 23  1  1  0  0  0
  1  2  2  0  0  0
  1  3  1  0  0  0
  3  5  1  0  0  0
  5  6  2  0  0  0
  6  7  1  0  0  0
  7  8  1  0  0  0
  8  9  2  0  0  0
  8 10  1  0  0  0
 10 11  2  0  0  0
 11 12  1  0  0  0
 12 13  2  0  0  0
 13 14  1  0  0  0
 14 15  2  0  0  0
 13 16  1  0  0  0
 16 17  1  0  0  0
 17 18  1  0  0  0
 18 19  1  0  0  0
 19 20  1  0  0  0
 20 21  1  0  0  0
 23 24  1  0  0  0
 24 25  1  0  0  0
 25 26  2  0  0  0
 26 27  1  0  0  0
 27 28  1  0  0  0
 28 29  1  0  0  0
 28 30  1  0  0  0
 30 31  2  0  0  0
 30 32  1  0  0  0
 32 36  1  0  0  0
 36 37  1  0  0  0
 37 38  3  0  0  0
 32 33  1  0  0  0
 33 34  2  0  0  0
 33 35  1  0  0  0
  9  5  1  0  0  0
 15 10  1  0  0  0
 21 16  1  0  0  0
 35 24  1  0  0  0
 20 18  1  0  0  0
 35 27  2  0  0  0
  3  4  1  0  0  0
M  END
> <minimizedAffinity>
-6.13661

> <CNNscore>
0.2005540431

> <CNNaffinity>
5.8092494011

> <CNN_VS>
1.1650685072

> <CNNaffinity_variance>
0.5111566782

$$$$
[H]c1nc(N2C([H])([H])C3([H])C([H])([H])C3([H])C2([H])[H])c([H])c([H])c1-c1nc(N([H])C(=O)[C@@]([H])(n2c([H])nc3c2c(=O)n(C([H])([H])C#N)c(=O)n3C([H])([H])[H])C([H])([H])[H])c([H])s1


 38 43  0  0  0  0  0  0  0  0999 V2000
  154.5544  136.4118  189.1149 C   0  0  0  0  0  0  0  0  0  0  0  0
  155.1102  135.6603  190.0606 O   0  0  0  0  0  0  0  0  0  0  0  0
  154.8242  135.9969  187.8537 N   0  0  0  0  0  0  0  0  0  0  0  0
  155.4680  135.1085  187.7892 H   0  0  0  0  0  0  0  0  0  0  0  0
  154.3631  136.4970  186.6030 C   0  0  0  0  0  0  0  0  0  0  0  0
  153.2980  136.0249  185.8920 C   0  0  0  0  0  0  0  0  0  0  0  0
  153.2707  137.0908  184.5243 S   0  0  0  0  0  0  0  0  0  0  0  0
  154.6009  138.0566  184.9391 C   0  0  0  0  0  0  0  0  0  0  0  0
  154.9889  137.5382  186.0625 N   0  0  0  0  0  0  0  0  0  0  0  0
  155.1841  139.2160  184.2013 C   0  0  0  0  0  0  0  0  0  0  0  0
  156.4245  139.6826  184.5647 C   0  0  0  0  0  0  0  0  0  0  0  0
  156.9966  140.7569  183.9030 C   0  0  0  0  0  0  0  0  0  0  0  0
  156.2555  141.3181  182.8751 C   0  0  0  0  0  0  0  0  0  0  0  0
  155.0296  140.8265  182.5455 N   0  0  0  0  0  0  0  0  0  0  0  0
  154.4734  139.7823  183.1885 C   0  0  0  0  0  0  0  0  0  0  0  0
  156.8191  142.4175  182.1831 N   0  0  0  0  0  0  0  0  0  0  0  0
  156.4785  143.8158  182.3224 C   0  0  0  0  0  0  0  0  0  0  0  0
  157.7358  144.5879  181.9610 C   0  0  0  0  0  0  0  0  0  0  0  0
  159.0333  144.1347  182.5414 C   0  0  0  0  0  0  0  0  0  0  0  0
  158.5798  143.6549  181.2028 C   0  0  0  0  0  0  0  0  0  0  0  0
  157.8746  142.3099  181.1803 C   0  0  0  0  0  0  0  0  0  0  0  0
  154.7270  138.5728  190.2782 C   0  0  0  0  0  0  0  0  0  0  0  0
  153.7770  137.5289  189.6644 C   0  0  0  0  0  0  0  0  0  0  0  0
  153.0173  137.0247  190.8147 N   0  0  0  0  0  0  0  0  0  0  0  0
  153.4408  137.2231  192.0764 C   0  0  0  0  0  0  0  0  0  0  0  0
  152.5746  136.6640  192.9319 N   0  0  0  0  0  0  0  0  0  0  0  0
  151.5790  136.0968  192.2217 C   0  0  0  0  0  0  0  0  0  0  0  0
  150.4718  135.4167  192.5104 N   0  0  0  0  0  0  0  0  0  0  0  0
  150.1784  135.1777  193.9226 C   0  0  0  0  0  0  0  0  0  0  0  0
  149.6447  134.9598  191.5643 C   0  0  0  0  0  0  0  0  0  0  0  0
  148.6102  134.3222  191.8836 O   0  0  0  0  0  0  0  0  0  0  0  0
  149.9433  135.1972  190.2574 N   0  0  0  0  0  0  0  0  0  0  0  0
  151.0467  135.8790  189.8808 C   0  0  0  0  0  0  0  0  0  0  0  0
  151.3140  136.0928  188.6723 O   0  0  0  0  0  0  0  0  0  0  0  0
  151.8824  136.3392  190.8747 C   0  0  0  0  0  0  0  0  0  0  0  0
  149.0637  134.7153  189.2062 C   0  0  0  0  0  0  0  0  0  0  0  0
  148.0968  135.7867  188.9430 C   0  0  0  0  0  0  0  0  0  0  0  0
  147.3247  136.6336  188.7438 N   0  0  0  0  0  0  0  0  0  0  0  0
 22 23  1  0  0  0
 23  1  1  0  0  0
  1  2  2  0  0  0
  1  3  1  0  0  0
  3  5  1  0  0  0
  5  6  2  0  0  0
  6  7  1  0  0  0
  7  8  1  0  0  0
  8  9  2  0  0  0
  8 10  1  0  0  0
 10 11  2  0  0  0
 11 12  1  0  0  0
 12 13  2  0  0  0
 13 14  1  0  0  0
 14 15  2  0  0  0
 13 16  1  0  0  0
 16 17  1  0  0  0
 17 18  1  0  0  0
 18 19  1  0  0  0
 19 20  1  0  0  0
 20 21  1  0  0  0
 23 24  1  0  0  0
 24 25  1  0  0  0
 25 26  2  0  0  0
 26 27  1  0  0  0
 27 28  1  0  0  0
 28 29  1  0  0  0
 28 30  1  0  0  0
 30 31  2  0  0  0
 30 32  1  0  0  0
 32 36  1  0  0  0
 36 37  1  0  0  0
 37 38  3  0  0  0
 32 33  1  0  0  0
 33 34  2  0  0  0
 33 35  1  0  0  0
  9  5  1  0  0  0
 15 10  1  0  0  0
 21 16  1  0  0  0
 35 24  1  0  0  0
 20 18  1  0  0  0
 35 27  2  0  0  0
  3  4  1  0  0  0
M  END
> <minimizedAffinity>
-7.75986

> <CNNscore>
0.1992418319

> <CNNaffinity>
6.2781281471

> <CNN_VS>
1.2508656979

> <CNNaffinity_variance>
0.0567592271

$$$$
[H]c1nc(N2C([H])([H])C3([H])C([H])([H])C3([H])C2([H])[H])c([H])c([H])c1-c1nc(N([H])C(=O)[C@@]([H])(n2c([H])nc3c2c(=O)n(C([H])([H])C#N)c(=O)n3C([H])([H])[H])C([H])([H])[H])c([H])s1


 38 43  0  0  0  0  0  0  0  0999 V2000
  152.3600  137.3125  184.2668 C   0  0  0  0  0  0  0  0  0  0  0  0
  153.0283  137.2664  183.1182 O   0  0  0  0  0  0  0  0  0  0  0  0
  151.0725  136.9015  184.1706 N   0  0  0  0  0  0  0  0  0  0  0  0
  150.7604  136.5983  183.1614 H   0  0  0  0  0  0  0  0  0  0  0  0
  150.0781  136.7503  185.1781 C   0  0  0  0  0  0  0  0  0  0  0  0
  148.7432  136.9948  185.0329 C   0  0  0  0  0  0  0  0  0  0  0  0
  148.1228  136.5740  186.5968 S   0  0  0  0  0  0  0  0  0  0  0  0
  149.5842  136.1204  187.3268 C   0  0  0  0  0  0  0  0  0  0  0  0
  150.4459  136.3047  186.3756 N   0  0  0  0  0  0  0  0  0  0  0  0
  149.8255  135.6293  188.7157 C   0  0  0  0  0  0  0  0  0  0  0  0
  151.0673  135.1414  189.0447 C   0  0  0  0  0  0  0  0  0  0  0  0
  151.3275  134.6767  190.3236 C   0  0  0  0  0  0  0  0  0  0  0  0
  150.2798  134.7337  191.2291 C   0  0  0  0  0  0  0  0  0  0  0  0
  149.0637  135.2243  190.8639 N   0  0  0  0  0  0  0  0  0  0  0  0
  148.8107  135.6761  189.6209 C   0  0  0  0  0  0  0  0  0  0  0  0
  150.5210  134.2646  192.5432 N   0  0  0  0  0  0  0  0  0  0  0  0
  151.3578  133.1558  192.9442 C   0  0  0  0  0  0  0  0  0  0  0  0
  151.8360  133.4826  194.3486 C   0  0  0  0  0  0  0  0  0  0  0  0
  152.3423  134.8596  194.6190 C   0  0  0  0  0  0  0  0  0  0  0  0
  150.9136  134.5035  194.8630 C   0  0  0  0  0  0  0  0  0  0  0  0
  149.9407  134.8486  193.7489 C   0  0  0  0  0  0  0  0  0  0  0  0
  154.3388  138.6610  184.8314 C   0  0  0  0  0  0  0  0  0  0  0  0
  153.1798  137.8087  185.3785 C   0  0  0  0  0  0  0  0  0  0  0  0
  153.8496  136.6558  185.9923 N   0  0  0  0  0  0  0  0  0  0  0  0
  154.3114  135.6346  185.2478 C   0  0  0  0  0  0  0  0  0  0  0  0
  154.8724  134.7168  186.0463 N   0  0  0  0  0  0  0  0  0  0  0  0
  154.7750  135.1437  187.3213 C   0  0  0  0  0  0  0  0  0  0  0  0
  155.1386  134.6741  188.5126 N   0  0  0  0  0  0  0  0  0  0  0  0
  155.8207  133.3814  188.5462 C   0  0  0  0  0  0  0  0  0  0  0  0
  154.9007  135.3395  189.6478 C   0  0  0  0  0  0  0  0  0  0  0  0
  155.2621  134.8574  190.7504 O   0  0  0  0  0  0  0  0  0  0  0  0
  154.2637  136.5411  189.5861 N   0  0  0  0  0  0  0  0  0  0  0  0
  153.8625  137.0869  188.4176 C   0  0  0  0  0  0  0  0  0  0  0  0
  153.2749  138.1960  188.3708 O   0  0  0  0  0  0  0  0  0  0  0  0
  154.1196  136.3815  187.2625 C   0  0  0  0  0  0  0  0  0  0  0  0
  153.9922  137.2891  190.8017 C   0  0  0  0  0  0  0  0  0  0  0  0
  155.2124  138.0412  191.1140 C   0  0  0  0  0  0  0  0  0  0  0  0
  156.1861  138.6293  191.3569 N   0  0  0  0  0  0  0  0  0  0  0  0
 22 23  1  0  0  0
 23  1  1  0  0  0
  1  2  2  0  0  0
  1  3  1  0  0  0
  3  5  1  0  0  0
  5  6  2  0  0  0
  6  7  1  0  0  0
  7  8  1  0  0  0
  8  9  2  0  0  0
  8 10  1  0  0  0
 10 11  2  0  0  0
 11 12  1  0  0  0
 12 13  2  0  0  0
 13 14  1  0  0  0
 14 15  2  0  0  0
 13 16  1  0  0  0
 16 17  1  0  0  0
 17 18  1  0  0  0
 18 19  1  0  0  0
 19 20  1  0  0  0
 20 21  1  0  0  0
 23 24  1  0  0  0
 24 25  1  0  0  0
 25 26  2  0  0  0
 26 27  1  0  0  0
 27 28  1  0  0  0
 28 29  1  0  0  0
 28 30  1  0  0  0
 30 31  2  0  0  0
 30 32  1  0  0  0
 32 36  1  0  0  0
 36 37  1  0  0  0
 37 38  3  0  0  0
 32 33  1  0  0  0
 33 34  2  0  0  0
 33 35  1  0  0  0
  9  5  1  0  0  0
 15 10  1  0  0  0
 21 16  1  0  0  0
 35 24  1  0  0  0
 20 18  1  0  0  0
 35 27  2  0  0  0
  3  4  1  0  0  0
M  END
> <minimizedAffinity>
-5.03489

> <CNNscore>
0.1838033348

> <CNNaffinity>
5.8370556831

> <CNN_VS>
1.0728702545

> <CNNaffinity_variance>
0.3203952909

$$$$
[H]c1nc(N2C([H])([H])C3([H])C([H])([H])C3([H])C2([H])[H])c([H])c([H])c1-c1nc(N([H])C(=O)[C@@]([H])(n2c([H])nc3c2c(=O)n(C([H])([H])C#N)c(=O)n3C([H])([H])[H])C([H])([H])[H])c([H])s1


 38 43  0  0  0  0  0  0  0  0999 V2000
  148.4959  139.0205  181.9650 C   0  0  0  0  0  0  0  0  0  0  0  0
  147.9366  140.0713  181.3726 O   0  0  0  0  0  0  0  0  0  0  0  0
  147.7827  138.5339  183.0092 N   0  0  0  0  0  0  0  0  0  0  0  0
  146.8525  139.0781  183.2246 H   0  0  0  0  0  0  0  0  0  0  0  0
  148.0206  137.3994  183.8358 C   0  0  0  0  0  0  0  0  0  0  0  0
  147.4424  136.1707  183.6999 C   0  0  0  0  0  0  0  0  0  0  0  0
  148.1944  135.2701  184.9771 S   0  0  0  0  0  0  0  0  0  0  0  0
  149.1837  136.5002  185.5954 C   0  0  0  0  0  0  0  0  0  0  0  0
  148.9033  137.5045  184.8246 N   0  0  0  0  0  0  0  0  0  0  0  0
  150.1413  136.4472  186.7394 C   0  0  0  0  0  0  0  0  0  0  0  0
  151.3254  137.1388  186.6511 C   0  0  0  0  0  0  0  0  0  0  0  0
  152.2383  137.1121  187.6929 C   0  0  0  0  0  0  0  0  0  0  0  0
  151.8894  136.3606  188.8039 C   0  0  0  0  0  0  0  0  0  0  0  0
  150.7062  135.6894  188.8526 N   0  0  0  0  0  0  0  0  0  0  0  0
  149.8187  135.7153  187.8403 C   0  0  0  0  0  0  0  0  0  0  0  0
  152.8061  136.3177  189.8823 N   0  0  0  0  0  0  0  0  0  0  0  0
  153.8222  137.2909  190.2154 C   0  0  0  0  0  0  0  0  0  0  0  0
  154.0219  137.1859  191.7177 C   0  0  0  0  0  0  0  0  0  0  0  0
  152.8115  137.1295  192.5880 C   0  0  0  0  0  0  0  0  0  0  0  0
  153.4732  135.8806  192.1086 C   0  0  0  0  0  0  0  0  0  0  0  0
  152.8737  135.2425  190.8676 C   0  0  0  0  0  0  0  0  0  0  0  0
  149.9481  139.3795  180.0117 C   0  0  0  0  0  0  0  0  0  0  0  0
  149.7699  138.6346  181.3468 C   0  0  0  0  0  0  0  0  0  0  0  0
  149.6691  137.2243  180.9525 N   0  0  0  0  0  0  0  0  0  0  0  0
  148.7719  136.8142  180.0375 C   0  0  0  0  0  0  0  0  0  0  0  0
  148.8841  135.4907  179.8630 N   0  0  0  0  0  0  0  0  0  0  0  0
  149.8622  135.0351  180.6711 C   0  0  0  0  0  0  0  0  0  0  0  0
  150.4089  133.8490  180.9285 N   0  0  0  0  0  0  0  0  0  0  0  0
  149.8842  132.6946  180.2007 C   0  0  0  0  0  0  0  0  0  0  0  0
  151.3995  133.6937  181.8131 C   0  0  0  0  0  0  0  0  0  0  0  0
  151.8854  132.5544  182.0240 O   0  0  0  0  0  0  0  0  0  0  0  0
  151.8680  134.7865  182.4761 N   0  0  0  0  0  0  0  0  0  0  0  0
  151.3679  136.0245  182.2725 C   0  0  0  0  0  0  0  0  0  0  0  0
  151.8065  137.0267  182.8895 O   0  0  0  0  0  0  0  0  0  0  0  0
  150.3480  136.1576  181.3560 C   0  0  0  0  0  0  0  0  0  0  0  0
  152.9447  134.6508  183.4422 C   0  0  0  0  0  0  0  0  0  0  0  0
  152.3466  134.1016  184.6640 C   0  0  0  0  0  0  0  0  0  0  0  0
  151.8825  133.6627  185.6361 N   0  0  0  0  0  0  0  0  0  0  0  0
 22 23  1  0  0  0
 23  1  1  0  0  0
  1  2  2  0  0  0
  1  3  1  0  0  0
  3  5  1  0  0  0
  5  6  2  0  0  0
  6  7  1  0  0  0
  7  8  1  0  0  0
  8  9  2  0  0  0
  8 10  1  0  0  0
 10 11  2  0  0  0
 11 12  1  0  0  0
 12 13  2  0  0  0
 13 14  1  0  0  0
 14 15  2  0  0  0
 13 16  1  0  0  0
 16 17  1  0  0  0
 17 18  1  0  0  0
 18 19  1  0  0  0
 19 20  1  0  0  0
 20 21  1  0  0  0
 23 24  1  0  0  0
 24 25  1  0  0  0
 25 26  2  0  0  0
 26 27  1  0  0  0
 27 28  1  0  0  0
 28 29  1  0  0  0
 28 30  1  0  0  0
 30 31  2  0  0  0
 30 32  1  0  0  0
 32 36  1  0  0  0
 36 37  1  0  0  0
 37 38  3  0  0  0
 32 33  1  0  0  0
 33 34  2  0  0  0
 33 35  1  0  0  0
  9  5  1  0  0  0
 15 10  1  0  0  0
 21 16  1  0  0  0
 35 24  1  0  0  0
 20 18  1  0  0  0
 35 27  2  0  0  0
  3  4  1  0  0  0
M  END
> <minimizedAffinity>
-4.77860

> <CNNscore>
0.1823858917

> <CNNaffinity>
5.8453383446

> <CNN_VS>
1.0661072731

> <CNNaffinity_variance>
0.0409270599

$$$$
[H]c1nc(N2C([H])([H])C3([H])C([H])([H])C3([H])C2([H])[H])c([H])c([H])c1-c1nc(N([H])C(=O)[C@@]([H])(n2c([H])nc3c2c(=O)n(C([H])([H])C#N)c(=O)n3C([H])([H])[H])C([H])([H])[H])c([H])s1


 38 43  0  0  0  0  0  0  0  0999 V2000
  157.5020  135.1605  188.7417 C   0  0  0  0  0  0  0  0  0  0  0  0
  158.6206  134.5352  188.3869 O   0  0  0  0  0  0  0  0  0  0  0  0
  157.0048  135.9824  187.7861 N   0  0  0  0  0  0  0  0  0  0  0  0
  157.5969  136.0238  186.8612 H   0  0  0  0  0  0  0  0  0  0  0  0
  155.8110  136.7579  187.7709 C   0  0  0  0  0  0  0  0  0  0  0  0
  155.3624  137.5625  188.7779 C   0  0  0  0  0  0  0  0  0  0  0  0
  153.9125  138.2264  188.0965 S   0  0  0  0  0  0  0  0  0  0  0  0
  153.9686  137.4462  186.5923 C   0  0  0  0  0  0  0  0  0  0  0  0
  155.0534  136.7412  186.6784 N   0  0  0  0  0  0  0  0  0  0  0  0
  153.0128  137.5432  185.4497 C   0  0  0  0  0  0  0  0  0  0  0  0
  153.4355  138.1121  184.2724 C   0  0  0  0  0  0  0  0  0  0  0  0
  152.5760  138.2195  183.1913 C   0  0  0  0  0  0  0  0  0  0  0  0
  151.2923  137.7281  183.3685 C   0  0  0  0  0  0  0  0  0  0  0  0
  150.9120  137.1714  184.5510 N   0  0  0  0  0  0  0  0  0  0  0  0
  151.7473  137.0668  185.6020 C   0  0  0  0  0  0  0  0  0  0  0  0
  150.3949  137.8261  182.2776 N   0  0  0  0  0  0  0  0  0  0  0  0
  149.1929  138.6253  182.1933 C   0  0  0  0  0  0  0  0  0  0  0  0
  149.0052  138.9398  180.7190 C   0  0  0  0  0  0  0  0  0  0  0  0
  150.1916  139.3972  179.9387 C   0  0  0  0  0  0  0  0  0  0  0  0
  149.8135  137.9543  179.9889 C   0  0  0  0  0  0  0  0  0  0  0  0
  150.5464  137.1082  181.0154 C   0  0  0  0  0  0  0  0  0  0  0  0
  158.0490  133.8040  190.7200 C   0  0  0  0  0  0  0  0  0  0  0  0
  157.0679  134.8153  190.1006 C   0  0  0  0  0  0  0  0  0  0  0  0
  155.8103  134.0657  189.9937 N   0  0  0  0  0  0  0  0  0  0  0  0
  155.6252  133.1394  189.0355 C   0  0  0  0  0  0  0  0  0  0  0  0
  154.4008  132.6093  189.1565 N   0  0  0  0  0  0  0  0  0  0  0  0
  153.7835  133.1954  190.2019 C   0  0  0  0  0  0  0  0  0  0  0  0
  152.5928  133.0868  190.7870 N   0  0  0  0  0  0  0  0  0  0  0  0
  151.6547  132.1149  190.2275 C   0  0  0  0  0  0  0  0  0  0  0  0
  152.2448  133.8259  191.8456 C   0  0  0  0  0  0  0  0  0  0  0  0
  151.1093  133.6894  192.3658 O   0  0  0  0  0  0  0  0  0  0  0  0
  153.1387  134.7229  192.3453 N   0  0  0  0  0  0  0  0  0  0  0  0
  154.3668  134.8939  191.8097 C   0  0  0  0  0  0  0  0  0  0  0  0
  155.1846  135.7245  192.2776 O   0  0  0  0  0  0  0  0  0  0  0  0
  154.7008  134.1202  190.7199 C   0  0  0  0  0  0  0  0  0  0  0  0
  152.7912  135.5396  193.4956 C   0  0  0  0  0  0  0  0  0  0  0  0
  151.9497  136.6327  192.9964 C   0  0  0  0  0  0  0  0  0  0  0  0
  151.2768  137.4993  192.6103 N   0  0  0  0  0  0  0  0  0  0  0  0
 22 23  1  0  0  0
 23  1  1  0  0  0
  1  2  2  0  0  0
  1  3  1  0  0  0
  3  5  1  0  0  0
  5  6  2  0  0  0
  6  7  1  0  0  0
  7  8  1  0  0  0
  8  9  2  0  0  0
  8 10  1  0  0  0
 10 11  2  0  0  0
 11 12  1  0  0  0
 12 13  2  0  0  0
 13 14  1  0  0  0
 14 15  2  0  0  0
 13 16  1  0  0  0
 16 17  1  0  0  0
 17 18  1  0  0  0
 18 19  1  0  0  0
 19 20  1  0  0  0
 20 21  1  0  0  0
 23 24  1  0  0  0
 24 25  1  0  0  0
 25 26  2  0  0  0
 26 27  1  0  0  0
 27 28  1  0  0  0
 28 29  1  0  0  0
 28 30  1  0  0  0
 30 31  2  0  0  0
 30 32  1  0  0  0
 32 36  1  0  0  0
 36 37  1  0  0  0
 37 38  3  0  0  0
 32 33  1  0  0  0
 33 34  2  0  0  0
 33 35  1  0  0  0
  9  5  1  0  0  0
 15 10  1  0  0  0
 21 16  1  0  0  0
 35 24  1  0  0  0
 20 18  1  0  0  0
 35 27  2  0  0  0
  3  4  1  0  0  0
M  END
> <minimizedAffinity>
-5.61796

> <CNNscore>
0.1688937545

> <CNNaffinity>
5.7587342262

> <CNN_VS>
0.9726142287

> <CNNaffinity_variance>
0.2084157765

$$$$
[H]c1nc(N2C([H])([H])C3([H])C([H])([H])C3([H])C2([H])[H])c([H])c([H])c1-c1nc(N([H])C(=O)[C@@]([H])(n2c([H])nc3c2c(=O)n(C([H])([H])C#N)c(=O)n3C([H])([H])[H])C([H])([H])[H])c([H])s1


 38 43  0  0  0  0  0  0  0  0999 V2000
  151.0681  139.5166  179.9262 C   0  0  0  0  0  0  0  0  0  0  0  0
  150.5584  140.0896  178.8400 O   0  0  0  0  0  0  0  0  0  0  0  0
  152.1231  140.1822  180.4552 N   0  0  0  0  0  0  0  0  0  0  0  0
  152.4135  141.0915  179.9106 H   0  0  0  0  0  0  0  0  0  0  0  0
  152.8791  139.9193  181.6326 C   0  0  0  0  0  0  0  0  0  0  0  0
  152.5178  139.0845  182.6500 C   0  0  0  0  0  0  0  0  0  0  0  0
  153.8819  139.1954  183.7152 S   0  0  0  0  0  0  0  0  0  0  0  0
  154.8129  140.2847  182.8091 C   0  0  0  0  0  0  0  0  0  0  0  0
  154.0650  140.5039  181.7729 N   0  0  0  0  0  0  0  0  0  0  0  0
  156.1583  140.8521  183.1196 C   0  0  0  0  0  0  0  0  0  0  0  0
  156.7109  140.6208  184.3564 C   0  0  0  0  0  0  0  0  0  0  0  0
  157.9572  141.1322  184.6799 C   0  0  0  0  0  0  0  0  0  0  0  0
  158.5963  141.8748  183.6996 C   0  0  0  0  0  0  0  0  0  0  0  0
  158.0149  142.0814  182.4862 N   0  0  0  0  0  0  0  0  0  0  0  0
  156.8037  141.5844  182.1715 C   0  0  0  0  0  0  0  0  0  0  0  0
  159.8717  142.4081  184.0062 N   0  0  0  0  0  0  0  0  0  0  0  0
  160.2020  143.7807  184.3179 C   0  0  0  0  0  0  0  0  0  0  0  0
  161.4299  143.7205  185.2103 C   0  0  0  0  0  0  0  0  0  0  0  0
  161.4382  142.7388  186.3336 C   0  0  0  0  0  0  0  0  0  0  0  0
  162.0163  142.3898  185.0026 C   0  0  0  0  0  0  0  0  0  0  0  0
  161.1037  141.6264  184.0586 C   0  0  0  0  0  0  0  0  0  0  0  0
  149.4396  137.8446  179.1481 C   0  0  0  0  0  0  0  0  0  0  0  0
  150.3657  138.2824  180.2970 C   0  0  0  0  0  0  0  0  0  0  0  0
  149.4417  138.6027  181.3916 N   0  0  0  0  0  0  0  0  0  0  0  0
  148.6533  139.6922  181.3478 C   0  0  0  0  0  0  0  0  0  0  0  0
  147.9142  139.7545  182.4634 N   0  0  0  0  0  0  0  0  0  0  0  0
  148.2240  138.6971  183.2402 C   0  0  0  0  0  0  0  0  0  0  0  0
  147.8309  138.2404  184.4271 N   0  0  0  0  0  0  0  0  0  0  0  0
  146.8121  139.0097  185.1398 C   0  0  0  0  0  0  0  0  0  0  0  0
  148.3327  137.1250  184.9674 C   0  0  0  0  0  0  0  0  0  0  0  0
  147.9315  136.7314  186.0911 O   0  0  0  0  0  0  0  0  0  0  0  0
  149.2803  136.4290  184.2810 N   0  0  0  0  0  0  0  0  0  0  0  0
  149.7328  136.8249  183.0715 C   0  0  0  0  0  0  0  0  0  0  0  0
  150.6078  136.1762  182.4460 O   0  0  0  0  0  0  0  0  0  0  0  0
  149.1997  137.9772  182.5368 C   0  0  0  0  0  0  0  0  0  0  0  0
  149.8438  135.2124  184.8405 C   0  0  0  0  0  0  0  0  0  0  0  0
  151.0663  135.6033  185.5510 C   0  0  0  0  0  0  0  0  0  0  0  0
  152.0335  135.9240  186.1119 N   0  0  0  0  0  0  0  0  0  0  0  0
 22 23  1  0  0  0
 23  1  1  0  0  0
  1  2  2  0  0  0
  1  3  1  0  0  0
  3  5  1  0  0  0
  5  6  2  0  0  0
  6  7  1  0  0  0
  7  8  1  0  0  0
  8  9  2  0  0  0
  8 10  1  0  0  0
 10 11  2  0  0  0
 11 12  1  0  0  0
 12 13  2  0  0  0
 13 14  1  0  0  0
 14 15  2  0  0  0
 13 16  1  0  0  0
 16 17  1  0  0  0
 17 18  1  0  0  0
 18 19  1  0  0  0
 19 20  1  0  0  0
 20 21  1  0  0  0
 23 24  1  0  0  0
 24 25  1  0  0  0
 25 26  2  0  0  0
 26 27  1  0  0  0
 27 28  1  0  0  0
 28 29  1  0  0  0
 28 30  1  0  0  0
 30 31  2  0  0  0
 30 32  1  0  0  0
 32 36  1  0  0  0
 36 37  1  0  0  0
 37 38  3  0  0  0
 32 33  1  0  0  0
 33 34  2  0  0  0
 33 35  1  0  0  0
  9  5  1  0  0  0
 15 10  1  0  0  0
 21 16  1  0  0  0
 35 24  1  0  0  0
 20 18  1  0  0  0
 35 27  2  0  0  0
  3  4  1  0  0  0
M  END
> <minimizedAffinity>
-8.26095

> <CNNscore>
0.1619060636

> <CNNaffinity>
6.5420150757

> <CNN_VS>
1.0591919422

> <CNNaffinity_variance>
0.0946087018

$$$$
[H]C1=Nc2c([H])c([H])c([H])c([H])c2C([H])([H])c2c(C(=O)N(C([H])([H])C([H])([H])[H])C([H])([H])C([H])([H])[H])c([H])c([H])c([H])c21


 22 24  0  0  0  0  0  0  0  0999 V2000
  155.2888  137.6091  188.5885 C   0  0  0  0  0  0  0  0  0  0  0  0
  154.8083  138.6596  189.3704 C   0  0  0  0  0  0  0  0  0  0  0  0
  154.8363  138.5387  190.7504 C   0  0  0  0  0  0  0  0  0  0  0  0
  155.3279  137.4061  191.3370 C   0  0  0  0  0  0  0  0  0  0  0  0
  155.7989  136.3763  190.5330 C   0  0  0  0  0  0  0  0  0  0  0  0
  156.2655  135.2947  191.3908 C   0  0  0  0  0  0  0  0  0  0  0  0
  157.1218  134.3592  191.0628 N   0  0  0  0  0  0  0  0  0  0  0  0
  157.7825  134.1998  189.7899 C   0  0  0  0  0  0  0  0  0  0  0  0
  158.9534  133.4532  189.9518 C   0  0  0  0  0  0  0  0  0  0  0  0
  159.7457  133.1787  188.8598 C   0  0  0  0  0  0  0  0  0  0  0  0
  159.3288  133.6673  187.6401 C   0  0  0  0  0  0  0  0  0  0  0  0
  158.1769  134.4041  187.4687 C   0  0  0  0  0  0  0  0  0  0  0  0
  157.3780  134.6819  188.5651 C   0  0  0  0  0  0  0  0  0  0  0  0
  156.1984  135.4724  188.1844 C   0  0  0  0  0  0  0  0  0  0  0  0
  155.7790  136.4762  189.1733 C   0  0  0  0  0  0  0  0  0  0  0  0
  154.2701  137.3920  186.2632 N   0  0  0  0  0  0  0  0  0  0  0  0
  155.2892  137.7704  187.1643 C   0  0  0  0  0  0  0  0  0  0  0  0
  156.3326  138.3157  186.6514 O   0  0  0  0  0  0  0  0  0  0  0  0
  151.9281  137.6543  187.0335 C   0  0  0  0  0  0  0  0  0  0  0  0
  153.0736  136.7571  186.7297 C   0  0  0  0  0  0  0  0  0  0  0  0
  154.4102  137.6372  184.8447 C   0  0  0  0  0  0  0  0  0  0  0  0
  153.9864  139.0110  184.4351 C   0  0  0  0  0  0  0  0  0  0  0  0
 19 20  1  0  0  0
 20 16  1  0  0  0
 16 21  1  0  0  0
 21 22  1  0  0  0
 16 17  1  0  0  0
 17 18  2  0  0  0
 17  1  1  0  0  0
  1  2  2  0  0  0
  2  3  1  0  0  0
  3  4  2  0  0  0
  4  5  1  0  0  0
  5  6  1  0  0  0
  6  7  2  0  0  0
  7  8  1  0  0  0
  8  9  2  0  0  0
  9 10  1  0  0  0
 10 11  2  0  0  0
 11 12  1  0  0  0
 12 13  2  0  0  0
 13 14  1  0  0  0
 14 15  1  0  0  0
 15  1  1  0  0  0
 15  5  2  0  0  0
 13  8  1  0  0  0
M  END
> <minimizedAffinity>
-6.28290

> <CNNscore>
0.6820068955

> <CNNaffinity>
5.0405511856

> <CNN_VS>
3.4376907349

> <CNNaffinity_variance>
0.1498823315

$$$$
[H]C1=Nc2c([H])c([H])c([H])c([H])c2C([H])([H])c2c(C(=O)N(C([H])([H])C([H])([H])[H])C([H])([H])C([H])([H])[H])c([H])c([H])c([H])c21


 22 24  0  0  0  0  0  0  0  0999 V2000
  156.0630  140.9150  184.0033 C   0  0  0  0  0  0  0  0  0  0  0  0
  157.1032  140.4458  184.8056 C   0  0  0  0  0  0  0  0  0  0  0  0
  156.9321  139.2618  185.5047 C   0  0  0  0  0  0  0  0  0  0  0  0
  155.7607  138.5637  185.4092 C   0  0  0  0  0  0  0  0  0  0  0  0
  154.7424  139.0556  184.6030 C   0  0  0  0  0  0  0  0  0  0  0  0
  153.6134  138.1368  184.6698 C   0  0  0  0  0  0  0  0  0  0  0  0
  152.6571  138.0176  183.7825 N   0  0  0  0  0  0  0  0  0  0  0  0
  152.5172  138.7656  182.5565 C   0  0  0  0  0  0  0  0  0  0  0  0
  151.7197  138.0555  181.6543 C   0  0  0  0  0  0  0  0  0  0  0  0
  151.4532  138.5867  180.4122 C   0  0  0  0  0  0  0  0  0  0  0  0
  152.0012  139.8181  180.1230 C   0  0  0  0  0  0  0  0  0  0  0  0
  152.7885  140.5270  181.0043 C   0  0  0  0  0  0  0  0  0  0  0  0
  153.0583  139.9953  182.2541 C   0  0  0  0  0  0  0  0  0  0  0  0
  153.9079  140.8941  183.0488 C   0  0  0  0  0  0  0  0  0  0  0  0
  154.8916  140.2191  183.9080 C   0  0  0  0  0  0  0  0  0  0  0  0
  157.1155  142.2905  182.1345 N   0  0  0  0  0  0  0  0  0  0  0  0
  156.2750  142.1198  183.2562 C   0  0  0  0  0  0  0  0  0  0  0  0
  155.6326  143.1585  183.6528 O   0  0  0  0  0  0  0  0  0  0  0  0
  158.3055  141.2973  180.1995 C   0  0  0  0  0  0  0  0  0  0  0  0
  157.8921  141.2003  181.6239 C   0  0  0  0  0  0  0  0  0  0  0  0
  157.2124  143.5730  181.4727 C   0  0  0  0  0  0  0  0  0  0  0  0
  158.3345  144.4198  181.9810 C   0  0  0  0  0  0  0  0  0  0  0  0
 19 20  1  0  0  0
 20 16  1  0  0  0
 16 21  1  0  0  0
 21 22  1  0  0  0
 16 17  1  0  0  0
 17 18  2  0  0  0
 17  1  1  0  0  0
  1  2  2  0  0  0
  2  3  1  0  0  0
  3  4  2  0  0  0
  4  5  1  0  0  0
  5  6  1  0  0  0
  6  7  2  0  0  0
  7  8  1  0  0  0
  8  9  2  0  0  0
  9 10  1  0  0  0
 10 11  2  0  0  0
 11 12  1  0  0  0
 12 13  2  0  0  0
 13 14  1  0  0  0
 14 15  1  0  0  0
 15  1  1  0  0  0
 15  5  2  0  0  0
 13  8  1  0  0  0
M  END
> <minimizedAffinity>
-7.70100

> <CNNscore>
0.5291289687

> <CNNaffinity>
5.7462396622

> <CNN_VS>
3.0405018330

> <CNNaffinity_variance>
0.0629391372

$$$$
[H]C1=Nc2c([H])c([H])c([H])c([H])c2C([H])([H])c2c(C(=O)N(C([H])([H])C([H])([H])[H])C([H])([H])C([H])([H])[H])c([H])c([H])c([H])c21


 22 24  0  0  0  0  0  0  0  0999 V2000
  154.8217  136.3049  190.9444 C   0  0  0  0  0  0  0  0  0  0  0  0
  155.8456  137.0757  191.4952 C   0  0  0  0  0  0  0  0  0  0  0  0
  156.4702  138.0277  190.7056 C   0  0  0  0  0  0  0  0  0  0  0  0
  156.0884  138.2087  189.4056 C   0  0  0  0  0  0  0  0  0  0  0  0
  155.0663  137.4261  188.8843 C   0  0  0  0  0  0  0  0  0  0  0  0
  154.8497  137.8112  187.4957 C   0  0  0  0  0  0  0  0  0  0  0  0
  153.7573  137.6187  186.7989 N   0  0  0  0  0  0  0  0  0  0  0  0
  152.5417  136.9881  187.2538 C   0  0  0  0  0  0  0  0  0  0  0  0
  151.4666  137.3998  186.4608 C   0  0  0  0  0  0  0  0  0  0  0  0
  150.2027  136.9183  186.7189 C   0  0  0  0  0  0  0  0  0  0  0  0
  150.0670  136.0365  187.7698 C   0  0  0  0  0  0  0  0  0  0  0  0
  151.1193  135.6238  188.5580 C   0  0  0  0  0  0  0  0  0  0  0  0
  152.3915  136.1063  188.3009 C   0  0  0  0  0  0  0  0  0  0  0  0
  153.3768  135.5524  189.2408 C   0  0  0  0  0  0  0  0  0  0  0  0
  154.4401  136.4838  189.6452 C   0  0  0  0  0  0  0  0  0  0  0  0
  153.0222  135.5767  192.5947 N   0  0  0  0  0  0  0  0  0  0  0  0
  154.1605  135.3544  191.7893 C   0  0  0  0  0  0  0  0  0  0  0  0
  154.6605  134.1720  191.8198 O   0  0  0  0  0  0  0  0  0  0  0  0
  150.9737  136.9257  192.2328 C   0  0  0  0  0  0  0  0  0  0  0  0
  152.3994  136.8657  192.6491 C   0  0  0  0  0  0  0  0  0  0  0  0
  152.4565  134.5059  193.3855 C   0  0  0  0  0  0  0  0  0  0  0  0
  152.5185  134.7586  194.8575 C   0  0  0  0  0  0  0  0  0  0  0  0
 19 20  1  0  0  0
 20 16  1  0  0  0
 16 21  1  0  0  0
 21 22  1  0  0  0
 16 17  1  0  0  0
 17 18  2  0  0  0
 17  1  1  0  0  0
  1  2  2  0  0  0
  2  3  1  0  0  0
  3  4  2  0  0  0
  4  5  1  0  0  0
  5  6  1  0  0  0
  6  7  2  0  0  0
  7  8  1  0  0  0
  8  9  2  0  0  0
  9 10  1  0  0  0
 10 11  2  0  0  0
 11 12  1  0  0  0
 12 13  2  0  0  0
 13 14  1  0  0  0
 14 15  1  0  0  0
 15  1  1  0  0  0
 15  5  2  0  0  0
 13  8  1  0  0  0
M  END
> <minimizedAffinity>
-5.66310

> <CNNscore>
0.4909704626

> <CNNaffinity>
4.9107804298

> <CNN_VS>
2.4110481739

> <CNNaffinity_variance>
0.0601535663

$$$$
[H]C1=Nc2c([H])c([H])c([H])c([H])c2C([H])([H])c2c(C(=O)N(C([H])([H])C([H])([H])[H])C([H])([H])C([H])([H])[H])c([H])c([H])c([H])c21


 22 24  0  0  0  0  0  0  0  0999 V2000
  157.0561  134.5476  189.8648 C   0  0  0  0  0  0  0  0  0  0  0  0
  157.3146  134.1457  191.1753 C   0  0  0  0  0  0  0  0  0  0  0  0
  157.0792  135.0358  192.2108 C   0  0  0  0  0  0  0  0  0  0  0  0
  156.6004  136.2896  191.9515 C   0  0  0  0  0  0  0  0  0  0  0  0
  156.3529  136.6620  190.6366 C   0  0  0  0  0  0  0  0  0  0  0  0
  155.8513  138.0302  190.6288 C   0  0  0  0  0  0  0  0  0  0  0  0
  155.1415  138.5904  189.6811 N   0  0  0  0  0  0  0  0  0  0  0  0
  154.7066  137.9772  188.4494 C   0  0  0  0  0  0  0  0  0  0  0  0
  153.5936  138.6573  187.9465 C   0  0  0  0  0  0  0  0  0  0  0  0
  153.0105  138.2394  186.7712 C   0  0  0  0  0  0  0  0  0  0  0  0
  153.5715  137.1482  186.1429 C   0  0  0  0  0  0  0  0  0  0  0  0
  154.6682  136.4702  186.6293 C   0  0  0  0  0  0  0  0  0  0  0  0
  155.2567  136.8881  187.8110 C   0  0  0  0  0  0  0  0  0  0  0  0
  156.4092  136.0467  188.1647 C   0  0  0  0  0  0  0  0  0  0  0  0
  156.5789  135.8006  189.6042 C   0  0  0  0  0  0  0  0  0  0  0  0
  158.4954  133.2578  188.2044 N   0  0  0  0  0  0  0  0  0  0  0  0
  157.2670  133.5984  188.8116 C   0  0  0  0  0  0  0  0  0  0  0  0
  156.2236  132.9943  188.3695 O   0  0  0  0  0  0  0  0  0  0  0  0
  160.1591  135.0496  187.7939 C   0  0  0  0  0  0  0  0  0  0  0  0
  159.7164  133.8884  188.6093 C   0  0  0  0  0  0  0  0  0  0  0  0
  158.5504  132.2618  187.1571 C   0  0  0  0  0  0  0  0  0  0  0  0
  159.9173  131.6932  186.9499 C   0  0  0  0  0  0  0  0  0  0  0  0
 19 20  1  0  0  0
 20 16  1  0  0  0
 16 21  1  0  0  0
 21 22  1  0  0  0
 16 17  1  0  0  0
 17 18  2  0  0  0
 17  1  1  0  0  0
  1  2  2  0  0  0
  2  3  1  0  0  0
  3  4  2  0  0  0
  4  5  1  0  0  0
  5  6  1  0  0  0
  6  7  2  0  0  0
  7  8  1  0  0  0
  8  9  2  0  0  0
  9 10  1  0  0  0
 10 11  2  0  0  0
 11 12  1  0  0  0
 12 13  2  0  0  0
 13 14  1  0  0  0
 14 15  1  0  0  0
 15  1  1  0  0  0
 15  5  2  0  0  0
 13  8  1  0  0  0
M  END
> <minimizedAffinity>
-5.92520

> <CNNscore>
0.4902383983

> <CNNaffinity>
4.8755884171

> <CNN_VS>
2.3902006149

> <CNNaffinity_variance>
0.0972804427

$$$$
[H]C1=Nc2c([H])c([H])c([H])c([H])c2C([H])([H])c2c(C(=O)N(C([H])([H])C([H])([H])[H])C([H])([H])C([H])([H])[H])c([H])c([H])c([H])c21


 22 24  0  0  0  0  0  0  0  0999 V2000
  157.7632  141.4969  181.7525 C   0  0  0  0  0  0  0  0  0  0  0  0
  157.7156  141.4967  180.3584 C   0  0  0  0  0  0  0  0  0  0  0  0
  158.2765  142.5578  179.6660 C   0  0  0  0  0  0  0  0  0  0  0  0
  158.8680  143.5897  180.3396 C   0  0  0  0  0  0  0  0  0  0  0  0
  158.8998  143.5629  181.7278 C   0  0  0  0  0  0  0  0  0  0  0  0
  159.5797  144.7625  182.1992 C   0  0  0  0  0  0  0  0  0  0  0  0
  160.1596  144.9184  183.3633 N   0  0  0  0  0  0  0  0  0  0  0  0
  160.2492  143.9421  184.4221 C   0  0  0  0  0  0  0  0  0  0  0  0
  161.3255  144.2470  185.2606 C   0  0  0  0  0  0  0  0  0  0  0  0
  161.5978  143.4418  186.3438 C   0  0  0  0  0  0  0  0  0  0  0  0
  160.7734  142.3553  186.5442 C   0  0  0  0  0  0  0  0  0  0  0  0
  159.7099  142.0451  185.7245 C   0  0  0  0  0  0  0  0  0  0  0  0
  159.4336  142.8530  184.6343 C   0  0  0  0  0  0  0  0  0  0  0  0
  158.2665  142.3649  183.8855 C   0  0  0  0  0  0  0  0  0  0  0  0
  158.3528  142.5281  182.4269 C   0  0  0  0  0  0  0  0  0  0  0  0
  155.9118  140.2496  182.9809 N   0  0  0  0  0  0  0  0  0  0  0  0
  157.2142  140.3707  182.4488 C   0  0  0  0  0  0  0  0  0  0  0  0
  157.9935  139.3628  182.6093 O   0  0  0  0  0  0  0  0  0  0  0  0
  153.7326  141.0403  182.1018 C   0  0  0  0  0  0  0  0  0  0  0  0
  154.9704  141.3241  182.8743 C   0  0  0  0  0  0  0  0  0  0  0  0
  155.4965  139.0350  183.6474 C   0  0  0  0  0  0  0  0  0  0  0  0
  155.5950  139.1120  185.1370 C   0  0  0  0  0  0  0  0  0  0  0  0
 19 20  1  0  0  0
 20 16  1  0  0  0
 16 21  1  0  0  0
 21 22  1  0  0  0
 16 17  1  0  0  0
 17 18  2  0  0  0
 17  1  1  0  0  0
  1  2  2  0  0  0
  2  3  1  0  0  0
  3  4  2  0  0  0
  4  5  1  0  0  0
  5  6  1  0  0  0
  6  7  2  0  0  0
  7  8  1  0  0  0
  8  9  2  0  0  0
  9 10  1  0  0  0
 10 11  2  0  0  0
 11 12  1  0  0  0
 12 13  2  0  0  0
 13 14  1  0  0  0
 14 15  1  0  0  0
 15  1  1  0  0  0
 15  5  2  0  0  0
 13  8  1  0  0  0
M  END
> <minimizedAffinity>
-8.35932

> <CNNscore>
0.4475560188

> <CNNaffinity>
6.3126692772

> <CNN_VS>
2.8252730370

> <CNNaffinity_variance>
0.0233513173

$$$$
[H]C1=Nc2c([H])c([H])c([H])c([H])c2C([H])([H])c2c(C(=O)N(C([H])([H])C([H])([H])[H])C([H])([H])C([H])([H])[H])c([H])c([H])c([H])c21


 22 24  0  0  0  0  0  0  0  0999 V2000
  155.9834  136.2598  190.0330 C   0  0  0  0  0  0  0  0  0  0  0  0
  156.5471  137.5351  190.0769 C   0  0  0  0  0  0  0  0  0  0  0  0
  155.9231  138.5211  190.8241 C   0  0  0  0  0  0  0  0  0  0  0  0
  154.7717  138.2478  191.5084 C   0  0  0  0  0  0  0  0  0  0  0  0
  154.2334  136.9691  191.4456 C   0  0  0  0  0  0  0  0  0  0  0  0
  153.0212  136.9362  192.2537 C   0  0  0  0  0  0  0  0  0  0  0  0
  152.4638  135.8703  192.7725 N   0  0  0  0  0  0  0  0  0  0  0  0
  152.9273  134.5088  192.6560 C   0  0  0  0  0  0  0  0  0  0  0  0
  152.4176  133.7410  193.7072 C   0  0  0  0  0  0  0  0  0  0  0  0
  152.7343  132.4038  193.7935 C   0  0  0  0  0  0  0  0  0  0  0  0
  153.5553  131.8865  192.8145 C   0  0  0  0  0  0  0  0  0  0  0  0
  154.0635  132.6335  191.7739 C   0  0  0  0  0  0  0  0  0  0  0  0
  153.7468  133.9786  191.6846 C   0  0  0  0  0  0  0  0  0  0  0  0
  154.3771  134.6026  190.5121 C   0  0  0  0  0  0  0  0  0  0  0  0
  154.8323  135.9858  190.7152 C   0  0  0  0  0  0  0  0  0  0  0  0
  157.5167  134.2383  189.7990 N   0  0  0  0  0  0  0  0  0  0  0  0
  156.6662  135.2431  189.2882 C   0  0  0  0  0  0  0  0  0  0  0  0
  156.4875  135.2492  188.0166 O   0  0  0  0  0  0  0  0  0  0  0  0
  157.8602  132.7883  191.7804 C   0  0  0  0  0  0  0  0  0  0  0  0
  157.7991  134.1557  191.2010 C   0  0  0  0  0  0  0  0  0  0  0  0
  158.1242  133.2664  188.9168 C   0  0  0  0  0  0  0  0  0  0  0  0
  159.5112  133.6320  188.4959 C   0  0  0  0  0  0  0  0  0  0  0  0
 19 20  1  0  0  0
 20 16  1  0  0  0
 16 21  1  0  0  0
 21 22  1  0  0  0
 16 17  1  0  0  0
 17 18  2  0  0  0
 17  1  1  0  0  0
  1  2  2  0  0  0
  2  3  1  0  0  0
  3  4  2  0  0  0
  4  5  1  0  0  0
  5  6  1  0  0  0
  6  7  2  0  0  0
  7  8  1  0  0  0
  8  9  2  0  0  0
  9 10  1  0  0  0
 10 11  2  0  0  0
 11 12  1  0  0  0
 12 13  2  0  0  0
 13 14  1  0  0  0
 14 15  1  0  0  0
 15  1  1  0  0  0
 15  5  2  0  0  0
 13  8  1  0  0  0
M  END
> <minimizedAffinity>
-5.51751

> <CNNscore>
0.4160966277

> <CNNaffinity>
4.7200365067

> <CNN_VS>
1.9639912844

> <CNNaffinity_variance>
0.1899992079

$$$$
[H]C1=Nc2c([H])c([H])c([H])c([H])c2C([H])([H])c2c(C(=O)N(C([H])([H])C([H])([H])[H])C([H])([H])C([H])([H])[H])c([H])c([H])c([H])c21


 22 24  0  0  0  0  0  0  0  0999 V2000
  156.0228  136.2870  190.6793 C   0  0  0  0  0  0  0  0  0  0  0  0
  156.4793  137.6050  190.6977 C   0  0  0  0  0  0  0  0  0  0  0  0
  155.6179  138.6096  191.1084 C   0  0  0  0  0  0  0  0  0  0  0  0
  154.3392  138.3132  191.4899 C   0  0  0  0  0  0  0  0  0  0  0  0
  153.9124  136.9919  191.4606 C   0  0  0  0  0  0  0  0  0  0  0  0
  152.5275  136.9420  191.9111 C   0  0  0  0  0  0  0  0  0  0  0  0
  151.9089  135.8970  192.4022 N   0  0  0  0  0  0  0  0  0  0  0  0
  152.4625  134.5794  192.6014 C   0  0  0  0  0  0  0  0  0  0  0  0
  151.7252  133.8953  193.5724 C   0  0  0  0  0  0  0  0  0  0  0  0
  152.0803  132.6118  193.9222 C   0  0  0  0  0  0  0  0  0  0  0  0
  153.1686  132.0618  193.2793 C   0  0  0  0  0  0  0  0  0  0  0  0
  153.9026  132.7265  192.3209 C   0  0  0  0  0  0  0  0  0  0  0  0
  153.5479  134.0175  191.9670 C   0  0  0  0  0  0  0  0  0  0  0  0
  154.4426  134.5564  190.9324 C   0  0  0  0  0  0  0  0  0  0  0  0
  154.7448  135.9896  191.0589 C   0  0  0  0  0  0  0  0  0  0  0  0
  157.2879  134.8759  188.9763 N   0  0  0  0  0  0  0  0  0  0  0  0
  156.9415  135.2577  190.2909 C   0  0  0  0  0  0  0  0  0  0  0  0
  157.5091  134.6094  191.2430 O   0  0  0  0  0  0  0  0  0  0  0  0
  155.7824  134.6909  187.0152 C   0  0  0  0  0  0  0  0  0  0  0  0
  156.6964  135.5214  187.8423 C   0  0  0  0  0  0  0  0  0  0  0  0
  158.2505  133.8219  188.7429 C   0  0  0  0  0  0  0  0  0  0  0  0
  159.5528  134.3168  188.2010 C   0  0  0  0  0  0  0  0  0  0  0  0
 19 20  1  0  0  0
 20 16  1  0  0  0
 16 21  1  0  0  0
 21 22  1  0  0  0
 16 17  1  0  0  0
 17 18  2  0  0  0
 17  1  1  0  0  0
  1  2  2  0  0  0
  2  3  1  0  0  0
  3  4  2  0  0  0
  4  5  1  0  0  0
  5  6  1  0  0  0
  6  7  2  0  0  0
  7  8  1  0  0  0
  8  9  2  0  0  0
  9 10  1  0  0  0
 10 11  2  0  0  0
 11 12  1  0  0  0
 12 13  2  0  0  0
 13 14  1  0  0  0
 14 15  1  0  0  0
 15  1  1  0  0  0
 15  5  2  0  0  0
 13  8  1  0  0  0
M  END
> <minimizedAffinity>
-5.48634

> <CNNscore>
0.4089800417

> <CNNaffinity>
4.7117681503

> <CNN_VS>
1.9270191193

> <CNNaffinity_variance>
0.1681398302

$$$$
[H]C1=Nc2c([H])c([H])c([H])c([H])c2C([H])([H])c2c(C(=O)N(C([H])([H])C([H])([H])[H])C([H])([H])C([H])([H])[H])c([H])c([H])c([H])c21


 22 24  0  0  0  0  0  0  0  0999 V2000
  150.4637  135.6979  191.4428 C   0  0  0  0  0  0  0  0  0  0  0  0
  150.1916  135.9065  192.7950 C   0  0  0  0  0  0  0  0  0  0  0  0
  151.1375  136.5448  193.5809 C   0  0  0  0  0  0  0  0  0  0  0  0
  152.3203  136.9640  193.0388 C   0  0  0  0  0  0  0  0  0  0  0  0
  152.5637  136.7419  191.6896 C   0  0  0  0  0  0  0  0  0  0  0  0
  153.8781  137.2787  191.3612 C   0  0  0  0  0  0  0  0  0  0  0  0
  154.2971  137.6293  190.1707 N   0  0  0  0  0  0  0  0  0  0  0  0
  153.5522  137.5597  188.9368 C   0  0  0  0  0  0  0  0  0  0  0  0
  154.0907  138.4520  188.0050 C   0  0  0  0  0  0  0  0  0  0  0  0
  153.5313  138.5511  186.7507 C   0  0  0  0  0  0  0  0  0  0  0  0
  152.4464  137.7451  186.4793 C   0  0  0  0  0  0  0  0  0  0  0  0
  151.9073  136.8621  187.3897 C   0  0  0  0  0  0  0  0  0  0  0  0
  152.4677  136.7603  188.6520 C   0  0  0  0  0  0  0  0  0  0  0  0
  151.7606  135.7691  189.4758 C   0  0  0  0  0  0  0  0  0  0  0  0
  151.6457  136.1150  190.9001 C   0  0  0  0  0  0  0  0  0  0  0  0
  149.2254  133.6885  190.4831 N   0  0  0  0  0  0  0  0  0  0  0  0
  149.4556  135.0730  190.6380 C   0  0  0  0  0  0  0  0  0  0  0  0
  148.6790  135.8586  189.9832 O   0  0  0  0  0  0  0  0  0  0  0  0
  151.1641  132.1480  190.3595 C   0  0  0  0  0  0  0  0  0  0  0  0
  150.0483  132.7261  191.1532 C   0  0  0  0  0  0  0  0  0  0  0  0
  148.1509  133.2080  189.6426 C   0  0  0  0  0  0  0  0  0  0  0  0
  146.9428  132.7788  190.4112 C   0  0  0  0  0  0  0  0  0  0  0  0
 19 20  1  0  0  0
 20 16  1  0  0  0
 16 21  1  0  0  0
 21 22  1  0  0  0
 16 17  1  0  0  0
 17 18  2  0  0  0
 17  1  1  0  0  0
  1  2  2  0  0  0
  2  3  1  0  0  0
  3  4  2  0  0  0
  4  5  1  0  0  0
  5  6  1  0  0  0
  6  7  2  0  0  0
  7  8  1  0  0  0
  8  9  2  0  0  0
  9 10  1  0  0  0
 10 11  2  0  0  0
 11 12  1  0  0  0
 12 13  2  0  0  0
 13 14  1  0  0  0
 14 15  1  0  0  0
 15  1  1  0  0  0
 15  5  2  0  0  0
 13  8  1  0  0  0
M  END
> <minimizedAffinity>
-5.53629

> <CNNscore>
0.4084141850

> <CNNaffinity>
4.4508543015

> <CNN_VS>
1.8177920580

> <CNNaffinity_variance>
0.0695843548

$$$$
[H]C1=Nc2c([H])c([H])c([H])c([H])c2C([H])([H])c2c(C(=O)N(C([H])([H])C([H])([H])[H])C([H])([H])C([H])([H])[H])c([H])c([H])c([H])c21


 22 24  0  0  0  0  0  0  0  0999 V2000
  151.8232  137.9723  181.4265 C   0  0  0  0  0  0  0  0  0  0  0  0
  152.4618  138.7691  180.4762 C   0  0  0  0  0  0  0  0  0  0  0  0
  151.7337  139.7493  179.8213 C   0  0  0  0  0  0  0  0  0  0  0  0
  150.4086  139.9326  180.1025 C   0  0  0  0  0  0  0  0  0  0  0  0
  149.7994  139.1237  181.0530 C   0  0  0  0  0  0  0  0  0  0  0  0
  148.4011  139.5172  181.1691 C   0  0  0  0  0  0  0  0  0  0  0  0
  147.6164  139.2978  182.1948 N   0  0  0  0  0  0  0  0  0  0  0  0
  147.9657  138.6237  183.4219 C   0  0  0  0  0  0  0  0  0  0  0  0
  147.0916  139.0098  184.4423 C   0  0  0  0  0  0  0  0  0  0  0  0
  147.2422  138.4854  185.7065 C   0  0  0  0  0  0  0  0  0  0  0  0
  148.2710  137.5880  185.8978 C   0  0  0  0  0  0  0  0  0  0  0  0
  149.1385  137.2002  184.8997 C   0  0  0  0  0  0  0  0  0  0  0  0
  148.9895  137.7260  183.6273 C   0  0  0  0  0  0  0  0  0  0  0  0
  150.0016  137.1933  182.7036 C   0  0  0  0  0  0  0  0  0  0  0  0
  150.4989  138.1535  181.7075 C   0  0  0  0  0  0  0  0  0  0  0  0
  153.2880  137.1589  183.3461 N   0  0  0  0  0  0  0  0  0  0  0  0
  152.6035  136.9918  182.1225 C   0  0  0  0  0  0  0  0  0  0  0  0
  152.6926  135.8357  181.5706 O   0  0  0  0  0  0  0  0  0  0  0  0
  154.4310  139.3126  183.7956 C   0  0  0  0  0  0  0  0  0  0  0  0
  153.2701  138.4156  184.0339 C   0  0  0  0  0  0  0  0  0  0  0  0
  154.0249  136.0629  183.9357 C   0  0  0  0  0  0  0  0  0  0  0  0
  153.3023  135.4012  185.0647 C   0  0  0  0  0  0  0  0  0  0  0  0
 19 20  1  0  0  0
 20 16  1  0  0  0
 16 21  1  0  0  0
 21 22  1  0  0  0
 16 17  1  0  0  0
 17 18  2  0  0  0
 17  1  1  0  0  0
  1  2  2  0  0  0
  2  3  1  0  0  0
  3  4  2  0  0  0
  4  5  1  0  0  0
  5  6  1  0  0  0
  6  7  2  0  0  0
  7  8  1  0  0  0
  8  9  2  0  0  0
  9 10  1  0  0  0
 10 11  2  0  0  0
 11 12  1  0  0  0
 12 13  2  0  0  0
 13 14  1  0  0  0
 14 15  1  0  0  0
 15  1  1  0  0  0
 15  5  2  0  0  0
 13  8  1  0  0  0
M  END
> <minimizedAffinity>
-5.60936

> <CNNscore>
0.3992244303

> <CNNaffinity>
4.8581528664

> <CNN_VS>
1.9394932985

> <CNNaffinity_variance>
0.0448834598

$$$$
[H]c1nc(C([H])([H])[H])c(C(F)(F)F)c([H])c1-c1nc(N([H])C(=O)C([H])([H])n2c([H])nc3c2c(=O)n(C([H])([H])C(=O)C([H])([H])C([H])([H])[H])c(=O)n3C([H])([H])[H])c([H])s1


 38 41  0  0  0  0  0  0  0  0999 V2000
  154.1807  137.5305  186.4488 C   0  0  0  0  0  0  0  0  0  0  0  0
  153.1358  138.1535  186.7865 O   0  0  0  0  0  0  0  0  0  0  0  0
  155.1363  137.0666  187.3749 N   0  0  0  0  0  0  0  0  0  0  0  0
  155.9688  136.5668  187.0667 H   0  0  0  0  0  0  0  0  0  0  0  0
  154.9249  137.3076  188.7828 C   0  0  0  0  0  0  0  0  0  0  0  0
  155.5038  138.3901  189.4149 C   0  0  0  0  0  0  0  0  0  0  0  0
  154.9454  138.2042  191.0145 S   0  0  0  0  0  0  0  0  0  0  0  0
  154.0222  136.7859  190.7991 C   0  0  0  0  0  0  0  0  0  0  0  0
  154.1902  136.5299  189.5150 N   0  0  0  0  0  0  0  0  0  0  0  0
  153.2273  136.0205  191.7868 C   0  0  0  0  0  0  0  0  0  0  0  0
  153.7952  135.5216  192.9280 C   0  0  0  0  0  0  0  0  0  0  0  0
  153.0109  134.8232  193.8025 N   0  0  0  0  0  0  0  0  0  0  0  0
  151.7044  134.6017  193.5958 C   0  0  0  0  0  0  0  0  0  0  0  0
  150.9526  133.8307  194.6126 C   0  0  0  0  0  0  0  0  0  0  0  0
  151.1054  135.0869  192.4649 C   0  0  0  0  0  0  0  0  0  0  0  0
  151.8923  135.8027  191.5608 C   0  0  0  0  0  0  0  0  0  0  0  0
  149.6679  134.8625  192.2045 C   0  0  0  0  0  0  0  0  0  0  0  0
  149.4141  133.5502  191.8268 F   0  0  0  0  0  0  0  0  0  0  0  0
  149.3118  135.6444  191.1225 F   0  0  0  0  0  0  0  0  0  0  0  0
  148.8643  135.2562  193.2551 F   0  0  0  0  0  0  0  0  0  0  0  0
  154.4043  137.2776  184.9836 C   0  0  0  0  0  0  0  0  0  0  0  0
  157.0229  140.8690  184.4823 N   0  0  0  0  0  0  0  0  0  0  0  0
  156.4969  141.8084  183.6494 C   0  0  0  0  0  0  0  0  0  0  0  0
  157.1363  142.8715  183.4225 O   0  0  0  0  0  0  0  0  0  0  0  0
  155.3076  141.6378  183.0562 N   0  0  0  0  0  0  0  0  0  0  0  0
  154.7334  142.6243  182.1689 C   0  0  0  0  0  0  0  0  0  0  0  0
  154.6325  140.5034  183.3024 C   0  0  0  0  0  0  0  0  0  0  0  0
  153.4407  140.0075  182.8902 N   0  0  0  0  0  0  0  0  0  0  0  0
  153.2572  138.8055  183.4592 C   0  0  0  0  0  0  0  0  0  0  0  0
  154.3017  138.4889  184.2427 N   0  0  0  0  0  0  0  0  0  0  0  0
  155.1488  139.5251  184.1514 C   0  0  0  0  0  0  0  0  0  0  0  0
  156.3734  139.7330  184.7442 C   0  0  0  0  0  0  0  0  0  0  0  0
  156.8196  138.8376  185.5059 O   0  0  0  0  0  0  0  0  0  0  0  0
  158.3095  141.1229  185.0851 C   0  0  0  0  0  0  0  0  0  0  0  0
  159.4181  140.7481  184.1668 C   0  0  0  0  0  0  0  0  0  0  0  0
  159.2752  139.7623  183.4706 O   0  0  0  0  0  0  0  0  0  0  0  0
  160.7349  142.6258  185.1041 C   0  0  0  0  0  0  0  0  0  0  0  0
  160.6625  141.5303  184.0833 C   0  0  0  0  0  0  0  0  0  0  0  0
 37 38  1  0  0  0
 38 35  1  0  0  0
 35 36  2  0  0  0
 35 34  1  0  0  0
 34 22  1  0  0  0
 22 23  1  0  0  0
 23 24  2  0  0  0
 23 25  1  0  0  0
 25 26  1  0  0  0
 25 27  1  0  0  0
 27 28  1  0  0  0
 28 29  2  0  0  0
 29 30  1  0  0  0
 30 21  1  0  0  0
 21  1  1  0  0  0
  1  2  2  0  0  0
  1  3  1  0  0  0
  3  5  1  0  0  0
  5  6  2  0  0  0
  6  7  1  0  0  0
  7  8  1  0  0  0
  8  9  2  0  0  0
  8 10  1  0  0  0
 10 11  2  0  0  0
 11 12  1  0  0  0
 12 13  2  0  0  0
 13 14  1  0  0  0
 13 15  1  0  0  0
 15 16  2  0  0  0
 15 17  1  0  0  0
 17 18  1  0  0  0
 17 19  1  0  0  0
 17 20  1  0  0  0
 30 31  1  0  0  0
 31 32  1  0  0  0
 32 33  2  0  0  0
 32 22  1  0  0  0
 31 27  2  0  0  0
  9  5  1  0  0  0
 16 10  1  0  0  0
  3  4  1  0  0  0
M  END
> <minimizedAffinity>
-7.09479

> <CNNscore>
0.5983129740

> <CNNaffinity>
6.6208839417

> <CNN_VS>
3.9613606930

> <CNNaffinity_variance>
0.0569312945

$$$$
[H]c1nc(C([H])([H])[H])c(C(F)(F)F)c([H])c1-c1nc(N([H])C(=O)C([H])([H])n2c([H])nc3c2c(=O)n(C([H])([H])C(=O)C([H])([H])C([H])([H])[H])c(=O)n3C([H])([H])[H])c([H])s1


 38 41  0  0  0  0  0  0  0  0999 V2000
  154.4115  137.0770  186.6513 C   0  0  0  0  0  0  0  0  0  0  0  0
  153.3535  137.6923  186.9613 O   0  0  0  0  0  0  0  0  0  0  0  0
  155.4117  136.7417  187.5859 N   0  0  0  0  0  0  0  0  0  0  0  0
  156.2535  136.2442  187.3002 H   0  0  0  0  0  0  0  0  0  0  0  0
  155.2330  137.1131  188.9698 C   0  0  0  0  0  0  0  0  0  0  0  0
  156.0256  138.0801  189.5556 C   0  0  0  0  0  0  0  0  0  0  0  0
  155.4105  138.1246  191.1446 S   0  0  0  0  0  0  0  0  0  0  0  0
  154.2003  136.9331  190.9831 C   0  0  0  0  0  0  0  0  0  0  0  0
  154.3310  136.5646  189.7222 N   0  0  0  0  0  0  0  0  0  0  0  0
  153.2376  136.4262  191.9879 C   0  0  0  0  0  0  0  0  0  0  0  0
  152.3792  137.2678  192.6426 C   0  0  0  0  0  0  0  0  0  0  0  0
  151.5132  136.7418  193.5596 N   0  0  0  0  0  0  0  0  0  0  0  0
  151.4631  135.4335  193.8507 C   0  0  0  0  0  0  0  0  0  0  0  0
  150.4834  134.9756  194.8628 C   0  0  0  0  0  0  0  0  0  0  0  0
  152.3076  134.5648  193.2141 C   0  0  0  0  0  0  0  0  0  0  0  0
  153.1989  135.0856  192.2743 C   0  0  0  0  0  0  0  0  0  0  0  0
  152.2799  133.1168  193.5094 C   0  0  0  0  0  0  0  0  0  0  0  0
  151.0243  132.5702  193.2775 F   0  0  0  0  0  0  0  0  0  0  0  0
  152.5177  132.9610  194.8616 F   0  0  0  0  0  0  0  0  0  0  0  0
  153.2713  132.4162  192.8530 F   0  0  0  0  0  0  0  0  0  0  0  0
  154.6010  136.6886  185.2113 C   0  0  0  0  0  0  0  0  0  0  0  0
  156.0762  140.7612  184.0958 N   0  0  0  0  0  0  0  0  0  0  0  0
  155.2708  141.4016  183.2049 C   0  0  0  0  0  0  0  0  0  0  0  0
  155.5739  142.5596  182.8077 O   0  0  0  0  0  0  0  0  0  0  0  0
  154.1531  140.8346  182.7310 N   0  0  0  0  0  0  0  0  0  0  0  0
  153.2857  141.4995  181.7845 C   0  0  0  0  0  0  0  0  0  0  0  0
  153.8366  139.6015  183.1583 C   0  0  0  0  0  0  0  0  0  0  0  0
  152.8161  138.7478  182.9012 N   0  0  0  0  0  0  0  0  0  0  0  0
  153.0041  137.6279  183.6171 C   0  0  0  0  0  0  0  0  0  0  0  0
  154.1287  137.7162  184.3467 N   0  0  0  0  0  0  0  0  0  0  0  0
  154.6445  138.9235  184.0705 C   0  0  0  0  0  0  0  0  0  0  0  0
  155.7855  139.5357  184.5369 C   0  0  0  0  0  0  0  0  0  0  0  0
  156.4989  138.9058  185.3586 O   0  0  0  0  0  0  0  0  0  0  0  0
  157.2642  141.4355  184.5620 C   0  0  0  0  0  0  0  0  0  0  0  0
  158.3508  141.3754  183.5479 C   0  0  0  0  0  0  0  0  0  0  0  0
  158.8802  142.4174  183.2149 O   0  0  0  0  0  0  0  0  0  0  0  0
  158.6884  140.0957  181.4535 C   0  0  0  0  0  0  0  0  0  0  0  0
  158.7921  140.1050  182.9491 C   0  0  0  0  0  0  0  0  0  0  0  0
 37 38  1  0  0  0
 38 35  1  0  0  0
 35 36  2  0  0  0
 35 34  1  0  0  0
 34 22  1  0  0  0
 22 23  1  0  0  0
 23 24  2  0  0  0
 23 25  1  0  0  0
 25 26  1  0  0  0
 25 27  1  0  0  0
 27 28  1  0  0  0
 28 29  2  0  0  0
 29 30  1  0  0  0
 30 21  1  0  0  0
 21  1  1  0  0  0
  1  2  2  0  0  0
  1  3  1  0  0  0
  3  5  1  0  0  0
  5  6  2  0  0  0
  6  7  1  0  0  0
  7  8  1  0  0  0
  8  9  2  0  0  0
  8 10  1  0  0  0
 10 11  2  0  0  0
 11 12  1  0  0  0
 12 13  2  0  0  0
 13 14  1  0  0  0
 13 15  1  0  0  0
 15 16  2  0  0  0
 15 17  1  0  0  0
 17 18  1  0  0  0
 17 19  1  0  0  0
 17 20  1  0  0  0
 30 31  1  0  0  0
 31 32  1  0  0  0
 32 33  2  0  0  0
 32 22  1  0  0  0
 31 27  2  0  0  0
  9  5  1  0  0  0
 16 10  1  0  0  0
  3  4  1  0  0  0
M  END
> <minimizedAffinity>
-7.09608

> <CNNscore>
0.5917787552

> <CNNaffinity>
6.4129934311

> <CNN_VS>
3.7950732708

> <CNNaffinity_variance>
0.1586169899

$$$$
[H]c1nc(C([H])([H])[H])c(C(F)(F)F)c([H])c1-c1nc(N([H])C(=O)C([H])([H])n2c([H])nc3c2c(=O)n(C([H])([H])C(=O)C([H])([H])C([H])([H])[H])c(=O)n3C([H])([H])[H])c([H])s1


 38 41  0  0  0  0  0  0  0  0999 V2000
  154.6351  138.4000  185.5188 C   0  0  0  0  0  0  0  0  0  0  0  0
  153.7259  139.0861  186.0636 O   0  0  0  0  0  0  0  0  0  0  0  0
  155.5587  137.6243  186.2478 N   0  0  0  0  0  0  0  0  0  0  0  0
  156.2801  137.0823  185.7748 H   0  0  0  0  0  0  0  0  0  0  0  0
  155.4747  137.6024  187.6892 C   0  0  0  0  0  0  0  0  0  0  0  0
  156.2698  138.4257  188.4615 C   0  0  0  0  0  0  0  0  0  0  0  0
  155.7812  138.0078  190.0400 S   0  0  0  0  0  0  0  0  0  0  0  0
  154.6131  136.8298  189.6419 C   0  0  0  0  0  0  0  0  0  0  0  0
  154.6589  136.8189  188.3226 N   0  0  0  0  0  0  0  0  0  0  0  0
  153.7551  136.0155  190.5330 C   0  0  0  0  0  0  0  0  0  0  0  0
  153.6035  134.6684  190.3428 C   0  0  0  0  0  0  0  0  0  0  0  0
  152.7985  133.9694  191.1978 N   0  0  0  0  0  0  0  0  0  0  0  0
  152.1461  134.5425  192.2200 C   0  0  0  0  0  0  0  0  0  0  0  0
  151.3002  133.6859  193.0827 C   0  0  0  0  0  0  0  0  0  0  0  0
  152.2761  135.8873  192.4382 C   0  0  0  0  0  0  0  0  0  0  0  0
  153.0948  136.6165  191.5739 C   0  0  0  0  0  0  0  0  0  0  0  0
  151.5725  136.5524  193.5551 C   0  0  0  0  0  0  0  0  0  0  0  0
  150.1933  136.4618  193.4186 F   0  0  0  0  0  0  0  0  0  0  0  0
  151.8721  137.8999  193.4950 F   0  0  0  0  0  0  0  0  0  0  0  0
  151.9935  136.1113  194.7931 F   0  0  0  0  0  0  0  0  0  0  0  0
  154.7256  138.4203  184.0182 C   0  0  0  0  0  0  0  0  0  0  0  0
  158.1195  141.3125  183.6668 N   0  0  0  0  0  0  0  0  0  0  0  0
  157.7546  142.5105  183.1335 C   0  0  0  0  0  0  0  0  0  0  0  0
  158.6189  143.4160  182.9802 O   0  0  0  0  0  0  0  0  0  0  0  0
  156.4919  142.7613  182.7620 N   0  0  0  0  0  0  0  0  0  0  0  0
  156.0861  144.0273  182.1940 C   0  0  0  0  0  0  0  0  0  0  0  0
  155.5771  141.7924  182.9282 C   0  0  0  0  0  0  0  0  0  0  0  0
  154.2496  141.6958  182.6737 N   0  0  0  0  0  0  0  0  0  0  0  0
  153.8305  140.4753  183.0436 C   0  0  0  0  0  0  0  0  0  0  0  0
  154.8505  139.7552  183.5397 N   0  0  0  0  0  0  0  0  0  0  0  0
  155.9245  140.5563  183.4721 C   0  0  0  0  0  0  0  0  0  0  0  0
  157.2309  140.3325  183.8430 C   0  0  0  0  0  0  0  0  0  0  0  0
  157.5216  139.2108  184.3310 O   0  0  0  0  0  0  0  0  0  0  0  0
  159.4988  141.1154  184.0435 C   0  0  0  0  0  0  0  0  0  0  0  0
  159.8189  141.8284  185.3091 C   0  0  0  0  0  0  0  0  0  0  0  0
  159.1044  141.6320  186.2724 O   0  0  0  0  0  0  0  0  0  0  0  0
  161.4458  142.9155  186.8289 C   0  0  0  0  0  0  0  0  0  0  0  0
  160.9613  142.7504  185.4198 C   0  0  0  0  0  0  0  0  0  0  0  0
 37 38  1  0  0  0
 38 35  1  0  0  0
 35 36  2  0  0  0
 35 34  1  0  0  0
 34 22  1  0  0  0
 22 23  1  0  0  0
 23 24  2  0  0  0
 23 25  1  0  0  0
 25 26  1  0  0  0
 25 27  1  0  0  0
 27 28  1  0  0  0
 28 29  2  0  0  0
 29 30  1  0  0  0
 30 21  1  0  0  0
 21  1  1  0  0  0
  1  2  2  0  0  0
  1  3  1  0  0  0
  3  5  1  0  0  0
  5  6  2  0  0  0
  6  7  1  0  0  0
  7  8  1  0  0  0
  8  9  2  0  0  0
  8 10  1  0  0  0
 10 11  2  0  0  0
 11 12  1  0  0  0
 12 13  2  0  0  0
 13 14  1  0  0  0
 13 15  1  0  0  0
 15 16  2  0  0  0
 15 17  1  0  0  0
 17 18  1  0  0  0
 17 19  1  0  0  0
 17 20  1  0  0  0
 30 31  1  0  0  0
 31 32  1  0  0  0
 32 33  2  0  0  0
 32 22  1  0  0  0
 31 27  2  0  0  0
  9  5  1  0  0  0
 16 10  1  0  0  0
  3  4  1  0  0  0
M  END
> <minimizedAffinity>
-7.93567

> <CNNscore>
0.5552918911

> <CNNaffinity>
6.6556510925

> <CNN_VS>
3.6958291531

> <CNNaffinity_variance>
0.1322636008

$$$$
[H]c1nc(C([H])([H])[H])c(C(F)(F)F)c([H])c1-c1nc(N([H])C(=O)C([H])([H])n2c([H])nc3c2c(=O)n(C([H])([H])C(=O)C([H])([H])C([H])([H])[H])c(=O)n3C([H])([H])[H])c([H])s1


 38 41  0  0  0  0  0  0  0  0999 V2000
  154.7077  139.1873  184.4478 C   0  0  0  0  0  0  0  0  0  0  0  0
  155.7301  139.5929  185.0676 O   0  0  0  0  0  0  0  0  0  0  0  0
  153.7200  138.3729  185.0372 N   0  0  0  0  0  0  0  0  0  0  0  0
  152.9070  138.0639  184.5066 H   0  0  0  0  0  0  0  0  0  0  0  0
  153.8698  137.9739  186.4168 C   0  0  0  0  0  0  0  0  0  0  0  0
  153.0384  138.4765  187.3978 C   0  0  0  0  0  0  0  0  0  0  0  0
  153.6326  137.7012  188.7946 S   0  0  0  0  0  0  0  0  0  0  0  0
  154.8839  136.7954  188.0706 C   0  0  0  0  0  0  0  0  0  0  0  0
  154.7806  137.1342  186.7989 N   0  0  0  0  0  0  0  0  0  0  0  0
  155.8509  135.8612  188.6915 C   0  0  0  0  0  0  0  0  0  0  0  0
  155.5619  135.2050  189.8575 C   0  0  0  0  0  0  0  0  0  0  0  0
  156.4942  134.3549  190.3829 N   0  0  0  0  0  0  0  0  0  0  0  0
  157.6852  134.1312  189.8082 C   0  0  0  0  0  0  0  0  0  0  0  0
  158.6179  133.1885  190.4678 C   0  0  0  0  0  0  0  0  0  0  0  0
  158.0057  134.7712  188.6417 C   0  0  0  0  0  0  0  0  0  0  0  0
  157.0646  135.6432  188.0913 C   0  0  0  0  0  0  0  0  0  0  0  0
  159.3086  134.5485  187.9803 C   0  0  0  0  0  0  0  0  0  0  0  0
  160.3681  134.9298  188.7934 F   0  0  0  0  0  0  0  0  0  0  0  0
  159.3627  135.3746  186.8741 F   0  0  0  0  0  0  0  0  0  0  0  0
  159.4605  133.2583  187.5148 F   0  0  0  0  0  0  0  0  0  0  0  0
  154.5482  139.6008  183.0110 C   0  0  0  0  0  0  0  0  0  0  0  0
  158.3982  141.8205  182.5040 N   0  0  0  0  0  0  0  0  0  0  0  0
  158.2326  143.1652  182.3732 C   0  0  0  0  0  0  0  0  0  0  0  0
  159.2409  143.9078  182.2234 O   0  0  0  0  0  0  0  0  0  0  0  0
  157.0186  143.7316  182.3988 N   0  0  0  0  0  0  0  0  0  0  0  0
  156.8236  145.1576  182.2615 C   0  0  0  0  0  0  0  0  0  0  0  0
  155.9497  142.9348  182.5586 C   0  0  0  0  0  0  0  0  0  0  0  0
  154.6141  143.1523  182.6296 N   0  0  0  0  0  0  0  0  0  0  0  0
  153.9965  141.9723  182.7980 C   0  0  0  0  0  0  0  0  0  0  0  0
  154.8920  140.9718  182.8410 N   0  0  0  0  0  0  0  0  0  0  0  0
  156.0916  141.5542  182.6948 C   0  0  0  0  0  0  0  0  0  0  0  0
  157.3534  141.0057  182.6639 C   0  0  0  0  0  0  0  0  0  0  0  0
  157.4577  139.7589  182.7885 O   0  0  0  0  0  0  0  0  0  0  0  0
  159.7369  141.2824  182.4664 C   0  0  0  0  0  0  0  0  0  0  0  0
  160.3535  141.2769  183.8201 C   0  0  0  0  0  0  0  0  0  0  0  0
  159.6954  140.8459  184.7463 O   0  0  0  0  0  0  0  0  0  0  0  0
  161.8265  142.6192  185.2921 C   0  0  0  0  0  0  0  0  0  0  0  0
  161.7189  141.7728  184.0594 C   0  0  0  0  0  0  0  0  0  0  0  0
 37 38  1  0  0  0
 38 35  1  0  0  0
 35 36  2  0  0  0
 35 34  1  0  0  0
 34 22  1  0  0  0
 22 23  1  0  0  0
 23 24  2  0  0  0
 23 25  1  0  0  0
 25 26  1  0  0  0
 25 27  1  0  0  0
 27 28  1  0  0  0
 28 29  2  0  0  0
 29 30  1  0  0  0
 30 21  1  0  0  0
 21  1  1  0  0  0
  1  2  2  0  0  0
  1  3  1  0  0  0
  3  5  1  0  0  0
  5  6  2  0  0  0
  6  7  1  0  0  0
  7  8  1  0  0  0
  8  9  2  0  0  0
  8 10  1  0  0  0
 10 11  2  0  0  0
 11 12  1  0  0  0
 12 13  2  0  0  0
 13 14  1  0  0  0
 13 15  1  0  0  0
 15 16  2  0  0  0
 15 17  1  0  0  0
 17 18  1  0  0  0
 17 19  1  0  0  0
 17 20  1  0  0  0
 30 31  1  0  0  0
 31 32  1  0  0  0
 32 33  2  0  0  0
 32 22  1  0  0  0
 31 27  2  0  0  0
  9  5  1  0  0  0
 16 10  1  0  0  0
  3  4  1  0  0  0
M  END
> <minimizedAffinity>
-8.11013

> <CNNscore>
0.4241895974

> <CNNaffinity>
6.7417182922

> <CNN_VS>
2.8597667217

> <CNNaffinity_variance>
0.1722278744

$$$$
[H]c1nc(C([H])([H])[H])c(C(F)(F)F)c([H])c1-c1nc(N([H])C(=O)C([H])([H])n2c([H])nc3c2c(=O)n(C([H])([H])C(=O)C([H])([H])C([H])([H])[H])c(=O)n3C([H])([H])[H])c([H])s1


 38 41  0  0  0  0  0  0  0  0999 V2000
  152.4960  136.2442  185.9813 C   0  0  0  0  0  0  0  0  0  0  0  0
  152.4129  137.1866  186.8174 O   0  0  0  0  0  0  0  0  0  0  0  0
  151.6415  135.1236  185.9935 N   0  0  0  0  0  0  0  0  0  0  0  0
  151.7373  134.3811  185.3027 H   0  0  0  0  0  0  0  0  0  0  0  0
  150.6154  135.0335  187.0055 C   0  0  0  0  0  0  0  0  0  0  0  0
  149.2892  134.8625  186.6616 C   0  0  0  0  0  0  0  0  0  0  0  0
  148.5319  134.8215  188.1881 S   0  0  0  0  0  0  0  0  0  0  0  0
  149.9163  135.0203  189.1650 C   0  0  0  0  0  0  0  0  0  0  0  0
  150.8842  135.1075  188.2715 N   0  0  0  0  0  0  0  0  0  0  0  0
  150.0267  135.0821  190.6405 C   0  0  0  0  0  0  0  0  0  0  0  0
  149.0884  134.5031  191.4518 C   0  0  0  0  0  0  0  0  0  0  0  0
  149.2440  134.5930  192.8065 N   0  0  0  0  0  0  0  0  0  0  0  0
  150.2772  135.2244  193.3831 C   0  0  0  0  0  0  0  0  0  0  0  0
  150.3431  135.2591  194.8623 C   0  0  0  0  0  0  0  0  0  0  0  0
  151.2331  135.8140  192.6008 C   0  0  0  0  0  0  0  0  0  0  0  0
  151.0894  135.7316  191.2146 C   0  0  0  0  0  0  0  0  0  0  0  0
  152.3856  136.5179  193.2016 C   0  0  0  0  0  0  0  0  0  0  0  0
  151.9875  137.6523  193.8972 F   0  0  0  0  0  0  0  0  0  0  0  0
  153.1858  136.9673  192.1689 F   0  0  0  0  0  0  0  0  0  0  0  0
  153.1731  135.6925  193.9782 F   0  0  0  0  0  0  0  0  0  0  0  0
  153.5632  136.3345  184.9261 C   0  0  0  0  0  0  0  0  0  0  0  0
  154.5996  140.4331  183.4651 N   0  0  0  0  0  0  0  0  0  0  0  0
  153.9065  140.8008  182.3529 C   0  0  0  0  0  0  0  0  0  0  0  0
  154.1052  141.9351  181.8387 O   0  0  0  0  0  0  0  0  0  0  0  0
  153.0095  139.9867  181.7802 N   0  0  0  0  0  0  0  0  0  0  0  0
  152.2642  140.3602  180.5990 C   0  0  0  0  0  0  0  0  0  0  0  0
  152.8031  138.7805  182.3331 C   0  0  0  0  0  0  0  0  0  0  0  0
  151.9991  137.7316  182.0339 N   0  0  0  0  0  0  0  0  0  0  0  0
  152.2040  136.7629  182.9404 C   0  0  0  0  0  0  0  0  0  0  0  0
  153.1280  137.1433  183.8384 N   0  0  0  0  0  0  0  0  0  0  0  0
  153.4999  138.3793  183.4724 C   0  0  0  0  0  0  0  0  0  0  0  0
  154.4142  139.2406  184.0349 C   0  0  0  0  0  0  0  0  0  0  0  0
  155.0309  138.8580  185.0616 O   0  0  0  0  0  0  0  0  0  0  0  0
  155.5499  141.3635  184.0260 C   0  0  0  0  0  0  0  0  0  0  0  0
  156.9430  141.0043  183.6480 C   0  0  0  0  0  0  0  0  0  0  0  0
  157.2442  141.0435  182.4713 O   0  0  0  0  0  0  0  0  0  0  0  0
  159.2520  140.1947  184.0370 C   0  0  0  0  0  0  0  0  0  0  0  0
  157.9477  140.6094  184.6489 C   0  0  0  0  0  0  0  0  0  0  0  0
 37 38  1  0  0  0
 38 35  1  0  0  0
 35 36  2  0  0  0
 35 34  1  0  0  0
 34 22  1  0  0  0
 22 23  1  0  0  0
 23 24  2  0  0  0
 23 25  1  0  0  0
 25 26  1  0  0  0
 25 27  1  0  0  0
 27 28  1  0  0  0
 28 29  2  0  0  0
 29 30  1  0  0  0
 30 21  1  0  0  0
 21  1  1  0  0  0
  1  2  2  0  0  0
  1  3  1  0  0  0
  3  5  1  0  0  0
  5  6  2  0  0  0
  6  7  1  0  0  0
  7  8  1  0  0  0
  8  9  2  0  0  0
  8 10  1  0  0  0
 10 11  2  0  0  0
 11 12  1  0  0  0
 12 13  2  0  0  0
 13 14  1  0  0  0
 13 15  1  0  0  0
 15 16  2  0  0  0
 15 17  1  0  0  0
 17 18  1  0  0  0
 17 19  1  0  0  0
 17 20  1  0  0  0
 30 31  1  0  0  0
 31 32  1  0  0  0
 32 33  2  0  0  0
 32 22  1  0  0  0
 31 27  2  0  0  0
  9  5  1  0  0  0
 16 10  1  0  0  0
  3  4  1  0  0  0
M  END
> <minimizedAffinity>
-6.52551

> <CNNscore>
0.3795745075

> <CNNaffinity>
6.1060061455

> <CNN_VS>
2.3176841736

> <CNNaffinity_variance>
0.1320128441

$$$$
[H]c1nc(C([H])([H])[H])c(C(F)(F)F)c([H])c1-c1nc(N([H])C(=O)C([H])([H])n2c([H])nc3c2c(=O)n(C([H])([H])C(=O)C([H])([H])C([H])([H])[H])c(=O)n3C([H])([H])[H])c([H])s1


 38 41  0  0  0  0  0  0  0  0999 V2000
  154.1891  138.1435  185.4988 C   0  0  0  0  0  0  0  0  0  0  0  0
  153.7212  139.0686  186.2195 O   0  0  0  0  0  0  0  0  0  0  0  0
  153.5734  136.8829  185.3646 N   0  0  0  0  0  0  0  0  0  0  0  0
  153.9793  136.1591  184.7737 H   0  0  0  0  0  0  0  0  0  0  0  0
  152.3469  136.6204  186.0799 C   0  0  0  0  0  0  0  0  0  0  0  0
  151.1436  136.5061  185.4124 C   0  0  0  0  0  0  0  0  0  0  0  0
  150.0581  136.2059  186.6917 S   0  0  0  0  0  0  0  0  0  0  0  0
  151.1711  136.2408  187.9841 C   0  0  0  0  0  0  0  0  0  0  0  0
  152.3140  136.4803  187.3683 N   0  0  0  0  0  0  0  0  0  0  0  0
  150.9366  136.0529  189.4343 C   0  0  0  0  0  0  0  0  0  0  0  0
  149.8335  135.3891  189.8992 C   0  0  0  0  0  0  0  0  0  0  0  0
  149.6710  135.2469  191.2487 N   0  0  0  0  0  0  0  0  0  0  0  0
  150.5449  135.7289  192.1447 C   0  0  0  0  0  0  0  0  0  0  0  0
  150.2660  135.5156  193.5836 C   0  0  0  0  0  0  0  0  0  0  0  0
  151.6584  136.3975  191.7134 C   0  0  0  0  0  0  0  0  0  0  0  0
  151.8398  136.5518  190.3378 C   0  0  0  0  0  0  0  0  0  0  0  0
  152.6429  136.9417  192.6721 C   0  0  0  0  0  0  0  0  0  0  0  0
  152.0860  137.9301  193.4734 F   0  0  0  0  0  0  0  0  0  0  0  0
  153.6391  137.5614  191.9423 F   0  0  0  0  0  0  0  0  0  0  0  0
  153.2586  135.9615  193.4236 F   0  0  0  0  0  0  0  0  0  0  0  0
  155.4661  138.4131  184.7524 C   0  0  0  0  0  0  0  0  0  0  0  0
  158.5093  141.5704  183.8706 N   0  0  0  0  0  0  0  0  0  0  0  0
  157.9909  142.6574  183.2363 C   0  0  0  0  0  0  0  0  0  0  0  0
  158.7444  143.6213  182.9301 O   0  0  0  0  0  0  0  0  0  0  0  0
  156.6905  142.7371  182.9232 N   0  0  0  0  0  0  0  0  0  0  0  0
  156.1224  143.8834  182.2498 C   0  0  0  0  0  0  0  0  0  0  0  0
  155.8942  141.7072  183.2522 C   0  0  0  0  0  0  0  0  0  0  0  0
  154.5728  141.4503  183.0969 N   0  0  0  0  0  0  0  0  0  0  0  0
  154.3064  140.2442  183.6227 C   0  0  0  0  0  0  0  0  0  0  0  0
  155.4224  139.6907  184.1258 N   0  0  0  0  0  0  0  0  0  0  0  0
  156.3999  140.5819  183.9022 C   0  0  0  0  0  0  0  0  0  0  0  0
  157.7407  140.5332  184.2089 C   0  0  0  0  0  0  0  0  0  0  0  0
  158.1749  139.5090  184.7949 O   0  0  0  0  0  0  0  0  0  0  0  0
  159.9200  141.5560  184.1754 C   0  0  0  0  0  0  0  0  0  0  0  0
  160.2015  142.2562  185.4572 C   0  0  0  0  0  0  0  0  0  0  0  0
  159.4698  142.0351  186.4020 O   0  0  0  0  0  0  0  0  0  0  0  0
  162.0774  143.0099  186.8893 C   0  0  0  0  0  0  0  0  0  0  0  0
  161.3263  143.1944  185.6051 C   0  0  0  0  0  0  0  0  0  0  0  0
 37 38  1  0  0  0
 38 35  1  0  0  0
 35 36  2  0  0  0
 35 34  1  0  0  0
 34 22  1  0  0  0
 22 23  1  0  0  0
 23 24  2  0  0  0
 23 25  1  0  0  0
 25 26  1  0  0  0
 25 27  1  0  0  0
 27 28  1  0  0  0
 28 29  2  0  0  0
 29 30  1  0  0  0
 30 21  1  0  0  0
 21  1  1  0  0  0
  1  2  2  0  0  0
  1  3  1  0  0  0
  3  5  1  0  0  0
  5  6  2  0  0  0
  6  7  1  0  0  0
  7  8  1  0  0  0
  8  9  2  0  0  0
  8 10  1  0  0  0
 10 11  2  0  0  0
 11 12  1  0  0  0
 12 13  2  0  0  0
 13 14  1  0  0  0
 13 15  1  0  0  0
 15 16  2  0  0  0
 15 17  1  0  0  0
 17 18  1  0  0  0
 17 19  1  0  0  0
 17 20  1  0  0  0
 30 31  1  0  0  0
 31 32  1  0  0  0
 32 33  2  0  0  0
 32 22  1  0  0  0
 31 27  2  0  0  0
  9  5  1  0  0  0
 16 10  1  0  0  0
  3  4  1  0  0  0
M  END
> <minimizedAffinity>
-8.22937

> <CNNscore>
0.3576361835

> <CNNaffinity>
6.4242439270

> <CNN_VS>
2.2975420952

> <CNNaffinity_variance>
0.0667551309

$$$$
[H]c1nc(C([H])([H])[H])c(C(F)(F)F)c([H])c1-c1nc(N([H])C(=O)C([H])([H])n2c([H])nc3c2c(=O)n(C([H])([H])C(=O)C([H])([H])C([H])([H])[H])c(=O)n3C([H])([H])[H])c([H])s1


 38 41  0  0  0  0  0  0  0  0999 V2000
  155.3875  136.2953  187.4533 C   0  0  0  0  0  0  0  0  0  0  0  0
  155.0750  135.6083  186.4412 O   0  0  0  0  0  0  0  0  0  0  0  0
  155.4959  137.7002  187.4293 N   0  0  0  0  0  0  0  0  0  0  0  0
  155.7504  138.2229  188.2659 H   0  0  0  0  0  0  0  0  0  0  0  0
  155.2404  138.4036  186.1944 C   0  0  0  0  0  0  0  0  0  0  0  0
  153.9611  138.5068  185.6852 C   0  0  0  0  0  0  0  0  0  0  0  0
  154.2204  139.4065  184.2610 S   0  0  0  0  0  0  0  0  0  0  0  0
  155.9107  139.6004  184.3859 C   0  0  0  0  0  0  0  0  0  0  0  0
  156.1869  138.9666  185.5105 N   0  0  0  0  0  0  0  0  0  0  0  0
  156.8484  140.2981  183.4764 C   0  0  0  0  0  0  0  0  0  0  0  0
  157.9835  139.6874  183.0155 C   0  0  0  0  0  0  0  0  0  0  0  0
  158.8109  140.3817  182.1783 N   0  0  0  0  0  0  0  0  0  0  0  0
  158.5633  141.6396  181.7840 C   0  0  0  0  0  0  0  0  0  0  0  0
  159.5312  142.2945  180.8742 C   0  0  0  0  0  0  0  0  0  0  0  0
  157.4371  142.2791  182.2264 C   0  0  0  0  0  0  0  0  0  0  0  0
  156.5809  141.5842  183.0825 C   0  0  0  0  0  0  0  0  0  0  0  0
  157.1320  143.6648  181.8123 C   0  0  0  0  0  0  0  0  0  0  0  0
  157.3841  143.8632  180.4609 F   0  0  0  0  0  0  0  0  0  0  0  0
  157.9983  144.5034  182.4871 F   0  0  0  0  0  0  0  0  0  0  0  0
  155.8552  144.0592  182.1570 F   0  0  0  0  0  0  0  0  0  0  0  0
  155.6543  135.5664  188.7410 C   0  0  0  0  0  0  0  0  0  0  0  0
  151.5533  135.1602  190.4800 N   0  0  0  0  0  0  0  0  0  0  0  0
  151.3332  135.9835  191.5413 C   0  0  0  0  0  0  0  0  0  0  0  0
  150.2149  135.9675  192.1239 O   0  0  0  0  0  0  0  0  0  0  0  0
  152.2778  136.8202  191.9921 N   0  0  0  0  0  0  0  0  0  0  0  0
  152.0620  137.7016  193.1176 C   0  0  0  0  0  0  0  0  0  0  0  0
  153.4661  136.8318  191.3669 C   0  0  0  0  0  0  0  0  0  0  0  0
  154.6171  137.5251  191.5429 N   0  0  0  0  0  0  0  0  0  0  0  0
  155.5017  137.1291  190.6141 C   0  0  0  0  0  0  0  0  0  0  0  0
  154.9653  136.1860  189.8218 N   0  0  0  0  0  0  0  0  0  0  0  0
  153.7175  135.9985  190.2774 C   0  0  0  0  0  0  0  0  0  0  0  0
  152.7247  135.1514  189.8406 C   0  0  0  0  0  0  0  0  0  0  0  0
  152.9734  134.4090  188.8567 O   0  0  0  0  0  0  0  0  0  0  0  0
  150.4879  134.2859  190.0513 C   0  0  0  0  0  0  0  0  0  0  0  0
  149.5380  134.9948  189.1524 C   0  0  0  0  0  0  0  0  0  0  0  0
  149.9839  135.8400  188.4016 O   0  0  0  0  0  0  0  0  0  0  0  0
  147.6521  133.9405  190.3648 C   0  0  0  0  0  0  0  0  0  0  0  0
  148.0954  134.7012  189.1514 C   0  0  0  0  0  0  0  0  0  0  0  0
 37 38  1  0  0  0
 38 35  1  0  0  0
 35 36  2  0  0  0
 35 34  1  0  0  0
 34 22  1  0  0  0
 22 23  1  0  0  0
 23 24  2  0  0  0
 23 25  1  0  0  0
 25 26  1  0  0  0
 25 27  1  0  0  0
 27 28  1  0  0  0
 28 29  2  0  0  0
 29 30  1  0  0  0
 30 21  1  0  0  0
 21  1  1  0  0  0
  1  2  2  0  0  0
  1  3  1  0  0  0
  3  5  1  0  0  0
  5  6  2  0  0  0
  6  7  1  0  0  0
  7  8  1  0  0  0
  8  9  2  0  0  0
  8 10  1  0  0  0
 10 11  2  0  0  0
 11 12  1  0  0  0
 12 13  2  0  0  0
 13 14  1  0  0  0
 13 15  1  0  0  0
 15 16  2  0  0  0
 15 17  1  0  0  0
 17 18  1  0  0  0
 17 19  1  0  0  0
 17 20  1  0  0  0
 30 31  1  0  0  0
 31 32  1  0  0  0
 32 33  2  0  0  0
 32 22  1  0  0  0
 31 27  2  0  0  0
  9  5  1  0  0  0
 16 10  1  0  0  0
  3  4  1  0  0  0
M  END
> <minimizedAffinity>
-6.92264

> <CNNscore>
0.3560723066

> <CNNaffinity>
6.4014754295

> <CNN_VS>
2.2793881893

> <CNNaffinity_variance>
0.0569483824

$$$$
[H]c1nc(C([H])([H])[H])c(C(F)(F)F)c([H])c1-c1nc(N([H])C(=O)C([H])([H])n2c([H])nc3c2c(=O)n(C([H])([H])C(=O)C([H])([H])C([H])([H])[H])c(=O)n3C([H])([H])[H])c([H])s1


 38 41  0  0  0  0  0  0  0  0999 V2000
  151.9125  139.6676  180.8291 C   0  0  0  0  0  0  0  0  0  0  0  0
  152.5580  138.7252  180.2912 O   0  0  0  0  0  0  0  0  0  0  0  0
  152.2650  140.2351  182.0700 N   0  0  0  0  0  0  0  0  0  0  0  0
  151.7209  140.9952  182.4748 H   0  0  0  0  0  0  0  0  0  0  0  0
  153.4182  139.7250  182.7736 C   0  0  0  0  0  0  0  0  0  0  0  0
  153.3427  138.5641  183.5172 C   0  0  0  0  0  0  0  0  0  0  0  0
  154.9330  138.4243  184.1145 S   0  0  0  0  0  0  0  0  0  0  0  0
  155.5976  139.8237  183.4003 C   0  0  0  0  0  0  0  0  0  0  0  0
  154.5678  140.3235  182.7428 N   0  0  0  0  0  0  0  0  0  0  0  0
  156.9758  140.3596  183.4833 C   0  0  0  0  0  0  0  0  0  0  0  0
  157.8708  139.8887  184.4058 C   0  0  0  0  0  0  0  0  0  0  0  0
  159.1286  140.4221  184.4345 N   0  0  0  0  0  0  0  0  0  0  0  0
  159.5310  141.3902  183.5980 C   0  0  0  0  0  0  0  0  0  0  0  0
  160.9186  141.8933  183.7207 C   0  0  0  0  0  0  0  0  0  0  0  0
  158.6610  141.8834  182.6637 C   0  0  0  0  0  0  0  0  0  0  0  0
  157.3718  141.3495  182.6207 C   0  0  0  0  0  0  0  0  0  0  0  0
  159.0701  142.9497  181.7254 C   0  0  0  0  0  0  0  0  0  0  0  0
  159.5621  144.0618  182.3963 F   0  0  0  0  0  0  0  0  0  0  0  0
  157.9376  143.3783  181.0599 F   0  0  0  0  0  0  0  0  0  0  0  0
  159.9493  142.5057  180.7588 F   0  0  0  0  0  0  0  0  0  0  0  0
  150.7112  140.2014  180.0994 C   0  0  0  0  0  0  0  0  0  0  0  0
  148.5333  137.0663  182.4309 N   0  0  0  0  0  0  0  0  0  0  0  0
  147.7724  136.2475  181.6543 C   0  0  0  0  0  0  0  0  0  0  0  0
  147.1063  135.3197  182.1890 O   0  0  0  0  0  0  0  0  0  0  0  0
  147.7075  136.3975  180.3244 N   0  0  0  0  0  0  0  0  0  0  0  0
  146.9048  135.5376  179.4838 C   0  0  0  0  0  0  0  0  0  0  0  0
  148.4192  137.3876  179.7619 C   0  0  0  0  0  0  0  0  0  0  0  0
  148.5884  137.8214  178.4893 N   0  0  0  0  0  0  0  0  0  0  0  0
  149.4265  138.8699  178.5023 C   0  0  0  0  0  0  0  0  0  0  0  0
  149.8203  139.1451  179.7569 N   0  0  0  0  0  0  0  0  0  0  0  0
  149.2067  138.2404  180.5346 C   0  0  0  0  0  0  0  0  0  0  0  0
  149.2503  138.0579  181.8980 C   0  0  0  0  0  0  0  0  0  0  0  0
  149.9668  138.8384  182.5750 O   0  0  0  0  0  0  0  0  0  0  0  0
  148.5535  136.8437  183.8568 C   0  0  0  0  0  0  0  0  0  0  0  0
  147.7659  137.8811  184.5752 C   0  0  0  0  0  0  0  0  0  0  0  0
  146.8161  138.3769  184.0018 O   0  0  0  0  0  0  0  0  0  0  0  0
  147.6926  137.3226  186.9879 C   0  0  0  0  0  0  0  0  0  0  0  0
  148.1047  138.3135  185.9411 C   0  0  0  0  0  0  0  0  0  0  0  0
 37 38  1  0  0  0
 38 35  1  0  0  0
 35 36  2  0  0  0
 35 34  1  0  0  0
 34 22  1  0  0  0
 22 23  1  0  0  0
 23 24  2  0  0  0
 23 25  1  0  0  0
 25 26  1  0  0  0
 25 27  1  0  0  0
 27 28  1  0  0  0
 28 29  2  0  0  0
 29 30  1  0  0  0
 30 21  1  0  0  0
 21  1  1  0  0  0
  1  2  2  0  0  0
  1  3  1  0  0  0
  3  5  1  0  0  0
  5  6  2  0  0  0
  6  7  1  0  0  0
  7  8  1  0  0  0
  8  9  2  0  0  0
  8 10  1  0  0  0
 10 11  2  0  0  0
 11 12  1  0  0  0
 12 13  2  0  0  0
 13 14  1  0  0  0
 13 15  1  0  0  0
 15 16  2  0  0  0
 15 17  1  0  0  0
 17 18  1  0  0  0
 17 19  1  0  0  0
 17 20  1  0  0  0
 30 31  1  0  0  0
 31 32  1  0  0  0
 32 33  2  0  0  0
 32 22  1  0  0  0
 31 27  2  0  0  0
  9  5  1  0  0  0
 16 10  1  0  0  0
  3  4  1  0  0  0
M  END
> <minimizedAffinity>
-6.95467

> <CNNscore>
0.3391650617

> <CNNaffinity>
6.4251546860

> <CNN_VS>
2.1791880131

> <CNNaffinity_variance>
0.1256481558

$$$$
[H]c1nc(C([H])([H])[H])c(C(F)(F)F)c([H])c1-c1nc(N([H])C(=O)C([H])([H])n2c([H])nc3c2c(=O)n(C([H])([H])C(=O)C([H])([H])C([H])([H])[H])c(=O)n3C([H])([H])[H])c([H])s1


 38 41  0  0  0  0  0  0  0  0999 V2000
  154.6332  137.5713  185.6514 C   0  0  0  0  0  0  0  0  0  0  0  0
  155.0889  138.1592  186.6716 O   0  0  0  0  0  0  0  0  0  0  0  0
  154.7136  138.1080  184.3507 N   0  0  0  0  0  0  0  0  0  0  0  0
  154.3349  137.6055  183.5495 H   0  0  0  0  0  0  0  0  0  0  0  0
  155.3450  139.3923  184.1584 C   0  0  0  0  0  0  0  0  0  0  0  0
  154.6004  140.5125  183.8472 C   0  0  0  0  0  0  0  0  0  0  0  0
  155.8030  141.7151  183.7352 S   0  0  0  0  0  0  0  0  0  0  0  0
  157.1643  140.7478  184.0837 C   0  0  0  0  0  0  0  0  0  0  0  0
  156.6264  139.5562  184.2672 N   0  0  0  0  0  0  0  0  0  0  0  0
  158.5935  141.1273  184.1649 C   0  0  0  0  0  0  0  0  0  0  0  0
  159.4720  140.8204  183.1610 C   0  0  0  0  0  0  0  0  0  0  0  0
  160.7792  141.1968  183.2923 N   0  0  0  0  0  0  0  0  0  0  0  0
  161.2456  141.8561  184.3630 C   0  0  0  0  0  0  0  0  0  0  0  0
  162.6826  142.2133  184.3975 C   0  0  0  0  0  0  0  0  0  0  0  0
  160.3938  142.1785  185.3845 C   0  0  0  0  0  0  0  0  0  0  0  0
  159.0548  141.8014  185.2665 C   0  0  0  0  0  0  0  0  0  0  0  0
  160.8727  142.9051  186.5792 C   0  0  0  0  0  0  0  0  0  0  0  0
  159.8344  143.1891  187.4569 F   0  0  0  0  0  0  0  0  0  0  0  0
  161.3589  144.1279  186.1582 F   0  0  0  0  0  0  0  0  0  0  0  0
  161.9173  142.2645  187.2140 F   0  0  0  0  0  0  0  0  0  0  0  0
  153.9750  136.2338  185.8475 C   0  0  0  0  0  0  0  0  0  0  0  0
  154.5450  135.5600  190.2325 N   0  0  0  0  0  0  0  0  0  0  0  0
  153.3977  135.6934  190.9526 C   0  0  0  0  0  0  0  0  0  0  0  0
  153.4212  135.5286  192.2027 O   0  0  0  0  0  0  0  0  0  0  0  0
  152.2306  135.9977  190.3690 N   0  0  0  0  0  0  0  0  0  0  0  0
  151.0023  136.1434  191.1175 C   0  0  0  0  0  0  0  0  0  0  0  0
  152.2132  136.1719  189.0376 C   0  0  0  0  0  0  0  0  0  0  0  0
  151.2455  136.4775  188.1396 N   0  0  0  0  0  0  0  0  0  0  0  0
  151.7964  136.5260  186.9164 C   0  0  0  0  0  0  0  0  0  0  0  0
  153.1117  136.2592  186.9792 N   0  0  0  0  0  0  0  0  0  0  0  0
  153.3743  136.0410  188.2766 C   0  0  0  0  0  0  0  0  0  0  0  0
  154.5560  135.7276  188.9086 C   0  0  0  0  0  0  0  0  0  0  0  0
  155.5905  135.6147  188.2028 O   0  0  0  0  0  0  0  0  0  0  0  0
  155.7646  135.2307  190.9307 C   0  0  0  0  0  0  0  0  0  0  0  0
  156.3919  136.4436  191.5207 C   0  0  0  0  0  0  0  0  0  0  0  0
  156.8280  136.3686  192.6526 O   0  0  0  0  0  0  0  0  0  0  0  0
  155.4332  138.6989  191.1563 C   0  0  0  0  0  0  0  0  0  0  0  0
  156.4950  137.7106  190.7780 C   0  0  0  0  0  0  0  0  0  0  0  0
 37 38  1  0  0  0
 38 35  1  0  0  0
 35 36  2  0  0  0
 35 34  1  0  0  0
 34 22  1  0  0  0
 22 23  1  0  0  0
 23 24  2  0  0  0
 23 25  1  0  0  0
 25 26  1  0  0  0
 25 27  1  0  0  0
 27 28  1  0  0  0
 28 29  2  0  0  0
 29 30  1  0  0  0
 30 21  1  0  0  0
 21  1  1  0  0  0
  1  2  2  0  0  0
  1  3  1  0  0  0
  3  5  1  0  0  0
  5  6  2  0  0  0
  6  7  1  0  0  0
  7  8  1  0  0  0
  8  9  2  0  0  0
  8 10  1  0  0  0
 10 11  2  0  0  0
 11 12  1  0  0  0
 12 13  2  0  0  0
 13 14  1  0  0  0
 13 15  1  0  0  0
 15 16  2  0  0  0
 15 17  1  0  0  0
 17 18  1  0  0  0
 17 19  1  0  0  0
 17 20  1  0  0  0
 30 31  1  0  0  0
 31 32  1  0  0  0
 32 33  2  0  0  0
 32 22  1  0  0  0
 31 27  2  0  0  0
  9  5  1  0  0  0
 16 10  1  0  0  0
  3  4  1  0  0  0
M  END
> <minimizedAffinity>
-8.78032

> <CNNscore>
0.3353456259

> <CNNaffinity>
6.5791387558

> <CNN_VS>
2.2062854767

> <CNNaffinity_variance>
0.3476011753

$$$$
[H]c1nc(OC([H])([H])C([H])([H])[H])c(C(F)(F)F)c([H])c1-c1nc(N([H])C(=O)[C@@]([H])(n2c([H])nc3c2c(=O)n(C([H])([H])c2noc(C([H])([H])[H])c2[H])c(=O)n3C([H])([H])[H])C([H])([H])[H])c([H])c([H])c1[H]


 44 48  0  0  0  0  0  0  0  0999 V2000
  154.5583  137.0301  184.2003 N   0  0  0  0  0  0  0  0  0  0  0  0
  153.8977  136.1778  185.0468 C   0  0  0  0  0  0  0  0  0  0  0  0
  154.2503  134.8963  184.8120 O   0  0  0  0  0  0  0  0  0  0  0  0
  155.2376  136.4229  183.5176 H   0  0  0  0  0  0  0  0  0  0  0  0
  155.8109  140.4575  183.7165 C   0  0  0  0  0  0  0  0  0  0  0  0
  154.6901  141.1133  183.2729 C   0  0  0  0  0  0  0  0  0  0  0  0
  153.5394  140.4157  183.1395 C   0  0  0  0  0  0  0  0  0  0  0  0
  153.5120  139.0789  183.4464 C   0  0  0  0  0  0  0  0  0  0  0  0
  154.6583  138.3812  183.9068 C   0  0  0  0  0  0  0  0  0  0  0  0
  155.7400  139.1371  184.0087 N   0  0  0  0  0  0  0  0  0  0  0  0
  159.5635  142.4727  184.2072 C   0  0  0  0  0  0  0  0  0  0  0  0
  159.2622  141.3518  184.8795 N   0  0  0  0  0  0  0  0  0  0  0  0
  158.0721  140.7006  184.7282 C   0  0  0  0  0  0  0  0  0  0  0  0
  157.0920  141.1551  183.8674 C   0  0  0  0  0  0  0  0  0  0  0  0
  157.3837  142.3026  183.1705 C   0  0  0  0  0  0  0  0  0  0  0  0
  158.6024  142.9401  183.3469 C   0  0  0  0  0  0  0  0  0  0  0  0
  158.9051  144.1755  182.5898 C   0  0  0  0  0  0  0  0  0  0  0  0
  159.7216  145.0326  183.3144 F   0  0  0  0  0  0  0  0  0  0  0  0
  159.5298  143.8130  181.4188 F   0  0  0  0  0  0  0  0  0  0  0  0
  157.7473  144.8379  182.2652 F   0  0  0  0  0  0  0  0  0  0  0  0
  160.7672  143.1476  184.3481 O   0  0  0  0  0  0  0  0  0  0  0  0
  161.8078  143.2251  186.5392 C   0  0  0  0  0  0  0  0  0  0  0  0
  161.7405  142.5396  185.1965 C   0  0  0  0  0  0  0  0  0  0  0  0
  152.9216  136.3606  186.1196 C   0  0  0  0  0  0  0  0  0  0  0  0
  151.5166  136.6929  185.6379 C   0  0  0  0  0  0  0  0  0  0  0  0
  153.3566  137.1630  187.2207 N   0  0  0  0  0  0  0  0  0  0  0  0
  153.1048  138.4695  187.4292 C   0  0  0  0  0  0  0  0  0  0  0  0
  153.6675  138.9026  188.5673 N   0  0  0  0  0  0  0  0  0  0  0  0
  154.3064  137.8610  189.1261 C   0  0  0  0  0  0  0  0  0  0  0  0
  155.0265  137.7629  190.2720 N   0  0  0  0  0  0  0  0  0  0  0  0
  155.1948  138.9195  191.1039 C   0  0  0  0  0  0  0  0  0  0  0  0
  155.5600  136.5713  190.5872 C   0  0  0  0  0  0  0  0  0  0  0  0
  156.2451  136.4217  191.6501 O   0  0  0  0  0  0  0  0  0  0  0  0
  155.3947  135.4981  189.8016 N   0  0  0  0  0  0  0  0  0  0  0  0
  154.6797  135.5702  188.6521 C   0  0  0  0  0  0  0  0  0  0  0  0
  154.5434  134.5463  187.9403 O   0  0  0  0  0  0  0  0  0  0  0  0
  154.1120  136.7662  188.2813 C   0  0  0  0  0  0  0  0  0  0  0  0
  155.9902  134.2379  190.1754 C   0  0  0  0  0  0  0  0  0  0  0  0
  157.3969  134.1062  189.7191 C   0  0  0  0  0  0  0  0  0  0  0  0
  158.0020  134.7492  188.6645 C   0  0  0  0  0  0  0  0  0  0  0  0
  159.2989  134.2878  188.6651 C   0  0  0  0  0  0  0  0  0  0  0  0
  160.3729  134.6860  187.7071 C   0  0  0  0  0  0  0  0  0  0  0  0
  159.4106  133.4434  189.6539 O   0  0  0  0  0  0  0  0  0  0  0  0
  158.3075  133.3157  190.2925 N   0  0  0  0  0  0  0  0  0  0  0  0
 22 23  1  0  0  0
 23 21  1  0  0  0
 21 11  1  0  0  0
 11 12  2  0  0  0
 12 13  1  0  0  0
 13 14  2  0  0  0
 14 15  1  0  0  0
 15 16  2  0  0  0
 16 17  1  0  0  0
 17 18  1  0  0  0
 17 19  1  0  0  0
 17 20  1  0  0  0
 14  5  1  0  0  0
  5  6  2  0  0  0
  6  7  1  0  0  0
  7  8  2  0  0  0
  8  9  1  0  0  0
  9  1  1  0  0  0
  1  2  1  0  0  0
  2  3  2  0  0  0
  2 24  1  0  0  0
 24 25  1  0  0  0
 24 26  1  0  0  0
 26 27  1  0  0  0
 27 28  2  0  0  0
 28 29  1  0  0  0
 29 30  1  0  0  0
 30 31  1  0  0  0
 30 32  1  0  0  0
 32 33  2  0  0  0
 32 34  1  0  0  0
 34 38  1  0  0  0
 38 39  1  0  0  0
 39 40  1  0  0  0
 40 41  2  0  0  0
 41 42  1  0  0  0
 41 43  1  0  0  0
 43 44  1  0  0  0
 34 35  1  0  0  0
 35 36  2  0  0  0
 35 37  1  0  0  0
  9 10  2  0  0  0
 16 11  1  0  0  0
 10  5  1  0  0  0
 37 26  1  0  0  0
 37 29  2  0  0  0
 44 39  2  0  0  0
  1  4  1  0  0  0
M  END
> <minimizedAffinity>
-9.04263

> <CNNscore>
0.3905598819

> <CNNaffinity>
7.1909456253

> <CNN_VS>
2.8084948063

> <CNNaffinity_variance>
0.3762096763

$$$$
[H]c1nc(OC([H])([H])C([H])([H])[H])c(C(F)(F)F)c([H])c1-c1nc(N([H])C(=O)[C@@]([H])(n2c([H])nc3c2c(=O)n(C([H])([H])c2noc(C([H])([H])[H])c2[H])c(=O)n3C([H])([H])[H])C([H])([H])[H])c([H])c([H])c1[H]


 44 48  0  0  0  0  0  0  0  0999 V2000
  152.3161  140.3131  180.8589 N   0  0  0  0  0  0  0  0  0  0  0  0
  151.1868  139.7819  180.2915 C   0  0  0  0  0  0  0  0  0  0  0  0
  150.7911  140.5144  179.2292 O   0  0  0  0  0  0  0  0  0  0  0  0
  152.6240  141.2407  180.2750 H   0  0  0  0  0  0  0  0  0  0  0  0
  155.2123  140.4169  183.1286 C   0  0  0  0  0  0  0  0  0  0  0  0
  154.8482  139.5194  184.1006 C   0  0  0  0  0  0  0  0  0  0  0  0
  153.6537  138.8946  183.9932 C   0  0  0  0  0  0  0  0  0  0  0  0
  152.8351  139.1655  182.9263 C   0  0  0  0  0  0  0  0  0  0  0  0
  153.1915  140.0891  181.9101 C   0  0  0  0  0  0  0  0  0  0  0  0
  154.3743  140.6547  182.0918 N   0  0  0  0  0  0  0  0  0  0  0  0
  158.9368  142.5259  183.3824 C   0  0  0  0  0  0  0  0  0  0  0  0
  158.4301  141.8449  184.4210 N   0  0  0  0  0  0  0  0  0  0  0  0
  157.2471  141.1675  184.3499 C   0  0  0  0  0  0  0  0  0  0  0  0
  156.4877  141.1377  183.1965 C   0  0  0  0  0  0  0  0  0  0  0  0
  156.9917  141.8302  182.1223 C   0  0  0  0  0  0  0  0  0  0  0  0
  158.1968  142.5081  182.2273 C   0  0  0  0  0  0  0  0  0  0  0  0
  158.7296  143.2502  181.0626 C   0  0  0  0  0  0  0  0  0  0  0  0
  159.8500  142.6288  180.5289 F   0  0  0  0  0  0  0  0  0  0  0  0
  157.7364  143.3194  180.1132 F   0  0  0  0  0  0  0  0  0  0  0  0
  159.0644  144.5328  181.4202 F   0  0  0  0  0  0  0  0  0  0  0  0
  160.1368  143.2197  183.4364 O   0  0  0  0  0  0  0  0  0  0  0  0
  161.8161  142.7165  185.1146 C   0  0  0  0  0  0  0  0  0  0  0  0
  160.6189  143.5542  184.7373 C   0  0  0  0  0  0  0  0  0  0  0  0
  150.3473  138.6220  180.5861 C   0  0  0  0  0  0  0  0  0  0  0  0
  149.7836  137.9280  179.3545 C   0  0  0  0  0  0  0  0  0  0  0  0
  149.3898  138.8021  181.6332 N   0  0  0  0  0  0  0  0  0  0  0  0
  148.3466  139.6537  181.6486 C   0  0  0  0  0  0  0  0  0  0  0  0
  147.6521  139.5589  182.7923 N   0  0  0  0  0  0  0  0  0  0  0  0
  148.2473  138.6241  183.5522 C   0  0  0  0  0  0  0  0  0  0  0  0
  147.9462  138.1500  184.7875 N   0  0  0  0  0  0  0  0  0  0  0  0
  146.8115  138.6755  185.4906 C   0  0  0  0  0  0  0  0  0  0  0  0
  148.7321  137.1946  185.3104 C   0  0  0  0  0  0  0  0  0  0  0  0
  148.4967  136.7135  186.4656 O   0  0  0  0  0  0  0  0  0  0  0  0
  149.7891  136.7117  184.6427 N   0  0  0  0  0  0  0  0  0  0  0  0
  150.1106  137.1684  183.4075 C   0  0  0  0  0  0  0  0  0  0  0  0
  151.1059  136.6939  182.8095 O   0  0  0  0  0  0  0  0  0  0  0  0
  149.3399  138.1468  182.8252 C   0  0  0  0  0  0  0  0  0  0  0  0
  150.6104  135.6889  185.2444 C   0  0  0  0  0  0  0  0  0  0  0  0
  151.7948  136.2403  185.9496 C   0  0  0  0  0  0  0  0  0  0  0  0
  151.8393  137.3212  186.7990 C   0  0  0  0  0  0  0  0  0  0  0  0
  153.1576  137.4154  187.1840 C   0  0  0  0  0  0  0  0  0  0  0  0
  153.7306  138.4355  188.1117 C   0  0  0  0  0  0  0  0  0  0  0  0
  153.8060  136.4515  186.5892 O   0  0  0  0  0  0  0  0  0  0  0  0
  153.0305  135.7431  185.8559 N   0  0  0  0  0  0  0  0  0  0  0  0
 22 23  1  0  0  0
 23 21  1  0  0  0
 21 11  1  0  0  0
 11 12  2  0  0  0
 12 13  1  0  0  0
 13 14  2  0  0  0
 14 15  1  0  0  0
 15 16  2  0  0  0
 16 17  1  0  0  0
 17 18  1  0  0  0
 17 19  1  0  0  0
 17 20  1  0  0  0
 14  5  1  0  0  0
  5  6  2  0  0  0
  6  7  1  0  0  0
  7  8  2  0  0  0
  8  9  1  0  0  0
  9  1  1  0  0  0
  1  2  1  0  0  0
  2  3  2  0  0  0
  2 24  1  0  0  0
 24 25  1  0  0  0
 24 26  1  0  0  0
 26 27  1  0  0  0
 27 28  2  0  0  0
 28 29  1  0  0  0
 29 30  1  0  0  0
 30 31  1  0  0  0
 30 32  1  0  0  0
 32 33  2  0  0  0
 32 34  1  0  0  0
 34 38  1  0  0  0
 38 39  1  0  0  0
 39 40  1  0  0  0
 40 41  2  0  0  0
 41 42  1  0  0  0
 41 43  1  0  0  0
 43 44  1  0  0  0
 34 35  1  0  0  0
 35 36  2  0  0  0
 35 37  1  0  0  0
  9 10  2  0  0  0
 16 11  1  0  0  0
 10  5  1  0  0  0
 37 26  1  0  0  0
 37 29  2  0  0  0
 44 39  2  0  0  0
  1  4  1  0  0  0
M  END
> <minimizedAffinity>
-8.94219

> <CNNscore>
0.3899609447

> <CNNaffinity>
7.2708296776

> <CNN_VS>
2.8353395462

> <CNNaffinity_variance>
0.2028228343

$$$$
[H]c1nc(OC([H])([H])C([H])([H])[H])c(C(F)(F)F)c([H])c1-c1nc(N([H])C(=O)[C@@]([H])(n2c([H])nc3c2c(=O)n(C([H])([H])c2noc(C([H])([H])[H])c2[H])c(=O)n3C([H])([H])[H])C([H])([H])[H])c([H])c([H])c1[H]


 44 48  0  0  0  0  0  0  0  0999 V2000
  155.3335  136.7197  187.8695 N   0  0  0  0  0  0  0  0  0  0  0  0
  154.9146  136.7073  189.1748 C   0  0  0  0  0  0  0  0  0  0  0  0
  155.2830  135.5630  189.7882 O   0  0  0  0  0  0  0  0  0  0  0  0
  155.8886  135.7506  187.6485 H   0  0  0  0  0  0  0  0  0  0  0  0
  154.3178  138.3574  184.7332 C   0  0  0  0  0  0  0  0  0  0  0  0
  155.3655  139.2132  184.5033 C   0  0  0  0  0  0  0  0  0  0  0  0
  156.3899  139.2377  185.3858 C   0  0  0  0  0  0  0  0  0  0  0  0
  156.3648  138.4158  186.4838 C   0  0  0  0  0  0  0  0  0  0  0  0
  155.2924  137.5233  186.7408 C   0  0  0  0  0  0  0  0  0  0  0  0
  154.3332  137.5627  185.8295 N   0  0  0  0  0  0  0  0  0  0  0  0
  150.9523  138.1253  182.0869 C   0  0  0  0  0  0  0  0  0  0  0  0
  151.0456  137.3690  183.1907 N   0  0  0  0  0  0  0  0  0  0  0  0
  152.1108  137.4373  184.0416 C   0  0  0  0  0  0  0  0  0  0  0  0
  153.1708  138.2953  183.8215 C   0  0  0  0  0  0  0  0  0  0  0  0
  153.0920  139.0777  182.6949 C   0  0  0  0  0  0  0  0  0  0  0  0
  151.9957  138.9841  181.8510 C   0  0  0  0  0  0  0  0  0  0  0  0
  151.9221  139.8329  180.6405 C   0  0  0  0  0  0  0  0  0  0  0  0
  150.7500  140.5754  180.6066 F   0  0  0  0  0  0  0  0  0  0  0  0
  153.0095  140.6757  180.6466 F   0  0  0  0  0  0  0  0  0  0  0  0
  151.9895  139.0622  179.5063 F   0  0  0  0  0  0  0  0  0  0  0  0
  149.8779  138.0691  181.2112 O   0  0  0  0  0  0  0  0  0  0  0  0
  147.9092  139.4227  181.6378 C   0  0  0  0  0  0  0  0  0  0  0  0
  148.5779  138.0795  181.7998 C   0  0  0  0  0  0  0  0  0  0  0  0
  154.1758  137.6465  190.0169 C   0  0  0  0  0  0  0  0  0  0  0  0
  155.0426  138.7050  190.6838 C   0  0  0  0  0  0  0  0  0  0  0  0
  153.2070  137.0621  190.8917 N   0  0  0  0  0  0  0  0  0  0  0  0
  153.2405  137.0219  192.2374 C   0  0  0  0  0  0  0  0  0  0  0  0
  152.1649  136.3951  192.7370 N   0  0  0  0  0  0  0  0  0  0  0  0
  151.4011  136.0112  191.7004 C   0  0  0  0  0  0  0  0  0  0  0  0
  150.2177  135.3484  191.6576 N   0  0  0  0  0  0  0  0  0  0  0  0
  149.5892  134.9415  192.8813 C   0  0  0  0  0  0  0  0  0  0  0  0
  149.6736  135.0966  190.4557 C   0  0  0  0  0  0  0  0  0  0  0  0
  148.5649  134.4781  190.3562 O   0  0  0  0  0  0  0  0  0  0  0  0
  150.2707  135.4828  189.3198 N   0  0  0  0  0  0  0  0  0  0  0  0
  151.4529  136.1463  189.3358 C   0  0  0  0  0  0  0  0  0  0  0  0
  151.9843  136.4946  188.2543 O   0  0  0  0  0  0  0  0  0  0  0  0
  152.0543  136.4297  190.5392 C   0  0  0  0  0  0  0  0  0  0  0  0
  149.6537  135.1866  188.0494 C   0  0  0  0  0  0  0  0  0  0  0  0
  148.8066  136.2972  187.5460 C   0  0  0  0  0  0  0  0  0  0  0  0
  149.0278  137.0899  186.4441 C   0  0  0  0  0  0  0  0  0  0  0  0
  147.9597  137.9576  186.4115 C   0  0  0  0  0  0  0  0  0  0  0  0
  147.7290  139.0285  185.3967 C   0  0  0  0  0  0  0  0  0  0  0  0
  147.1932  137.6688  187.4276 O   0  0  0  0  0  0  0  0  0  0  0  0
  147.6658  136.6958  188.1138 N   0  0  0  0  0  0  0  0  0  0  0  0
 22 23  1  0  0  0
 23 21  1  0  0  0
 21 11  1  0  0  0
 11 12  2  0  0  0
 12 13  1  0  0  0
 13 14  2  0  0  0
 14 15  1  0  0  0
 15 16  2  0  0  0
 16 17  1  0  0  0
 17 18  1  0  0  0
 17 19  1  0  0  0
 17 20  1  0  0  0
 14  5  1  0  0  0
  5  6  2  0  0  0
  6  7  1  0  0  0
  7  8  2  0  0  0
  8  9  1  0  0  0
  9  1  1  0  0  0
  1  2  1  0  0  0
  2  3  2  0  0  0
  2 24  1  0  0  0
 24 25  1  0  0  0
 24 26  1  0  0  0
 26 27  1  0  0  0
 27 28  2  0  0  0
 28 29  1  0  0  0
 29 30  1  0  0  0
 30 31  1  0  0  0
 30 32  1  0  0  0
 32 33  2  0  0  0
 32 34  1  0  0  0
 34 38  1  0  0  0
 38 39  1  0  0  0
 39 40  1  0  0  0
 40 41  2  0  0  0
 41 42  1  0  0  0
 41 43  1  0  0  0
 43 44  1  0  0  0
 34 35  1  0  0  0
 35 36  2  0  0  0
 35 37  1  0  0  0
  9 10  2  0  0  0
 16 11  1  0  0  0
 10  5  1  0  0  0
 37 26  1  0  0  0
 37 29  2  0  0  0
 44 39  2  0  0  0
  1  4  1  0  0  0
M  END
> <minimizedAffinity>
-7.86347

> <CNNscore>
0.3866893649

> <CNNaffinity>
6.6675033569

> <CNN_VS>
2.5782525539

> <CNNaffinity_variance>
0.4273734987

$$$$
[H]c1nc(OC([H])([H])C([H])([H])[H])c(C(F)(F)F)c([H])c1-c1nc(N([H])C(=O)[C@@]([H])(n2c([H])nc3c2c(=O)n(C([H])([H])c2noc(C([H])([H])[H])c2[H])c(=O)n3C([H])([H])[H])C([H])([H])[H])c([H])c([H])c1[H]


 44 48  0  0  0  0  0  0  0  0999 V2000
  155.8128  137.0449  187.6762 N   0  0  0  0  0  0  0  0  0  0  0  0
  155.3456  136.9444  188.9612 C   0  0  0  0  0  0  0  0  0  0  0  0
  155.8974  135.8873  189.5932 O   0  0  0  0  0  0  0  0  0  0  0  0
  156.5517  136.2007  187.4827 H   0  0  0  0  0  0  0  0  0  0  0  0
  154.5423  138.6034  184.5929 C   0  0  0  0  0  0  0  0  0  0  0  0
  155.5373  139.4993  184.2924 C   0  0  0  0  0  0  0  0  0  0  0  0
  156.6109  139.5763  185.1110 C   0  0  0  0  0  0  0  0  0  0  0  0
  156.6866  138.7665  186.2158 C   0  0  0  0  0  0  0  0  0  0  0  0
  155.6700  137.8332  186.5450 C   0  0  0  0  0  0  0  0  0  0  0  0
  154.6570  137.8224  185.6932 N   0  0  0  0  0  0  0  0  0  0  0  0
  151.0353  138.2027  182.1589 C   0  0  0  0  0  0  0  0  0  0  0  0
  151.2059  137.4964  183.2863 N   0  0  0  0  0  0  0  0  0  0  0  0
  152.3168  137.6187  184.0702 C   0  0  0  0  0  0  0  0  0  0  0  0
  153.3462  138.4834  183.7528 C   0  0  0  0  0  0  0  0  0  0  0  0
  153.1882  139.2151  182.6008 C   0  0  0  0  0  0  0  0  0  0  0  0
  152.0472  139.0674  181.8267 C   0  0  0  0  0  0  0  0  0  0  0  0
  151.8884  139.8618  180.5878 C   0  0  0  0  0  0  0  0  0  0  0  0
  150.7226  140.6147  180.6087 F   0  0  0  0  0  0  0  0  0  0  0  0
  152.9793  140.6922  180.4736 F   0  0  0  0  0  0  0  0  0  0  0  0
  151.8639  139.0403  179.4881 F   0  0  0  0  0  0  0  0  0  0  0  0
  149.9136  138.0914  181.3504 O   0  0  0  0  0  0  0  0  0  0  0  0
  147.7504  139.1701  181.1334 C   0  0  0  0  0  0  0  0  0  0  0  0
  148.6520  138.3068  181.9816 C   0  0  0  0  0  0  0  0  0  0  0  0
  154.4042  137.7202  189.7668 C   0  0  0  0  0  0  0  0  0  0  0  0
  155.0616  138.7087  190.7193 C   0  0  0  0  0  0  0  0  0  0  0  0
  153.3366  136.9749  190.3585 N   0  0  0  0  0  0  0  0  0  0  0  0
  153.2242  136.5890  191.6439 C   0  0  0  0  0  0  0  0  0  0  0  0
  152.0900  135.9039  191.8535 N   0  0  0  0  0  0  0  0  0  0  0  0
  151.4357  135.8340  190.6820 C   0  0  0  0  0  0  0  0  0  0  0  0
  150.2523  135.2585  190.3507 N   0  0  0  0  0  0  0  0  0  0  0  0
  149.4886  134.5795  191.3575 C   0  0  0  0  0  0  0  0  0  0  0  0
  149.8365  135.3485  189.0767 C   0  0  0  0  0  0  0  0  0  0  0  0
  148.7344  134.8270  188.7099 O   0  0  0  0  0  0  0  0  0  0  0  0
  150.5594  135.9863  188.1457 N   0  0  0  0  0  0  0  0  0  0  0  0
  151.7445  136.5695  188.4514 C   0  0  0  0  0  0  0  0  0  0  0  0
  152.3954  137.1596  187.5562 O   0  0  0  0  0  0  0  0  0  0  0  0
  152.2176  136.5069  189.7407 C   0  0  0  0  0  0  0  0  0  0  0  0
  150.0778  136.0545  186.7871 C   0  0  0  0  0  0  0  0  0  0  0  0
  150.4358  134.8562  185.9869 C   0  0  0  0  0  0  0  0  0  0  0  0
  149.6849  134.2413  185.0124 C   0  0  0  0  0  0  0  0  0  0  0  0
  150.4582  133.1874  184.5812 C   0  0  0  0  0  0  0  0  0  0  0  0
  150.0883  132.2029  183.5211 C   0  0  0  0  0  0  0  0  0  0  0  0
  151.5670  133.2119  185.2691 O   0  0  0  0  0  0  0  0  0  0  0  0
  151.5828  134.1829  186.1044 N   0  0  0  0  0  0  0  0  0  0  0  0
 22 23  1  0  0  0
 23 21  1  0  0  0
 21 11  1  0  0  0
 11 12  2  0  0  0
 12 13  1  0  0  0
 13 14  2  0  0  0
 14 15  1  0  0  0
 15 16  2  0  0  0
 16 17  1  0  0  0
 17 18  1  0  0  0
 17 19  1  0  0  0
 17 20  1  0  0  0
 14  5  1  0  0  0
  5  6  2  0  0  0
  6  7  1  0  0  0
  7  8  2  0  0  0
  8  9  1  0  0  0
  9  1  1  0  0  0
  1  2  1  0  0  0
  2  3  2  0  0  0
  2 24  1  0  0  0
 24 25  1  0  0  0
 24 26  1  0  0  0
 26 27  1  0  0  0
 27 28  2  0  0  0
 28 29  1  0  0  0
 29 30  1  0  0  0
 30 31  1  0  0  0
 30 32  1  0  0  0
 32 33  2  0  0  0
 32 34  1  0  0  0
 34 38  1  0  0  0
 38 39  1  0  0  0
 39 40  1  0  0  0
 40 41  2  0  0  0
 41 42  1  0  0  0
 41 43  1  0  0  0
 43 44  1  0  0  0
 34 35  1  0  0  0
 35 36  2  0  0  0
 35 37  1  0  0  0
  9 10  2  0  0  0
 16 11  1  0  0  0
 10  5  1  0  0  0
 37 26  1  0  0  0
 37 29  2  0  0  0
 44 39  2  0  0  0
  1  4  1  0  0  0
M  END
> <minimizedAffinity>
-6.50756

> <CNNscore>
0.3116141558

> <CNNaffinity>
6.5599737167

> <CNN_VS>
2.0441806316

> <CNNaffinity_variance>
0.2981393635

$$$$
[H]c1nc(OC([H])([H])C([H])([H])[H])c(C(F)(F)F)c([H])c1-c1nc(N([H])C(=O)[C@@]([H])(n2c([H])nc3c2c(=O)n(C([H])([H])c2noc(C([H])([H])[H])c2[H])c(=O)n3C([H])([H])[H])C([H])([H])[H])c([H])c([H])c1[H]


 44 48  0  0  0  0  0  0  0  0999 V2000
  152.3884  138.2172  182.6735 N   0  0  0  0  0  0  0  0  0  0  0  0
  153.2918  139.2293  182.4757 C   0  0  0  0  0  0  0  0  0  0  0  0
  153.1160  139.8026  181.2666 O   0  0  0  0  0  0  0  0  0  0  0  0
  151.7216  138.1299  181.7549 H   0  0  0  0  0  0  0  0  0  0  0  0
  151.9447  136.3658  185.8239 C   0  0  0  0  0  0  0  0  0  0  0  0
  151.2442  135.2603  185.4116 C   0  0  0  0  0  0  0  0  0  0  0  0
  150.9284  135.1427  184.1020 C   0  0  0  0  0  0  0  0  0  0  0  0
  151.3095  136.1195  183.2174 C   0  0  0  0  0  0  0  0  0  0  0  0
  152.0342  137.2702  183.6217 C   0  0  0  0  0  0  0  0  0  0  0  0
  152.3016  137.3064  184.9176 N   0  0  0  0  0  0  0  0  0  0  0  0
  152.9412  136.9213  189.9571 C   0  0  0  0  0  0  0  0  0  0  0  0
  151.8268  136.2821  189.5714 N   0  0  0  0  0  0  0  0  0  0  0  0
  151.5018  136.0969  188.2585 C   0  0  0  0  0  0  0  0  0  0  0  0
  152.3037  136.5583  187.2328 C   0  0  0  0  0  0  0  0  0  0  0  0
  153.4496  137.2158  187.6097 C   0  0  0  0  0  0  0  0  0  0  0  0
  153.7509  137.3871  188.9524 C   0  0  0  0  0  0  0  0  0  0  0  0
  154.9890  138.0968  189.3458 C   0  0  0  0  0  0  0  0  0  0  0  0
  155.8199  137.2903  190.1110 F   0  0  0  0  0  0  0  0  0  0  0  0
  155.6402  138.4825  188.1970 F   0  0  0  0  0  0  0  0  0  0  0  0
  154.6889  139.2283  190.0632 F   0  0  0  0  0  0  0  0  0  0  0  0
  153.2873  137.1187  191.2858 O   0  0  0  0  0  0  0  0  0  0  0  0
  151.9436  137.2159  193.3044 C   0  0  0  0  0  0  0  0  0  0  0  0
  152.5764  136.3421  192.2492 C   0  0  0  0  0  0  0  0  0  0  0  0
  154.3724  139.8017  183.2768 C   0  0  0  0  0  0  0  0  0  0  0  0
  154.2426  139.5526  184.7726 C   0  0  0  0  0  0  0  0  0  0  0  0
  154.7421  141.1434  182.9473 N   0  0  0  0  0  0  0  0  0  0  0  0
  153.9223  142.1567  182.6081 C   0  0  0  0  0  0  0  0  0  0  0  0
  154.6087  143.2830  182.3638 N   0  0  0  0  0  0  0  0  0  0  0  0
  155.9120  143.0112  182.5449 C   0  0  0  0  0  0  0  0  0  0  0  0
  157.0143  143.7941  182.4278 N   0  0  0  0  0  0  0  0  0  0  0  0
  156.8687  145.1698  182.0478 C   0  0  0  0  0  0  0  0  0  0  0  0
  158.2139  143.2436  182.6761 C   0  0  0  0  0  0  0  0  0  0  0  0
  159.2815  143.9312  182.5814 O   0  0  0  0  0  0  0  0  0  0  0  0
  158.3361  141.9570  183.0310 N   0  0  0  0  0  0  0  0  0  0  0  0
  157.2507  141.1544  183.1550 C   0  0  0  0  0  0  0  0  0  0  0  0
  157.4002  139.9550  183.4902 O   0  0  0  0  0  0  0  0  0  0  0  0
  155.9982  141.6667  182.9121 C   0  0  0  0  0  0  0  0  0  0  0  0
  159.6452  141.4046  183.2831 C   0  0  0  0  0  0  0  0  0  0  0  0
  160.1997  141.8109  184.5991 C   0  0  0  0  0  0  0  0  0  0  0  0
  161.4859  142.2068  184.8831 C   0  0  0  0  0  0  0  0  0  0  0  0
  161.4841  142.4757  186.2331 C   0  0  0  0  0  0  0  0  0  0  0  0
  162.6522  142.9444  187.0365 C   0  0  0  0  0  0  0  0  0  0  0  0
  160.2775  142.2452  186.6736 O   0  0  0  0  0  0  0  0  0  0  0  0
  159.4992  141.8526  185.7350 N   0  0  0  0  0  0  0  0  0  0  0  0
 22 23  1  0  0  0
 23 21  1  0  0  0
 21 11  1  0  0  0
 11 12  2  0  0  0
 12 13  1  0  0  0
 13 14  2  0  0  0
 14 15  1  0  0  0
 15 16  2  0  0  0
 16 17  1  0  0  0
 17 18  1  0  0  0
 17 19  1  0  0  0
 17 20  1  0  0  0
 14  5  1  0  0  0
  5  6  2  0  0  0
  6  7  1  0  0  0
  7  8  2  0  0  0
  8  9  1  0  0  0
  9  1  1  0  0  0
  1  2  1  0  0  0
  2  3  2  0  0  0
  2 24  1  0  0  0
 24 25  1  0  0  0
 24 26  1  0  0  0
 26 27  1  0  0  0
 27 28  2  0  0  0
 28 29  1  0  0  0
 29 30  1  0  0  0
 30 31  1  0  0  0
 30 32  1  0  0  0
 32 33  2  0  0  0
 32 34  1  0  0  0
 34 38  1  0  0  0
 38 39  1  0  0  0
 39 40  1  0  0  0
 40 41  2  0  0  0
 41 42  1  0  0  0
 41 43  1  0  0  0
 43 44  1  0  0  0
 34 35  1  0  0  0
 35 36  2  0  0  0
 35 37  1  0  0  0
  9 10  2  0  0  0
 16 11  1  0  0  0
 10  5  1  0  0  0
 37 26  1  0  0  0
 37 29  2  0  0  0
 44 39  2  0  0  0
  1  4  1  0  0  0
M  END
> <minimizedAffinity>
-9.65135

> <CNNscore>
0.3099885285

> <CNNaffinity>
7.1521329880

> <CNN_VS>
2.2170791626

> <CNNaffinity_variance>
0.3318870366

$$$$
[H]c1nc(OC([H])([H])C([H])([H])[H])c(C(F)(F)F)c([H])c1-c1nc(N([H])C(=O)[C@@]([H])(n2c([H])nc3c2c(=O)n(C([H])([H])c2noc(C([H])([H])[H])c2[H])c(=O)n3C([H])([H])[H])C([H])([H])[H])c([H])c([H])c1[H]


 44 48  0  0  0  0  0  0  0  0999 V2000
  155.1323  139.1729  184.7997 N   0  0  0  0  0  0  0  0  0  0  0  0
  155.0848  138.4084  185.9366 C   0  0  0  0  0  0  0  0  0  0  0  0
  156.2795  138.4037  186.5643 O   0  0  0  0  0  0  0  0  0  0  0  0
  156.1789  139.6067  184.6873 H   0  0  0  0  0  0  0  0  0  0  0  0
  152.5703  139.3042  182.1598 C   0  0  0  0  0  0  0  0  0  0  0  0
  152.7796  140.5472  181.6175 C   0  0  0  0  0  0  0  0  0  0  0  0
  153.7612  141.3228  182.1307 C   0  0  0  0  0  0  0  0  0  0  0  0
  154.5229  140.8593  183.1733 C   0  0  0  0  0  0  0  0  0  0  0  0
  154.3241  139.5779  183.7488 C   0  0  0  0  0  0  0  0  0  0  0  0
  153.3453  138.8853  183.1882 N   0  0  0  0  0  0  0  0  0  0  0  0
  149.5022  136.6821  180.7120 C   0  0  0  0  0  0  0  0  0  0  0  0
  150.3187  136.3377  181.7189 N   0  0  0  0  0  0  0  0  0  0  0  0
  151.2963  137.1660  182.1897 C   0  0  0  0  0  0  0  0  0  0  0  0
  151.5117  138.4222  181.6573 C   0  0  0  0  0  0  0  0  0  0  0  0
  150.6843  138.7917  180.6246 C   0  0  0  0  0  0  0  0  0  0  0  0
  149.7006  137.9266  180.1699 C   0  0  0  0  0  0  0  0  0  0  0  0
  148.8150  138.3364  179.0568 C   0  0  0  0  0  0  0  0  0  0  0  0
  148.4588  137.2559  178.2619 F   0  0  0  0  0  0  0  0  0  0  0  0
  147.6881  138.9089  179.6001 F   0  0  0  0  0  0  0  0  0  0  0  0
  149.4322  139.2781  178.2712 F   0  0  0  0  0  0  0  0  0  0  0  0
  148.5039  135.8537  180.2209 O   0  0  0  0  0  0  0  0  0  0  0  0
  147.4921  133.6604  179.9852 C   0  0  0  0  0  0  0  0  0  0  0  0
  148.7292  134.4494  180.3381 C   0  0  0  0  0  0  0  0  0  0  0  0
  154.0418  137.6219  186.5929 C   0  0  0  0  0  0  0  0  0  0  0  0
  154.3077  137.3324  188.0632 C   0  0  0  0  0  0  0  0  0  0  0  0
  153.5693  136.4882  185.8601 N   0  0  0  0  0  0  0  0  0  0  0  0
  154.3035  135.6116  185.1486 C   0  0  0  0  0  0  0  0  0  0  0  0
  153.5335  134.6665  184.5888 N   0  0  0  0  0  0  0  0  0  0  0  0
  152.2609  134.9216  184.9363 C   0  0  0  0  0  0  0  0  0  0  0  0
  151.1051  134.2760  184.6384 N   0  0  0  0  0  0  0  0  0  0  0  0
  151.1414  133.1036  183.8124 C   0  0  0  0  0  0  0  0  0  0  0  0
  149.9574  134.7658  185.1352 C   0  0  0  0  0  0  0  0  0  0  0  0
  148.8435  134.2006  184.8877 O   0  0  0  0  0  0  0  0  0  0  0  0
  149.9373  135.8618  185.9063 N   0  0  0  0  0  0  0  0  0  0  0  0
  151.0780  136.5244  186.2185 C   0  0  0  0  0  0  0  0  0  0  0  0
  151.0239  137.5464  186.9437 O   0  0  0  0  0  0  0  0  0  0  0  0
  152.2811  136.0663  185.7359 C   0  0  0  0  0  0  0  0  0  0  0  0
  148.6808  136.3572  186.4147 C   0  0  0  0  0  0  0  0  0  0  0  0
  148.1552  137.5060  185.6348 C   0  0  0  0  0  0  0  0  0  0  0  0
  148.3517  137.7763  184.3006 C   0  0  0  0  0  0  0  0  0  0  0  0
  147.6585  138.9429  184.0694 C   0  0  0  0  0  0  0  0  0  0  0  0
  147.5568  139.6597  182.7635 C   0  0  0  0  0  0  0  0  0  0  0  0
  147.1115  139.3003  185.1992 O   0  0  0  0  0  0  0  0  0  0  0  0
  147.3861  138.4741  186.1388 N   0  0  0  0  0  0  0  0  0  0  0  0
 22 23  1  0  0  0
 23 21  1  0  0  0
 21 11  1  0  0  0
 11 12  2  0  0  0
 12 13  1  0  0  0
 13 14  2  0  0  0
 14 15  1  0  0  0
 15 16  2  0  0  0
 16 17  1  0  0  0
 17 18  1  0  0  0
 17 19  1  0  0  0
 17 20  1  0  0  0
 14  5  1  0  0  0
  5  6  2  0  0  0
  6  7  1  0  0  0
  7  8  2  0  0  0
  8  9  1  0  0  0
  9  1  1  0  0  0
  1  2  1  0  0  0
  2  3  2  0  0  0
  2 24  1  0  0  0
 24 25  1  0  0  0
 24 26  1  0  0  0
 26 27  1  0  0  0
 27 28  2  0  0  0
 28 29  1  0  0  0
 29 30  1  0  0  0
 30 31  1  0  0  0
 30 32  1  0  0  0
 32 33  2  0  0  0
 32 34  1  0  0  0
 34 38  1  0  0  0
 38 39  1  0  0  0
 39 40  1  0  0  0
 40 41  2  0  0  0
 41 42  1  0  0  0
 41 43  1  0  0  0
 43 44  1  0  0  0
 34 35  1  0  0  0
 35 36  2  0  0  0
 35 37  1  0  0  0
  9 10  2  0  0  0
 16 11  1  0  0  0
 10  5  1  0  0  0
 37 26  1  0  0  0
 37 29  2  0  0  0
 44 39  2  0  0  0
  1  4  1  0  0  0
M  END
> <minimizedAffinity>
-6.80414

> <CNNscore>
0.3020056784

> <CNNaffinity>
6.4030165672

> <CNN_VS>
1.9337474108

> <CNNaffinity_variance>
0.5647473335

$$$$
[H]c1nc(OC([H])([H])C([H])([H])[H])c(C(F)(F)F)c([H])c1-c1nc(N([H])C(=O)[C@@]([H])(n2c([H])nc3c2c(=O)n(C([H])([H])c2noc(C([H])([H])[H])c2[H])c(=O)n3C([H])([H])[H])C([H])([H])[H])c([H])c([H])c1[H]


 44 48  0  0  0  0  0  0  0  0999 V2000
  154.9479  136.0990  187.6998 N   0  0  0  0  0  0  0  0  0  0  0  0
  154.7560  136.3465  189.0345 C   0  0  0  0  0  0  0  0  0  0  0  0
  155.3455  135.3965  189.7904 O   0  0  0  0  0  0  0  0  0  0  0  0
  155.5621  135.1475  187.5832 H   0  0  0  0  0  0  0  0  0  0  0  0
  154.7198  138.2738  184.7388 C   0  0  0  0  0  0  0  0  0  0  0  0
  153.8898  137.5541  183.9166 C   0  0  0  0  0  0  0  0  0  0  0  0
  153.4189  136.3630  184.3505 C   0  0  0  0  0  0  0  0  0  0  0  0
  153.7748  135.8994  185.5916 C   0  0  0  0  0  0  0  0  0  0  0  0
  154.6310  136.6269  186.4579 C   0  0  0  0  0  0  0  0  0  0  0  0
  155.0458  137.7795  185.9566 N   0  0  0  0  0  0  0  0  0  0  0  0
  156.3874  142.0392  183.5449 C   0  0  0  0  0  0  0  0  0  0  0  0
  157.1438  141.0492  184.0419 N   0  0  0  0  0  0  0  0  0  0  0  0
  156.6236  139.8456  184.4219 C   0  0  0  0  0  0  0  0  0  0  0  0
  155.2751  139.5648  184.3194 C   0  0  0  0  0  0  0  0  0  0  0  0
  154.4850  140.5679  183.8123 C   0  0  0  0  0  0  0  0  0  0  0  0
  155.0449  141.7792  183.4353 C   0  0  0  0  0  0  0  0  0  0  0  0
  154.1832  142.8521  182.8897 C   0  0  0  0  0  0  0  0  0  0  0  0
  153.0747  142.3344  182.2342 F   0  0  0  0  0  0  0  0  0  0  0  0
  153.7782  143.6453  183.9382 F   0  0  0  0  0  0  0  0  0  0  0  0
  154.8885  143.6373  182.0118 F   0  0  0  0  0  0  0  0  0  0  0  0
  156.8985  143.2681  183.1539 O   0  0  0  0  0  0  0  0  0  0  0  0
  158.0808  143.2505  181.0345 C   0  0  0  0  0  0  0  0  0  0  0  0
  158.1867  143.2537  182.5399 C   0  0  0  0  0  0  0  0  0  0  0  0
  154.0684  137.3936  189.7881 C   0  0  0  0  0  0  0  0  0  0  0  0
  154.9703  138.5314  190.2446 C   0  0  0  0  0  0  0  0  0  0  0  0
  153.1643  136.9363  190.7975 N   0  0  0  0  0  0  0  0  0  0  0  0
  153.3171  137.0263  192.1325 C   0  0  0  0  0  0  0  0  0  0  0  0
  152.2716  136.4945  192.7835 N   0  0  0  0  0  0  0  0  0  0  0  0
  151.4064  136.0419  191.8604 C   0  0  0  0  0  0  0  0  0  0  0  0
  150.2040  135.4258  191.9866 N   0  0  0  0  0  0  0  0  0  0  0  0
  149.6755  135.1655  193.2946 C   0  0  0  0  0  0  0  0  0  0  0  0
  149.5468  135.0797  190.8676 C   0  0  0  0  0  0  0  0  0  0  0  0
  148.4151  134.4991  190.9267 O   0  0  0  0  0  0  0  0  0  0  0  0
  150.0514  135.3292  189.6514 N   0  0  0  0  0  0  0  0  0  0  0  0
  151.2502  135.9436  189.4986 C   0  0  0  0  0  0  0  0  0  0  0  0
  151.6930  136.1633  188.3458 O   0  0  0  0  0  0  0  0  0  0  0  0
  151.9656  136.3189  190.6111 C   0  0  0  0  0  0  0  0  0  0  0  0
  149.3141  134.9352  188.4751 C   0  0  0  0  0  0  0  0  0  0  0  0
  148.5479  136.0549  187.8720 C   0  0  0  0  0  0  0  0  0  0  0  0
  148.7507  136.6488  186.6482 C   0  0  0  0  0  0  0  0  0  0  0  0
  147.7829  137.6239  186.5627 C   0  0  0  0  0  0  0  0  0  0  0  0
  147.5759  138.5575  185.4158 C   0  0  0  0  0  0  0  0  0  0  0  0
  147.0862  137.5777  187.6653 O   0  0  0  0  0  0  0  0  0  0  0  0
  147.5129  136.6642  188.4554 N   0  0  0  0  0  0  0  0  0  0  0  0
 22 23  1  0  0  0
 23 21  1  0  0  0
 21 11  1  0  0  0
 11 12  2  0  0  0
 12 13  1  0  0  0
 13 14  2  0  0  0
 14 15  1  0  0  0
 15 16  2  0  0  0
 16 17  1  0  0  0
 17 18  1  0  0  0
 17 19  1  0  0  0
 17 20  1  0  0  0
 14  5  1  0  0  0
  5  6  2  0  0  0
  6  7  1  0  0  0
  7  8  2  0  0  0
  8  9  1  0  0  0
  9  1  1  0  0  0
  1  2  1  0  0  0
  2  3  2  0  0  0
  2 24  1  0  0  0
 24 25  1  0  0  0
 24 26  1  0  0  0
 26 27  1  0  0  0
 27 28  2  0  0  0
 28 29  1  0  0  0
 29 30  1  0  0  0
 30 31  1  0  0  0
 30 32  1  0  0  0
 32 33  2  0  0  0
 32 34  1  0  0  0
 34 38  1  0  0  0
 38 39  1  0  0  0
 39 40  1  0  0  0
 40 41  2  0  0  0
 41 42  1  0  0  0
 41 43  1  0  0  0
 43 44  1  0  0  0
 34 35  1  0  0  0
 35 36  2  0  0  0
 35 37  1  0  0  0
  9 10  2  0  0  0
 16 11  1  0  0  0
 10  5  1  0  0  0
 37 26  1  0  0  0
 37 29  2  0  0  0
 44 39  2  0  0  0
  1  4  1  0  0  0
M  END
> <minimizedAffinity>
-8.73096

> <CNNscore>
0.2569185793

> <CNNaffinity>
6.7428178787

> <CNN_VS>
1.7323552370

> <CNNaffinity_variance>
0.2501153350

$$$$
[H]c1nc(OC([H])([H])C([H])([H])[H])c(C(F)(F)F)c([H])c1-c1nc(N([H])C(=O)[C@@]([H])(n2c([H])nc3c2c(=O)n(C([H])([H])c2noc(C([H])([H])[H])c2[H])c(=O)n3C([H])([H])[H])C([H])([H])[H])c([H])c([H])c1[H]


 44 48  0  0  0  0  0  0  0  0999 V2000
  153.2239  136.6548  184.1703 N   0  0  0  0  0  0  0  0  0  0  0  0
  152.5892  136.0578  185.2286 C   0  0  0  0  0  0  0  0  0  0  0  0
  152.6916  134.7140  185.1562 O   0  0  0  0  0  0  0  0  0  0  0  0
  153.6752  135.8486  183.5051 H   0  0  0  0  0  0  0  0  0  0  0  0
  154.8115  139.8619  183.3077 C   0  0  0  0  0  0  0  0  0  0  0  0
  153.8520  140.4573  182.5280 C   0  0  0  0  0  0  0  0  0  0  0  0
  152.6973  139.7922  182.2982 C   0  0  0  0  0  0  0  0  0  0  0  0
  152.5064  138.5474  182.8422 C   0  0  0  0  0  0  0  0  0  0  0  0
  153.4843  137.9135  183.6513 C   0  0  0  0  0  0  0  0  0  0  0  0
  154.5823  138.6320  183.8257 N   0  0  0  0  0  0  0  0  0  0  0  0
  158.5458  141.7885  184.1605 C   0  0  0  0  0  0  0  0  0  0  0  0
  158.0262  140.8508  184.9667 N   0  0  0  0  0  0  0  0  0  0  0  0
  156.8399  140.2289  184.7029 C   0  0  0  0  0  0  0  0  0  0  0  0
  156.0905  140.5255  183.5811 C   0  0  0  0  0  0  0  0  0  0  0  0
  156.6078  141.4842  182.7439 C   0  0  0  0  0  0  0  0  0  0  0  0
  157.8159  142.0969  183.0407 C   0  0  0  0  0  0  0  0  0  0  0  0
  158.3631  143.1280  182.1305 C   0  0  0  0  0  0  0  0  0  0  0  0
  159.4713  142.6621  181.4368 F   0  0  0  0  0  0  0  0  0  0  0  0
  157.3716  143.4814  181.2447 F   0  0  0  0  0  0  0  0  0  0  0  0
  158.7227  144.2506  182.8343 F   0  0  0  0  0  0  0  0  0  0  0  0
  159.7493  142.4307  184.4126 O   0  0  0  0  0  0  0  0  0  0  0  0
  161.6058  142.9913  185.8716 C   0  0  0  0  0  0  0  0  0  0  0  0
  160.2500  142.3405  185.7459 C   0  0  0  0  0  0  0  0  0  0  0  0
  151.8480  136.5569  186.3856 C   0  0  0  0  0  0  0  0  0  0  0  0
  150.5750  137.3138  186.0348 C   0  0  0  0  0  0  0  0  0  0  0  0
  152.6350  137.1930  187.3963 N   0  0  0  0  0  0  0  0  0  0  0  0
  153.2819  138.3708  187.3072 C   0  0  0  0  0  0  0  0  0  0  0  0
  153.9234  138.6664  188.4477 N   0  0  0  0  0  0  0  0  0  0  0  0
  153.6970  137.6630  189.3123 C   0  0  0  0  0  0  0  0  0  0  0  0
  154.1117  137.4719  190.5901 N   0  0  0  0  0  0  0  0  0  0  0  0
  154.9429  138.4572  191.2198 C   0  0  0  0  0  0  0  0  0  0  0  0
  153.7223  136.3537  191.2241 C   0  0  0  0  0  0  0  0  0  0  0  0
  154.0817  136.1228  192.4236 O   0  0  0  0  0  0  0  0  0  0  0  0
  152.9449  135.4413  190.6246 N   0  0  0  0  0  0  0  0  0  0  0  0
  152.5174  135.6089  189.3491 C   0  0  0  0  0  0  0  0  0  0  0  0
  151.7898  134.7360  188.8182 O   0  0  0  0  0  0  0  0  0  0  0  0
  152.8870  136.7357  188.6534 C   0  0  0  0  0  0  0  0  0  0  0  0
  152.5544  134.2509  191.3410 C   0  0  0  0  0  0  0  0  0  0  0  0
  151.1828  134.3389  191.9024 C   0  0  0  0  0  0  0  0  0  0  0  0
  150.2042  133.3726  191.8854 C   0  0  0  0  0  0  0  0  0  0  0  0
  149.1311  133.9435  192.5314 C   0  0  0  0  0  0  0  0  0  0  0  0
  147.8083  133.2958  192.7773 C   0  0  0  0  0  0  0  0  0  0  0  0
  149.4866  135.1482  192.8855 O   0  0  0  0  0  0  0  0  0  0  0  0
  150.6889  135.4096  192.5289 N   0  0  0  0  0  0  0  0  0  0  0  0
 22 23  1  0  0  0
 23 21  1  0  0  0
 21 11  1  0  0  0
 11 12  2  0  0  0
 12 13  1  0  0  0
 13 14  2  0  0  0
 14 15  1  0  0  0
 15 16  2  0  0  0
 16 17  1  0  0  0
 17 18  1  0  0  0
 17 19  1  0  0  0
 17 20  1  0  0  0
 14  5  1  0  0  0
  5  6  2  0  0  0
  6  7  1  0  0  0
  7  8  2  0  0  0
  8  9  1  0  0  0
  9  1  1  0  0  0
  1  2  1  0  0  0
  2  3  2  0  0  0
  2 24  1  0  0  0
 24 25  1  0  0  0
 24 26  1  0  0  0
 26 27  1  0  0  0
 27 28  2  0  0  0
 28 29  1  0  0  0
 29 30  1  0  0  0
 30 31  1  0  0  0
 30 32  1  0  0  0
 32 33  2  0  0  0
 32 34  1  0  0  0
 34 38  1  0  0  0
 38 39  1  0  0  0
 39 40  1  0  0  0
 40 41  2  0  0  0
 41 42  1  0  0  0
 41 43  1  0  0  0
 43 44  1  0  0  0
 34 35  1  0  0  0
 35 36  2  0  0  0
 35 37  1  0  0  0
  9 10  2  0  0  0
 16 11  1  0  0  0
 10  5  1  0  0  0
 37 26  1  0  0  0
 37 29  2  0  0  0
 44 39  2  0  0  0
  1  4  1  0  0  0
M  END
> <minimizedAffinity>
-8.44317

> <CNNscore>
0.2293679565

> <CNNaffinity>
6.7220368385

> <CNN_VS>
1.5418198109

> <CNNaffinity_variance>
0.1766207963

$$$$
[H]c1nc(OC([H])([H])C([H])([H])[H])c(C(F)(F)F)c([H])c1-c1nc(N([H])C(=O)[C@@]([H])(n2c([H])nc3c2c(=O)n(C([H])([H])c2noc(C([H])([H])[H])c2[H])c(=O)n3C([H])([H])[H])C([H])([H])[H])c([H])c([H])c1[H]


 44 48  0  0  0  0  0  0  0  0999 V2000
  155.2631  139.1621  184.9194 N   0  0  0  0  0  0  0  0  0  0  0  0
  155.2057  138.3629  186.0318 C   0  0  0  0  0  0  0  0  0  0  0  0
  156.3838  138.3683  186.6902 O   0  0  0  0  0  0  0  0  0  0  0  0
  156.3010  139.6243  184.8474 H   0  0  0  0  0  0  0  0  0  0  0  0
  152.6573  139.3841  182.3290 C   0  0  0  0  0  0  0  0  0  0  0  0
  152.9769  140.5608  181.6996 C   0  0  0  0  0  0  0  0  0  0  0  0
  154.0457  141.2630  182.1392 C   0  0  0  0  0  0  0  0  0  0  0  0
  154.7843  140.7925  183.1952 C   0  0  0  0  0  0  0  0  0  0  0  0
  154.4721  139.5788  183.8600 C   0  0  0  0  0  0  0  0  0  0  0  0
  153.4133  138.9557  183.3675 N   0  0  0  0  0  0  0  0  0  0  0  0
  149.3126  137.0111  181.0776 C   0  0  0  0  0  0  0  0  0  0  0  0
  150.5438  136.4955  181.2096 N   0  0  0  0  0  0  0  0  0  0  0  0
  151.6147  137.2411  181.6104 C   0  0  0  0  0  0  0  0  0  0  0  0
  151.5014  138.5851  181.9088 C   0  0  0  0  0  0  0  0  0  0  0  0
  150.2470  139.1301  181.7789 C   0  0  0  0  0  0  0  0  0  0  0  0
  149.1799  138.3449  181.3696 C   0  0  0  0  0  0  0  0  0  0  0  0
  147.8329  138.9437  181.2340 C   0  0  0  0  0  0  0  0  0  0  0  0
  147.2879  138.6988  179.9812 F   0  0  0  0  0  0  0  0  0  0  0  0
  147.0275  138.4012  182.2085 F   0  0  0  0  0  0  0  0  0  0  0  0
  147.8861  140.3008  181.4348 F   0  0  0  0  0  0  0  0  0  0  0  0
  148.2133  136.2688  180.6717 O   0  0  0  0  0  0  0  0  0  0  0  0
  148.6376  134.2680  179.3654 C   0  0  0  0  0  0  0  0  0  0  0  0
  148.2635  135.7299  179.3512 C   0  0  0  0  0  0  0  0  0  0  0  0
  154.1664  137.5320  186.6371 C   0  0  0  0  0  0  0  0  0  0  0  0
  154.4446  137.1329  188.0792 C   0  0  0  0  0  0  0  0  0  0  0  0
  153.6839  136.4573  185.8260 N   0  0  0  0  0  0  0  0  0  0  0  0
  154.4027  135.4535  185.2881 C   0  0  0  0  0  0  0  0  0  0  0  0
  153.6267  134.6167  184.5830 N   0  0  0  0  0  0  0  0  0  0  0  0
  152.3658  135.0753  184.6546 C   0  0  0  0  0  0  0  0  0  0  0  0
  151.2100  134.6028  184.1233 N   0  0  0  0  0  0  0  0  0  0  0  0
  151.2321  133.4089  183.3282 C   0  0  0  0  0  0  0  0  0  0  0  0
  150.0756  135.2796  184.3662 C   0  0  0  0  0  0  0  0  0  0  0  0
  148.9624  134.8819  183.8927 O   0  0  0  0  0  0  0  0  0  0  0  0
  150.0684  136.3935  185.1114 N   0  0  0  0  0  0  0  0  0  0  0  0
  151.2094  136.8857  185.6534 C   0  0  0  0  0  0  0  0  0  0  0  0
  151.1674  137.9300  186.3469 O   0  0  0  0  0  0  0  0  0  0  0  0
  152.3994  136.2323  185.4359 C   0  0  0  0  0  0  0  0  0  0  0  0
  148.8275  137.0929  185.3427 C   0  0  0  0  0  0  0  0  0  0  0  0
  148.1414  136.6559  186.5847 C   0  0  0  0  0  0  0  0  0  0  0  0
  147.9625  135.3698  187.0380 C   0  0  0  0  0  0  0  0  0  0  0  0
  147.2757  135.5041  188.2234 C   0  0  0  0  0  0  0  0  0  0  0  0
  146.8359  134.3895  189.1144 C   0  0  0  0  0  0  0  0  0  0  0  0
  147.0838  136.7801  188.4189 O   0  0  0  0  0  0  0  0  0  0  0  0
  147.5821  137.4831  187.4712 N   0  0  0  0  0  0  0  0  0  0  0  0
 22 23  1  0  0  0
 23 21  1  0  0  0
 21 11  1  0  0  0
 11 12  2  0  0  0
 12 13  1  0  0  0
 13 14  2  0  0  0
 14 15  1  0  0  0
 15 16  2  0  0  0
 16 17  1  0  0  0
 17 18  1  0  0  0
 17 19  1  0  0  0
 17 20  1  0  0  0
 14  5  1  0  0  0
  5  6  2  0  0  0
  6  7  1  0  0  0
  7  8  2  0  0  0
  8  9  1  0  0  0
  9  1  1  0  0  0
  1  2  1  0  0  0
  2  3  2  0  0  0
  2 24  1  0  0  0
 24 25  1  0  0  0
 24 26  1  0  0  0
 26 27  1  0  0  0
 27 28  2  0  0  0
 28 29  1  0  0  0
 29 30  1  0  0  0
 30 31  1  0  0  0
 30 32  1  0  0  0
 32 33  2  0  0  0
 32 34  1  0  0  0
 34 38  1  0  0  0
 38 39  1  0  0  0
 39 40  1  0  0  0
 40 41  2  0  0  0
 41 42  1  0  0  0
 41 43  1  0  0  0
 43 44  1  0  0  0
 34 35  1  0  0  0
 35 36  2  0  0  0
 35 37  1  0  0  0
  9 10  2  0  0  0
 16 11  1  0  0  0
 10  5  1  0  0  0
 37 26  1  0  0  0
 37 29  2  0  0  0
 44 39  2  0  0  0
  1  4  1  0  0  0
M  END
> <minimizedAffinity>
-6.21429

> <CNNscore>
0.2261955142

> <CNNaffinity>
6.3817853928

> <CNN_VS>
1.4435312748

> <CNNaffinity_variance>
0.2825240195

$$$$
[H]c1nc(-c2c([H])nc(N3C([H])([H])C([H])([H])C([H])([H])[C@]3([H])C(F)(F)F)nc2[H])nc(N([H])C(=O)[C@@]([H])(n2c([H])nc3c2c(=O)n(C([H])([H])C#N)c(=O)n3C([H])([H])[H])C([H])([H])[H])c1[H]


 42 46  0  0  0  0  0  0  0  0999 V2000
  154.4985  137.8493  188.8463 C   0  0  0  0  0  0  0  0  0  0  0  0
  155.5596  138.2291  188.3191 O   0  0  0  0  0  0  0  0  0  0  0  0
  153.3339  137.5856  188.1477 N   0  0  0  0  0  0  0  0  0  0  0  0
  152.4919  137.2575  188.7320 H   0  0  0  0  0  0  0  0  0  0  0  0
  153.0860  137.7174  186.7662 C   0  0  0  0  0  0  0  0  0  0  0  0
  152.0288  137.1380  186.1065 C   0  0  0  0  0  0  0  0  0  0  0  0
  151.8724  137.3139  184.7455 C   0  0  0  0  0  0  0  0  0  0  0  0
  152.7552  138.0537  184.0711 N   0  0  0  0  0  0  0  0  0  0  0  0
  153.7970  138.6358  184.6811 C   0  0  0  0  0  0  0  0  0  0  0  0
  153.9284  138.4528  185.9859 N   0  0  0  0  0  0  0  0  0  0  0  0
  154.7629  139.4421  183.9295 C   0  0  0  0  0  0  0  0  0  0  0  0
  154.3777  140.1826  182.8408 C   0  0  0  0  0  0  0  0  0  0  0  0
  155.3163  140.9396  182.1947 N   0  0  0  0  0  0  0  0  0  0  0  0
  156.5924  140.9896  182.5802 C   0  0  0  0  0  0  0  0  0  0  0  0
  156.9695  140.2543  183.6586 N   0  0  0  0  0  0  0  0  0  0  0  0
  156.0867  139.4979  184.3222 C   0  0  0  0  0  0  0  0  0  0  0  0
  157.6169  141.7483  181.9283 N   0  0  0  0  0  0  0  0  0  0  0  0
  158.2687  141.3568  180.7013 C   0  0  0  0  0  0  0  0  0  0  0  0
  158.3365  142.6658  179.9474 C   0  0  0  0  0  0  0  0  0  0  0  0
  158.5282  143.6934  181.0475 C   0  0  0  0  0  0  0  0  0  0  0  0
  158.1356  143.0078  182.3486 C   0  0  0  0  0  0  0  0  0  0  0  0
  159.3689  142.9186  183.2187 C   0  0  0  0  0  0  0  0  0  0  0  0
  160.2637  141.9712  182.7943 F   0  0  0  0  0  0  0  0  0  0  0  0
  160.0371  144.1119  183.3104 F   0  0  0  0  0  0  0  0  0  0  0  0
  158.9701  142.5430  184.5108 F   0  0  0  0  0  0  0  0  0  0  0  0
  155.3200  138.7313  191.0413 C   0  0  0  0  0  0  0  0  0  0  0  0
  154.5268  137.6843  190.3323 C   0  0  0  0  0  0  0  0  0  0  0  0
  154.6747  136.3448  190.7978 N   0  0  0  0  0  0  0  0  0  0  0  0
  155.8331  135.6367  190.9564 C   0  0  0  0  0  0  0  0  0  0  0  0
  155.5963  134.4042  191.4032 N   0  0  0  0  0  0  0  0  0  0  0  0
  154.2480  134.2587  191.5557 C   0  0  0  0  0  0  0  0  0  0  0  0
  153.5406  133.1867  191.9740 N   0  0  0  0  0  0  0  0  0  0  0  0
  154.2110  131.9616  192.3492 C   0  0  0  0  0  0  0  0  0  0  0  0
  152.2113  133.3345  192.0148 C   0  0  0  0  0  0  0  0  0  0  0  0
  151.4695  132.3796  192.3934 O   0  0  0  0  0  0  0  0  0  0  0  0
  151.6220  134.5043  191.6527 N   0  0  0  0  0  0  0  0  0  0  0  0
  152.3180  135.5758  191.2359 C   0  0  0  0  0  0  0  0  0  0  0  0
  151.7954  136.6480  190.9037 O   0  0  0  0  0  0  0  0  0  0  0  0
  153.7012  135.4629  191.1788 C   0  0  0  0  0  0  0  0  0  0  0  0
  150.1753  134.6168  191.7083 C   0  0  0  0  0  0  0  0  0  0  0  0
  149.8050  135.2135  192.9980 C   0  0  0  0  0  0  0  0  0  0  0  0
  149.5182  135.6806  194.0231 N   0  0  0  0  0  0  0  0  0  0  0  0
 26 27  1  0  0  0
 27  1  1  0  0  0
  1  2  2  0  0  0
  1  3  1  0  0  0
  3  5  1  0  0  0
  5  6  2  0  0  0
  6  7  1  0  0  0
  7  8  2  0  0  0
  8  9  1  0  0  0
  9 10  2  0  0  0
  9 11  1  0  0  0
 11 12  2  0  0  0
 12 13  1  0  0  0
 13 14  2  0  0  0
 14 15  1  0  0  0
 15 16  2  0  0  0
 14 17  1  0  0  0
 17 18  1  0  0  0
 18 19  1  0  0  0
 19 20  1  0  0  0
 20 21  1  0  0  0
 21 22  1  0  0  0
 22 23  1  0  0  0
 22 24  1  0  0  0
 22 25  1  0  0  0
 27 28  1  0  0  0
 28 29  1  0  0  0
 29 30  2  0  0  0
 30 31  1  0  0  0
 31 32  1  0  0  0
 32 33  1  0  0  0
 32 34  1  0  0  0
 34 35  2  0  0  0
 34 36  1  0  0  0
 36 40  1  0  0  0
 40 41  1  0  0  0
 41 42  3  0  0  0
 36 37  1  0  0  0
 37 38  2  0  0  0
 37 39  1  0  0  0
 10  5  1  0  0  0
 16 11  1  0  0  0
 21 17  1  0  0  0
 39 28  1  0  0  0
 39 31  2  0  0  0
  3  4  1  0  0  0
M  END
> <minimizedAffinity>
-8.53559

> <CNNscore>
0.2412184030

> <CNNaffinity>
6.7066469193

> <CNN_VS>
1.6177666187

> <CNNaffinity_variance>
0.0769761950

$$$$
[H]c1nc(-c2c([H])nc(N3C([H])([H])C([H])([H])C([H])([H])[C@]3([H])C(F)(F)F)nc2[H])nc(N([H])C(=O)[C@@]([H])(n2c([H])nc3c2c(=O)n(C([H])([H])C#N)c(=O)n3C([H])([H])[H])C([H])([H])[H])c1[H]


 42 46  0  0  0  0  0  0  0  0999 V2000
  154.0470  138.6518  185.1569 C   0  0  0  0  0  0  0  0  0  0  0  0
  153.6314  139.0972  186.2418 O   0  0  0  0  0  0  0  0  0  0  0  0
  153.3402  137.7739  184.3547 N   0  0  0  0  0  0  0  0  0  0  0  0
  153.8190  137.4751  183.4384 H   0  0  0  0  0  0  0  0  0  0  0  0
  152.0800  137.1868  184.5880 C   0  0  0  0  0  0  0  0  0  0  0  0
  151.1143  137.0088  183.6265 C   0  0  0  0  0  0  0  0  0  0  0  0
  149.9017  136.4327  183.9511 C   0  0  0  0  0  0  0  0  0  0  0  0
  149.6714  136.0462  185.2077 N   0  0  0  0  0  0  0  0  0  0  0  0
  150.5900  136.2017  186.1711 C   0  0  0  0  0  0  0  0  0  0  0  0
  151.7448  136.7575  185.8380 N   0  0  0  0  0  0  0  0  0  0  0  0
  150.3243  135.7778  187.5487 C   0  0  0  0  0  0  0  0  0  0  0  0
  149.0526  135.7861  188.0632 C   0  0  0  0  0  0  0  0  0  0  0  0
  148.8593  135.3522  189.3461 N   0  0  0  0  0  0  0  0  0  0  0  0
  149.8566  134.9190  190.1190 C   0  0  0  0  0  0  0  0  0  0  0  0
  151.1144  134.9130  189.6053 N   0  0  0  0  0  0  0  0  0  0  0  0
  151.3526  135.3289  188.3555 C   0  0  0  0  0  0  0  0  0  0  0  0
  149.7117  134.4740  191.4721 N   0  0  0  0  0  0  0  0  0  0  0  0
  148.5438  133.8029  191.9914 C   0  0  0  0  0  0  0  0  0  0  0  0
  149.1570  132.7189  192.8490 C   0  0  0  0  0  0  0  0  0  0  0  0
  150.4160  133.3711  193.3897 C   0  0  0  0  0  0  0  0  0  0  0  0
  150.6842  134.5831  192.5086 C   0  0  0  0  0  0  0  0  0  0  0  0
  150.5498  135.8211  193.3659 C   0  0  0  0  0  0  0  0  0  0  0  0
  150.4565  136.9776  192.6364 F   0  0  0  0  0  0  0  0  0  0  0  0
  149.4659  135.7677  194.2034 F   0  0  0  0  0  0  0  0  0  0  0  0
  151.7042  135.9374  194.1556 F   0  0  0  0  0  0  0  0  0  0  0  0
  156.4795  138.8270  185.7254 C   0  0  0  0  0  0  0  0  0  0  0  0
  155.4032  139.1178  184.7329 C   0  0  0  0  0  0  0  0  0  0  0  0
  155.4430  140.3958  184.1020 N   0  0  0  0  0  0  0  0  0  0  0  0
  154.3942  141.2312  183.8361 C   0  0  0  0  0  0  0  0  0  0  0  0
  154.7974  142.3438  183.2242 N   0  0  0  0  0  0  0  0  0  0  0  0
  156.1509  142.2748  183.0645 C   0  0  0  0  0  0  0  0  0  0  0  0
  156.9957  143.1608  182.4936 N   0  0  0  0  0  0  0  0  0  0  0  0
  156.5005  144.4038  181.9451 C   0  0  0  0  0  0  0  0  0  0  0  0
  158.2884  142.8158  182.4714 C   0  0  0  0  0  0  0  0  0  0  0  0
  159.1508  143.5863  181.9537 O   0  0  0  0  0  0  0  0  0  0  0  0
  158.7110  141.6366  182.9985 N   0  0  0  0  0  0  0  0  0  0  0  0
  157.8777  140.7497  183.5688 C   0  0  0  0  0  0  0  0  0  0  0  0
  158.2480  139.6723  184.0538 O   0  0  0  0  0  0  0  0  0  0  0  0
  156.5269  141.0703  183.6113 C   0  0  0  0  0  0  0  0  0  0  0  0
  160.1233  141.3023  182.9471 C   0  0  0  0  0  0  0  0  0  0  0  0
  160.7778  141.8670  184.1343 C   0  0  0  0  0  0  0  0  0  0  0  0
  161.2959  142.3055  185.0779 N   0  0  0  0  0  0  0  0  0  0  0  0
 26 27  1  0  0  0
 27  1  1  0  0  0
  1  2  2  0  0  0
  1  3  1  0  0  0
  3  5  1  0  0  0
  5  6  2  0  0  0
  6  7  1  0  0  0
  7  8  2  0  0  0
  8  9  1  0  0  0
  9 10  2  0  0  0
  9 11  1  0  0  0
 11 12  2  0  0  0
 12 13  1  0  0  0
 13 14  2  0  0  0
 14 15  1  0  0  0
 15 16  2  0  0  0
 14 17  1  0  0  0
 17 18  1  0  0  0
 18 19  1  0  0  0
 19 20  1  0  0  0
 20 21  1  0  0  0
 21 22  1  0  0  0
 22 23  1  0  0  0
 22 24  1  0  0  0
 22 25  1  0  0  0
 27 28  1  0  0  0
 28 29  1  0  0  0
 29 30  2  0  0  0
 30 31  1  0  0  0
 31 32  1  0  0  0
 32 33  1  0  0  0
 32 34  1  0  0  0
 34 35  2  0  0  0
 34 36  1  0  0  0
 36 40  1  0  0  0
 40 41  1  0  0  0
 41 42  3  0  0  0
 36 37  1  0  0  0
 37 38  2  0  0  0
 37 39  1  0  0  0
 10  5  1  0  0  0
 16 11  1  0  0  0
 21 17  1  0  0  0
 39 28  1  0  0  0
 39 31  2  0  0  0
  3  4  1  0  0  0
M  END
> <minimizedAffinity>
-7.27993

> <CNNscore>
0.2386127710

> <CNNaffinity>
6.4058151245

> <CNN_VS>
1.5285092592

> <CNNaffinity_variance>
0.1164213046

$$$$
[H]c1nc(-c2c([H])nc(N3C([H])([H])C([H])([H])C([H])([H])[C@]3([H])C(F)(F)F)nc2[H])nc(N([H])C(=O)[C@@]([H])(n2c([H])nc3c2c(=O)n(C([H])([H])C#N)c(=O)n3C([H])([H])[H])C([H])([H])[H])c1[H]


 42 46  0  0  0  0  0  0  0  0999 V2000
  154.4212  137.8442  189.0028 C   0  0  0  0  0  0  0  0  0  0  0  0
  155.5111  137.4996  188.5115 O   0  0  0  0  0  0  0  0  0  0  0  0
  153.2822  138.1053  188.2623 N   0  0  0  0  0  0  0  0  0  0  0  0
  152.4063  138.3884  188.8197 H   0  0  0  0  0  0  0  0  0  0  0  0
  153.1163  138.0809  186.8626 C   0  0  0  0  0  0  0  0  0  0  0  0
  152.1200  137.3964  186.2088 C   0  0  0  0  0  0  0  0  0  0  0  0
  152.0428  137.4214  184.8299 C   0  0  0  0  0  0  0  0  0  0  0  0
  152.9428  138.1176  184.1322 N   0  0  0  0  0  0  0  0  0  0  0  0
  153.9268  138.7989  184.7355 C   0  0  0  0  0  0  0  0  0  0  0  0
  153.9827  138.7600  186.0579 N   0  0  0  0  0  0  0  0  0  0  0  0
  154.9124  139.5562  183.9589 C   0  0  0  0  0  0  0  0  0  0  0  0
  156.2491  139.5056  184.2628 C   0  0  0  0  0  0  0  0  0  0  0  0
  157.1275  140.2100  183.4857 N   0  0  0  0  0  0  0  0  0  0  0  0
  156.7386  140.9440  182.4419 C   0  0  0  0  0  0  0  0  0  0  0  0
  155.4137  140.9914  182.1449 N   0  0  0  0  0  0  0  0  0  0  0  0
  154.5168  140.3195  182.8769 C   0  0  0  0  0  0  0  0  0  0  0  0
  157.6128  141.7145  181.6100 N   0  0  0  0  0  0  0  0  0  0  0  0
  158.7716  141.1856  180.9308 C   0  0  0  0  0  0  0  0  0  0  0  0
  158.6745  141.8496  179.5757 C   0  0  0  0  0  0  0  0  0  0  0  0
  158.0765  143.2076  179.8938 C   0  0  0  0  0  0  0  0  0  0  0  0
  157.4761  143.0964  181.2881 C   0  0  0  0  0  0  0  0  0  0  0  0
  158.2393  144.0305  182.1997 C   0  0  0  0  0  0  0  0  0  0  0  0
  157.4798  145.0708  182.6680 F   0  0  0  0  0  0  0  0  0  0  0  0
  158.7779  143.3866  183.2834 F   0  0  0  0  0  0  0  0  0  0  0  0
  159.2909  144.6005  181.4657 F   0  0  0  0  0  0  0  0  0  0  0  0
  155.6600  138.4803  191.0842 C   0  0  0  0  0  0  0  0  0  0  0  0
  154.3857  137.9767  190.4919 C   0  0  0  0  0  0  0  0  0  0  0  0
  153.7323  136.9167  191.1864 N   0  0  0  0  0  0  0  0  0  0  0  0
  152.5900  136.9846  191.9341 C   0  0  0  0  0  0  0  0  0  0  0  0
  152.2707  135.7982  192.4492 N   0  0  0  0  0  0  0  0  0  0  0  0
  153.2112  134.8939  192.0495 C   0  0  0  0  0  0  0  0  0  0  0  0
  153.3098  133.5758  192.3279 N   0  0  0  0  0  0  0  0  0  0  0  0
  152.3217  132.9211  193.1561 C   0  0  0  0  0  0  0  0  0  0  0  0
  154.3588  132.9361  191.7978 C   0  0  0  0  0  0  0  0  0  0  0  0
  154.5309  131.6986  192.0084 O   0  0  0  0  0  0  0  0  0  0  0  0
  155.2648  133.5907  191.0246 N   0  0  0  0  0  0  0  0  0  0  0  0
  155.1741  134.9014  190.7421 C   0  0  0  0  0  0  0  0  0  0  0  0
  155.9908  135.5110  190.0390 O   0  0  0  0  0  0  0  0  0  0  0  0
  154.0992  135.6021  191.2742 C   0  0  0  0  0  0  0  0  0  0  0  0
  156.3903  132.8561  190.4747 C   0  0  0  0  0  0  0  0  0  0  0  0
  157.3763  132.6488  191.5431 C   0  0  0  0  0  0  0  0  0  0  0  0
  158.1524  132.4768  192.3911 N   0  0  0  0  0  0  0  0  0  0  0  0
 26 27  1  0  0  0
 27  1  1  0  0  0
  1  2  2  0  0  0
  1  3  1  0  0  0
  3  5  1  0  0  0
  5  6  2  0  0  0
  6  7  1  0  0  0
  7  8  2  0  0  0
  8  9  1  0  0  0
  9 10  2  0  0  0
  9 11  1  0  0  0
 11 12  2  0  0  0
 12 13  1  0  0  0
 13 14  2  0  0  0
 14 15  1  0  0  0
 15 16  2  0  0  0
 14 17  1  0  0  0
 17 18  1  0  0  0
 18 19  1  0  0  0
 19 20  1  0  0  0
 20 21  1  0  0  0
 21 22  1  0  0  0
 22 23  1  0  0  0
 22 24  1  0  0  0
 22 25  1  0  0  0
 27 28  1  0  0  0
 28 29  1  0  0  0
 29 30  2  0  0  0
 30 31  1  0  0  0
 31 32  1  0  0  0
 32 33  1  0  0  0
 32 34  1  0  0  0
 34 35  2  0  0  0
 34 36  1  0  0  0
 36 40  1  0  0  0
 40 41  1  0  0  0
 41 42  3  0  0  0
 36 37  1  0  0  0
 37 38  2  0  0  0
 37 39  1  0  0  0
 10  5  1  0  0  0
 16 11  1  0  0  0
 21 17  1  0  0  0
 39 28  1  0  0  0
 39 31  2  0  0  0
  3  4  1  0  0  0
M  END
> <minimizedAffinity>
-8.06856

> <CNNscore>
0.2262643278

> <CNNaffinity>
6.5285010338

> <CNN_VS>
1.4771668911

> <CNNaffinity_variance>
0.0512730479

$$$$
[H]c1nc(-c2c([H])nc(N3C([H])([H])C([H])([H])C([H])([H])[C@]3([H])C(F)(F)F)nc2[H])nc(N([H])C(=O)[C@@]([H])(n2c([H])nc3c2c(=O)n(C([H])([H])C#N)c(=O)n3C([H])([H])[H])C([H])([H])[H])c1[H]


 42 46  0  0  0  0  0  0  0  0999 V2000
  152.8036  139.3630  182.1873 C   0  0  0  0  0  0  0  0  0  0  0  0
  153.0342  140.5809  182.2951 O   0  0  0  0  0  0  0  0  0  0  0  0
  153.3367  138.3941  183.0185 N   0  0  0  0  0  0  0  0  0  0  0  0
  153.0463  137.3783  182.8134 H   0  0  0  0  0  0  0  0  0  0  0  0
  154.2407  138.5514  184.0887 C   0  0  0  0  0  0  0  0  0  0  0  0
  155.4678  139.1617  183.9877 C   0  0  0  0  0  0  0  0  0  0  0  0
  156.2931  139.2601  185.0909 C   0  0  0  0  0  0  0  0  0  0  0  0
  155.8913  138.7593  186.2609 N   0  0  0  0  0  0  0  0  0  0  0  0
  154.7006  138.1594  186.3977 C   0  0  0  0  0  0  0  0  0  0  0  0
  153.9262  138.0749  185.3270 N   0  0  0  0  0  0  0  0  0  0  0  0
  154.2717  137.6088  187.6865 C   0  0  0  0  0  0  0  0  0  0  0  0
  154.2506  138.3822  188.8193 C   0  0  0  0  0  0  0  0  0  0  0  0
  153.8134  137.8237  189.9891 N   0  0  0  0  0  0  0  0  0  0  0  0
  153.4043  136.5568  190.0747 C   0  0  0  0  0  0  0  0  0  0  0  0
  153.4274  135.7945  188.9503 N   0  0  0  0  0  0  0  0  0  0  0  0
  153.8477  136.2971  187.7831 C   0  0  0  0  0  0  0  0  0  0  0  0
  152.9572  135.9189  191.2760 N   0  0  0  0  0  0  0  0  0  0  0  0
  152.3720  134.6004  191.3324 C   0  0  0  0  0  0  0  0  0  0  0  0
  153.0317  134.0138  192.5601 C   0  0  0  0  0  0  0  0  0  0  0  0
  153.1980  135.2133  193.4746 C   0  0  0  0  0  0  0  0  0  0  0  0
  153.0401  136.4473  192.5972 C   0  0  0  0  0  0  0  0  0  0  0  0
  151.8043  137.1887  193.0542 C   0  0  0  0  0  0  0  0  0  0  0  0
  152.0744  138.4373  193.5508 F   0  0  0  0  0  0  0  0  0  0  0  0
  150.8743  137.3288  192.0570 F   0  0  0  0  0  0  0  0  0  0  0  0
  151.2150  136.4606  194.0994 F   0  0  0  0  0  0  0  0  0  0  0  0
  151.9357  139.8831  179.8967 C   0  0  0  0  0  0  0  0  0  0  0  0
  151.8902  138.9646  181.0723 C   0  0  0  0  0  0  0  0  0  0  0  0
  150.6030  138.4988  181.4709 N   0  0  0  0  0  0  0  0  0  0  0  0
  149.4579  139.2299  181.6222 C   0  0  0  0  0  0  0  0  0  0  0  0
  148.4395  138.4682  182.0188 N   0  0  0  0  0  0  0  0  0  0  0  0
  148.8905  137.1864  182.1440 C   0  0  0  0  0  0  0  0  0  0  0  0
  148.2254  136.0742  182.5253 N   0  0  0  0  0  0  0  0  0  0  0  0
  146.8215  136.1349  182.8661 C   0  0  0  0  0  0  0  0  0  0  0  0
  148.9388  134.9428  182.5649 C   0  0  0  0  0  0  0  0  0  0  0  0
  148.3960  133.8522  182.9131 O   0  0  0  0  0  0  0  0  0  0  0  0
  150.2576  134.9306  182.2364 N   0  0  0  0  0  0  0  0  0  0  0  0
  150.9268  136.0321  181.8555 C   0  0  0  0  0  0  0  0  0  0  0  0
  152.1273  136.0364  181.5526 O   0  0  0  0  0  0  0  0  0  0  0  0
  150.2218  137.2278  181.8020 C   0  0  0  0  0  0  0  0  0  0  0  0
  150.9926  133.6798  182.2989 C   0  0  0  0  0  0  0  0  0  0  0  0
  151.5211  133.5191  183.6596 C   0  0  0  0  0  0  0  0  0  0  0  0
  151.9481  133.3931  184.7334 N   0  0  0  0  0  0  0  0  0  0  0  0
 26 27  1  0  0  0
 27  1  1  0  0  0
  1  2  2  0  0  0
  1  3  1  0  0  0
  3  5  1  0  0  0
  5  6  2  0  0  0
  6  7  1  0  0  0
  7  8  2  0  0  0
  8  9  1  0  0  0
  9 10  2  0  0  0
  9 11  1  0  0  0
 11 12  2  0  0  0
 12 13  1  0  0  0
 13 14  2  0  0  0
 14 15  1  0  0  0
 15 16  2  0  0  0
 14 17  1  0  0  0
 17 18  1  0  0  0
 18 19  1  0  0  0
 19 20  1  0  0  0
 20 21  1  0  0  0
 21 22  1  0  0  0
 22 23  1  0  0  0
 22 24  1  0  0  0
 22 25  1  0  0  0
 27 28  1  0  0  0
 28 29  1  0  0  0
 29 30  2  0  0  0
 30 31  1  0  0  0
 31 32  1  0  0  0
 32 33  1  0  0  0
 32 34  1  0  0  0
 34 35  2  0  0  0
 34 36  1  0  0  0
 36 40  1  0  0  0
 40 41  1  0  0  0
 41 42  3  0  0  0
 36 37  1  0  0  0
 37 38  2  0  0  0
 37 39  1  0  0  0
 10  5  1  0  0  0
 16 11  1  0  0  0
 21 17  1  0  0  0
 39 28  1  0  0  0
 39 31  2  0  0  0
  3  4  1  0  0  0
M  END
> <minimizedAffinity>
-6.66107

> <CNNscore>
0.2222370058

> <CNNaffinity>
6.2156820297

> <CNN_VS>
1.3813545704

> <CNNaffinity_variance>
0.1007653624

$$$$
[H]c1nc(-c2c([H])nc(N3C([H])([H])C([H])([H])C([H])([H])[C@]3([H])C(F)(F)F)nc2[H])nc(N([H])C(=O)[C@@]([H])(n2c([H])nc3c2c(=O)n(C([H])([H])C#N)c(=O)n3C([H])([H])[H])C([H])([H])[H])c1[H]


 42 46  0  0  0  0  0  0  0  0999 V2000
  151.1331  136.0598  184.8896 C   0  0  0  0  0  0  0  0  0  0  0  0
  151.7811  135.1833  184.2897 O   0  0  0  0  0  0  0  0  0  0  0  0
  151.7040  137.0732  185.6385 N   0  0  0  0  0  0  0  0  0  0  0  0
  151.0224  137.7674  186.0986 H   0  0  0  0  0  0  0  0  0  0  0  0
  153.0674  137.3074  185.9101 C   0  0  0  0  0  0  0  0  0  0  0  0
  153.8059  136.6149  186.8395 C   0  0  0  0  0  0  0  0  0  0  0  0
  155.1366  136.9224  187.0455 C   0  0  0  0  0  0  0  0  0  0  0  0
  155.7052  137.8979  186.3339 N   0  0  0  0  0  0  0  0  0  0  0  0
  155.0170  138.5930  185.4175 C   0  0  0  0  0  0  0  0  0  0  0  0
  153.7425  138.2825  185.2374 N   0  0  0  0  0  0  0  0  0  0  0  0
  155.6506  139.6655  184.6452 C   0  0  0  0  0  0  0  0  0  0  0  0
  157.0046  139.8784  184.7009 C   0  0  0  0  0  0  0  0  0  0  0  0
  157.5457  140.8754  183.9362 N   0  0  0  0  0  0  0  0  0  0  0  0
  156.8112  141.6497  183.1358 C   0  0  0  0  0  0  0  0  0  0  0  0
  155.4706  141.4355  183.0842 N   0  0  0  0  0  0  0  0  0  0  0  0
  154.8960  140.4722  183.8148 C   0  0  0  0  0  0  0  0  0  0  0  0
  157.3239  142.7177  182.3317 N   0  0  0  0  0  0  0  0  0  0  0  0
  156.6023  143.9299  182.0259 C   0  0  0  0  0  0  0  0  0  0  0  0
  157.6759  144.9839  182.1777 C   0  0  0  0  0  0  0  0  0  0  0  0
  158.9327  144.2724  181.7120 C   0  0  0  0  0  0  0  0  0  0  0  0
  158.6168  142.7835  181.7350 C   0  0  0  0  0  0  0  0  0  0  0  0
  158.6776  142.2725  180.3134 C   0  0  0  0  0  0  0  0  0  0  0  0
  157.4578  142.2632  179.6886 F   0  0  0  0  0  0  0  0  0  0  0  0
  159.5417  142.9930  179.5304 F   0  0  0  0  0  0  0  0  0  0  0  0
  159.1233  140.9420  180.3423 F   0  0  0  0  0  0  0  0  0  0  0  0
  148.9858  135.2889  185.9220 C   0  0  0  0  0  0  0  0  0  0  0  0
  149.6450  135.9723  184.7703 C   0  0  0  0  0  0  0  0  0  0  0  0
  149.1517  135.6555  183.4706 N   0  0  0  0  0  0  0  0  0  0  0  0
  148.5551  134.4957  183.0613 C   0  0  0  0  0  0  0  0  0  0  0  0
  148.2280  134.5423  181.7708 N   0  0  0  0  0  0  0  0  0  0  0  0
  148.6063  135.7580  181.2797 C   0  0  0  0  0  0  0  0  0  0  0  0
  148.4876  136.2551  180.0293 N   0  0  0  0  0  0  0  0  0  0  0  0
  147.8767  135.4711  178.9790 C   0  0  0  0  0  0  0  0  0  0  0  0
  148.9632  137.4909  179.8365 C   0  0  0  0  0  0  0  0  0  0  0  0
  148.8950  138.0352  178.6943 O   0  0  0  0  0  0  0  0  0  0  0  0
  149.5305  138.1930  180.8525 N   0  0  0  0  0  0  0  0  0  0  0  0
  149.6521  137.7065  182.0994 C   0  0  0  0  0  0  0  0  0  0  0  0
  150.1655  138.3342  183.0349 O   0  0  0  0  0  0  0  0  0  0  0  0
  149.1710  136.4260  182.3408 C   0  0  0  0  0  0  0  0  0  0  0  0
  150.0374  139.5292  180.5949 C   0  0  0  0  0  0  0  0  0  0  0  0
  151.4748  139.4337  180.3096 C   0  0  0  0  0  0  0  0  0  0  0  0
  152.6109  139.3510  180.0781 N   0  0  0  0  0  0  0  0  0  0  0  0
 26 27  1  0  0  0
 27  1  1  0  0  0
  1  2  2  0  0  0
  1  3  1  0  0  0
  3  5  1  0  0  0
  5  6  2  0  0  0
  6  7  1  0  0  0
  7  8  2  0  0  0
  8  9  1  0  0  0
  9 10  2  0  0  0
  9 11  1  0  0  0
 11 12  2  0  0  0
 12 13  1  0  0  0
 13 14  2  0  0  0
 14 15  1  0  0  0
 15 16  2  0  0  0
 14 17  1  0  0  0
 17 18  1  0  0  0
 18 19  1  0  0  0
 19 20  1  0  0  0
 20 21  1  0  0  0
 21 22  1  0  0  0
 22 23  1  0  0  0
 22 24  1  0  0  0
 22 25  1  0  0  0
 27 28  1  0  0  0
 28 29  1  0  0  0
 29 30  2  0  0  0
 30 31  1  0  0  0
 31 32  1  0  0  0
 32 33  1  0  0  0
 32 34  1  0  0  0
 34 35  2  0  0  0
 34 36  1  0  0  0
 36 40  1  0  0  0
 40 41  1  0  0  0
 41 42  3  0  0  0
 36 37  1  0  0  0
 37 38  2  0  0  0
 37 39  1  0  0  0
 10  5  1  0  0  0
 16 11  1  0  0  0
 21 17  1  0  0  0
 39 28  1  0  0  0
 39 31  2  0  0  0
  3  4  1  0  0  0
M  END
> <minimizedAffinity>
-7.20091

> <CNNscore>
0.1988326758

> <CNNaffinity>
6.7387681007

> <CNN_VS>
1.3398872614

> <CNNaffinity_variance>
0.2224691361

$$$$
[H]c1nc(-c2c([H])nc(N3C([H])([H])C([H])([H])C([H])([H])[C@]3([H])C(F)(F)F)nc2[H])nc(N([H])C(=O)[C@@]([H])(n2c([H])nc3c2c(=O)n(C([H])([H])C#N)c(=O)n3C([H])([H])[H])C([H])([H])[H])c1[H]


 42 46  0  0  0  0  0  0  0  0999 V2000
  149.9768  136.2397  184.5656 C   0  0  0  0  0  0  0  0  0  0  0  0
  150.4269  135.1137  184.2867 O   0  0  0  0  0  0  0  0  0  0  0  0
  150.7348  137.2727  185.0874 N   0  0  0  0  0  0  0  0  0  0  0  0
  150.2157  138.1965  185.2752 H   0  0  0  0  0  0  0  0  0  0  0  0
  152.0999  137.2735  185.4391 C   0  0  0  0  0  0  0  0  0  0  0  0
  152.6476  136.5006  186.4346 C   0  0  0  0  0  0  0  0  0  0  0  0
  153.9976  136.5766  186.7166 C   0  0  0  0  0  0  0  0  0  0  0  0
  154.7716  137.4063  186.0139 N   0  0  0  0  0  0  0  0  0  0  0  0
  154.2731  138.1735  185.0345 C   0  0  0  0  0  0  0  0  0  0  0  0
  152.9763  138.0856  184.7820 N   0  0  0  0  0  0  0  0  0  0  0  0
  155.1319  139.0846  184.2725 C   0  0  0  0  0  0  0  0  0  0  0  0
  154.6633  139.7452  183.1652 C   0  0  0  0  0  0  0  0  0  0  0  0
  155.5004  140.6059  182.5096 N   0  0  0  0  0  0  0  0  0  0  0  0
  156.7550  140.8317  182.9030 C   0  0  0  0  0  0  0  0  0  0  0  0
  157.2148  140.1749  183.9998 N   0  0  0  0  0  0  0  0  0  0  0  0
  156.4328  139.3226  184.6734 C   0  0  0  0  0  0  0  0  0  0  0  0
  157.6770  141.7053  182.2421 N   0  0  0  0  0  0  0  0  0  0  0  0
  158.2547  141.4531  180.9434 C   0  0  0  0  0  0  0  0  0  0  0  0
  158.1828  142.8172  180.2950 C   0  0  0  0  0  0  0  0  0  0  0  0
  158.3956  143.7688  181.4578 C   0  0  0  0  0  0  0  0  0  0  0  0
  158.1481  142.9613  182.7242 C   0  0  0  0  0  0  0  0  0  0  0  0
  159.4482  142.8898  183.4925 C   0  0  0  0  0  0  0  0  0  0  0  0
  159.2798  142.5644  184.8132 F   0  0  0  0  0  0  0  0  0  0  0  0
  160.3320  141.9924  182.9514 F   0  0  0  0  0  0  0  0  0  0  0  0
  160.0462  144.1592  183.4656 F   0  0  0  0  0  0  0  0  0  0  0  0
  147.6342  135.9180  185.3898 C   0  0  0  0  0  0  0  0  0  0  0  0
  148.5181  136.4449  184.3086 C   0  0  0  0  0  0  0  0  0  0  0  0
  148.0937  136.2161  182.9668 N   0  0  0  0  0  0  0  0  0  0  0  0
  147.3152  135.1952  182.4975 C   0  0  0  0  0  0  0  0  0  0  0  0
  147.1255  135.2888  181.1822 N   0  0  0  0  0  0  0  0  0  0  0  0
  147.7863  136.3958  180.7349 C   0  0  0  0  0  0  0  0  0  0  0  0
  147.8875  136.8889  179.4814 N   0  0  0  0  0  0  0  0  0  0  0  0
  147.2307  136.2299  178.3745 C   0  0  0  0  0  0  0  0  0  0  0  0
  148.6194  138.0002  179.3402 C   0  0  0  0  0  0  0  0  0  0  0  0
  148.7693  138.5308  178.1995 O   0  0  0  0  0  0  0  0  0  0  0  0
  149.2203  138.5874  180.4085 N   0  0  0  0  0  0  0  0  0  0  0  0
  149.1245  138.1040  181.6588 C   0  0  0  0  0  0  0  0  0  0  0  0
  149.6652  138.6281  182.6416 O   0  0  0  0  0  0  0  0  0  0  0  0
  148.3735  136.9507  181.8477 C   0  0  0  0  0  0  0  0  0  0  0  0
  150.0091  139.7897  180.2063 C   0  0  0  0  0  0  0  0  0  0  0  0
  151.4205  139.4037  180.0812 C   0  0  0  0  0  0  0  0  0  0  0  0
  152.5401  139.1064  179.9859 N   0  0  0  0  0  0  0  0  0  0  0  0
 26 27  1  0  0  0
 27  1  1  0  0  0
  1  2  2  0  0  0
  1  3  1  0  0  0
  3  5  1  0  0  0
  5  6  2  0  0  0
  6  7  1  0  0  0
  7  8  2  0  0  0
  8  9  1  0  0  0
  9 10  2  0  0  0
  9 11  1  0  0  0
 11 12  2  0  0  0
 12 13  1  0  0  0
 13 14  2  0  0  0
 14 15  1  0  0  0
 15 16  2  0  0  0
 14 17  1  0  0  0
 17 18  1  0  0  0
 18 19  1  0  0  0
 19 20  1  0  0  0
 20 21  1  0  0  0
 21 22  1  0  0  0
 22 23  1  0  0  0
 22 24  1  0  0  0
 22 25  1  0  0  0
 27 28  1  0  0  0
 28 29  1  0  0  0
 29 30  2  0  0  0
 30 31  1  0  0  0
 31 32  1  0  0  0
 32 33  1  0  0  0
 32 34  1  0  0  0
 34 35  2  0  0  0
 34 36  1  0  0  0
 36 40  1  0  0  0
 40 41  1  0  0  0
 41 42  3  0  0  0
 36 37  1  0  0  0
 37 38  2  0  0  0
 37 39  1  0  0  0
 10  5  1  0  0  0
 16 11  1  0  0  0
 21 17  1  0  0  0
 39 28  1  0  0  0
 39 31  2  0  0  0
  3  4  1  0  0  0
M  END
> <minimizedAffinity>
-7.43049

> <CNNscore>
0.1950154752

> <CNNaffinity>
6.7290077209

> <CNN_VS>
1.3122606277

> <CNNaffinity_variance>
0.1087746471

$$$$
[H]c1nc(-c2c([H])nc(N3C([H])([H])C([H])([H])C([H])([H])[C@]3([H])C(F)(F)F)nc2[H])nc(N([H])C(=O)[C@@]([H])(n2c([H])nc3c2c(=O)n(C([H])([H])C#N)c(=O)n3C([H])([H])[H])C([H])([H])[H])c1[H]


 42 46  0  0  0  0  0  0  0  0999 V2000
  156.4164  141.0099  182.3339 C   0  0  0  0  0  0  0  0  0  0  0  0
  155.8045  142.0336  182.6886 O   0  0  0  0  0  0  0  0  0  0  0  0
  155.9681  139.7200  182.5556 N   0  0  0  0  0  0  0  0  0  0  0  0
  156.5970  138.9276  182.1886 H   0  0  0  0  0  0  0  0  0  0  0  0
  154.8051  139.2948  183.2293 C   0  0  0  0  0  0  0  0  0  0  0  0
  153.5490  139.2677  182.6722 C   0  0  0  0  0  0  0  0  0  0  0  0
  152.4636  138.8450  183.4144 C   0  0  0  0  0  0  0  0  0  0  0  0
  152.6407  138.4595  184.6799 N   0  0  0  0  0  0  0  0  0  0  0  0
  153.8510  138.4704  185.2558 C   0  0  0  0  0  0  0  0  0  0  0  0
  154.8771  138.8807  184.5264 N   0  0  0  0  0  0  0  0  0  0  0  0
  154.0329  138.0494  186.6478 C   0  0  0  0  0  0  0  0  0  0  0  0
  155.2775  137.7611  187.1473 C   0  0  0  0  0  0  0  0  0  0  0  0
  155.3914  137.4011  188.4622 N   0  0  0  0  0  0  0  0  0  0  0  0
  154.3415  137.3199  189.2812 C   0  0  0  0  0  0  0  0  0  0  0  0
  153.1107  137.6059  188.7820 N   0  0  0  0  0  0  0  0  0  0  0  0
  152.9499  137.9620  187.5017 C   0  0  0  0  0  0  0  0  0  0  0  0
  154.4032  136.9294  190.6573 N   0  0  0  0  0  0  0  0  0  0  0  0
  153.7378  137.6228  191.7346 C   0  0  0  0  0  0  0  0  0  0  0  0
  153.1998  136.4780  192.5631 C   0  0  0  0  0  0  0  0  0  0  0  0
  154.2556  135.4006  192.3982 C   0  0  0  0  0  0  0  0  0  0  0  0
  155.0878  135.7967  191.1867 C   0  0  0  0  0  0  0  0  0  0  0  0
  156.4951  136.0805  191.6609 C   0  0  0  0  0  0  0  0  0  0  0  0
  156.5992  136.1710  193.0245 F   0  0  0  0  0  0  0  0  0  0  0  0
  157.3951  135.1382  191.2356 F   0  0  0  0  0  0  0  0  0  0  0  0
  156.8913  137.3242  191.1453 F   0  0  0  0  0  0  0  0  0  0  0  0
  158.6260  140.0503  181.6501 C   0  0  0  0  0  0  0  0  0  0  0  0
  157.7166  141.2338  181.6300 C   0  0  0  0  0  0  0  0  0  0  0  0
  158.3194  142.5077  181.8461 N   0  0  0  0  0  0  0  0  0  0  0  0
  158.3299  143.5829  181.0020 C   0  0  0  0  0  0  0  0  0  0  0  0
  158.9983  144.6096  181.5253 N   0  0  0  0  0  0  0  0  0  0  0  0
  159.4583  144.2357  182.7545 C   0  0  0  0  0  0  0  0  0  0  0  0
  160.1895  144.9360  183.6486 N   0  0  0  0  0  0  0  0  0  0  0  0
  160.5926  146.2960  183.3677 C   0  0  0  0  0  0  0  0  0  0  0  0
  160.5064  144.2991  184.7819 C   0  0  0  0  0  0  0  0  0  0  0  0
  161.1914  144.8796  185.6759 O   0  0  0  0  0  0  0  0  0  0  0  0
  160.1067  143.0194  185.0053 N   0  0  0  0  0  0  0  0  0  0  0  0
  159.3787  142.3156  184.1216 C   0  0  0  0  0  0  0  0  0  0  0  0
  159.0068  141.1500  184.3113 O   0  0  0  0  0  0  0  0  0  0  0  0
  159.0294  142.9411  182.9316 C   0  0  0  0  0  0  0  0  0  0  0  0
  160.4787  142.3669  186.2481 C   0  0  0  0  0  0  0  0  0  0  0  0
  161.9425  142.3875  186.3637 C   0  0  0  0  0  0  0  0  0  0  0  0
  163.1016  142.3962  186.4499 N   0  0  0  0  0  0  0  0  0  0  0  0
 26 27  1  0  0  0
 27  1  1  0  0  0
  1  2  2  0  0  0
  1  3  1  0  0  0
  3  5  1  0  0  0
  5  6  2  0  0  0
  6  7  1  0  0  0
  7  8  2  0  0  0
  8  9  1  0  0  0
  9 10  2  0  0  0
  9 11  1  0  0  0
 11 12  2  0  0  0
 12 13  1  0  0  0
 13 14  2  0  0  0
 14 15  1  0  0  0
 15 16  2  0  0  0
 14 17  1  0  0  0
 17 18  1  0  0  0
 18 19  1  0  0  0
 19 20  1  0  0  0
 20 21  1  0  0  0
 21 22  1  0  0  0
 22 23  1  0  0  0
 22 24  1  0  0  0
 22 25  1  0  0  0
 27 28  1  0  0  0
 28 29  1  0  0  0
 29 30  2  0  0  0
 30 31  1  0  0  0
 31 32  1  0  0  0
 32 33  1  0  0  0
 32 34  1  0  0  0
 34 35  2  0  0  0
 34 36  1  0  0  0
 36 40  1  0  0  0
 40 41  1  0  0  0
 41 42  3  0  0  0
 36 37  1  0  0  0
 37 38  2  0  0  0
 37 39  1  0  0  0
 10  5  1  0  0  0
 16 11  1  0  0  0
 21 17  1  0  0  0
 39 28  1  0  0  0
 39 31  2  0  0  0
  3  4  1  0  0  0
M  END
> <minimizedAffinity>
-7.08516

> <CNNscore>
0.1655378938

> <CNNaffinity>
6.9639711380

> <CNN_VS>
1.1528011560

> <CNNaffinity_variance>
0.0139865447

$$$$
[H]c1nc(-c2c([H])nc(N3C([H])([H])C([H])([H])C([H])([H])[C@]3([H])C(F)(F)F)nc2[H])nc(N([H])C(=O)[C@@]([H])(n2c([H])nc3c2c(=O)n(C([H])([H])C#N)c(=O)n3C([H])([H])[H])C([H])([H])[H])c1[H]


 42 46  0  0  0  0  0  0  0  0999 V2000
  152.5595  135.2595  185.0488 C   0  0  0  0  0  0  0  0  0  0  0  0
  153.5145  134.5221  184.7450 O   0  0  0  0  0  0  0  0  0  0  0  0
  152.6919  136.4814  185.6838 N   0  0  0  0  0  0  0  0  0  0  0  0
  151.7796  137.0173  185.8805 H   0  0  0  0  0  0  0  0  0  0  0  0
  153.8657  137.1145  186.1407 C   0  0  0  0  0  0  0  0  0  0  0  0
  154.3920  136.9620  187.4010 C   0  0  0  0  0  0  0  0  0  0  0  0
  155.5435  137.6330  187.7641 C   0  0  0  0  0  0  0  0  0  0  0  0
  156.1464  138.4321  186.8814 N   0  0  0  0  0  0  0  0  0  0  0  0
  155.6634  138.6035  185.6429 C   0  0  0  0  0  0  0  0  0  0  0  0
  154.5579  137.9518  185.3167 N   0  0  0  0  0  0  0  0  0  0  0  0
  156.3313  139.4873  184.6834 C   0  0  0  0  0  0  0  0  0  0  0  0
  157.6166  139.9203  184.8897 C   0  0  0  0  0  0  0  0  0  0  0  0
  158.2005  140.7206  183.9462 N   0  0  0  0  0  0  0  0  0  0  0  0
  157.5724  141.0971  182.8312 C   0  0  0  0  0  0  0  0  0  0  0  0
  156.2995  140.6662  182.6313 N   0  0  0  0  0  0  0  0  0  0  0  0
  155.6866  139.8823  183.5267 C   0  0  0  0  0  0  0  0  0  0  0  0
  158.1297  141.9481  181.8235 N   0  0  0  0  0  0  0  0  0  0  0  0
  159.2679  141.6074  181.0036 C   0  0  0  0  0  0  0  0  0  0  0  0
  158.8367  142.1035  179.6419 C   0  0  0  0  0  0  0  0  0  0  0  0
  158.0071  143.3327  179.9641 C   0  0  0  0  0  0  0  0  0  0  0  0
  157.6494  143.2344  181.4404 C   0  0  0  0  0  0  0  0  0  0  0  0
  158.3109  144.3893  182.1578 C   0  0  0  0  0  0  0  0  0  0  0  0
  159.2703  145.0159  181.4059 F   0  0  0  0  0  0  0  0  0  0  0  0
  157.4126  145.3413  182.5650 F   0  0  0  0  0  0  0  0  0  0  0  0
  158.9589  143.8872  183.2969 F   0  0  0  0  0  0  0  0  0  0  0  0
  150.9873  134.5777  183.2229 C   0  0  0  0  0  0  0  0  0  0  0  0
  151.1992  134.7523  184.6900 C   0  0  0  0  0  0  0  0  0  0  0  0
  150.1193  135.3175  185.4298 N   0  0  0  0  0  0  0  0  0  0  0  0
  149.3369  136.3843  185.0860 C   0  0  0  0  0  0  0  0  0  0  0  0
  148.4260  136.6453  186.0225 N   0  0  0  0  0  0  0  0  0  0  0  0
  148.5830  135.7411  187.0324 C   0  0  0  0  0  0  0  0  0  0  0  0
  147.8980  135.6172  188.1900 N   0  0  0  0  0  0  0  0  0  0  0  0
  146.8115  136.5183  188.5039 C   0  0  0  0  0  0  0  0  0  0  0  0
  148.2860  134.6287  189.0041 C   0  0  0  0  0  0  0  0  0  0  0  0
  147.7003  134.4406  190.1118 O   0  0  0  0  0  0  0  0  0  0  0  0
  149.3134  133.8042  188.6698 N   0  0  0  0  0  0  0  0  0  0  0  0
  149.9998  133.9198  187.5201 C   0  0  0  0  0  0  0  0  0  0  0  0
  150.9370  133.1761  187.2016 O   0  0  0  0  0  0  0  0  0  0  0  0
  149.6282  134.9345  186.6474 C   0  0  0  0  0  0  0  0  0  0  0  0
  149.7027  132.7480  189.5872 C   0  0  0  0  0  0  0  0  0  0  0  0
  150.7209  133.2796  190.5023 C   0  0  0  0  0  0  0  0  0  0  0  0
  151.5272  133.6921  191.2309 N   0  0  0  0  0  0  0  0  0  0  0  0
 26 27  1  0  0  0
 27  1  1  0  0  0
  1  2  2  0  0  0
  1  3  1  0  0  0
  3  5  1  0  0  0
  5  6  2  0  0  0
  6  7  1  0  0  0
  7  8  2  0  0  0
  8  9  1  0  0  0
  9 10  2  0  0  0
  9 11  1  0  0  0
 11 12  2  0  0  0
 12 13  1  0  0  0
 13 14  2  0  0  0
 14 15  1  0  0  0
 15 16  2  0  0  0
 14 17  1  0  0  0
 17 18  1  0  0  0
 18 19  1  0  0  0
 19 20  1  0  0  0
 20 21  1  0  0  0
 21 22  1  0  0  0
 22 23  1  0  0  0
 22 24  1  0  0  0
 22 25  1  0  0  0
 27 28  1  0  0  0
 28 29  1  0  0  0
 29 30  2  0  0  0
 30 31  1  0  0  0
 31 32  1  0  0  0
 32 33  1  0  0  0
 32 34  1  0  0  0
 34 35  2  0  0  0
 34 36  1  0  0  0
 36 40  1  0  0  0
 40 41  1  0  0  0
 41 42  3  0  0  0
 36 37  1  0  0  0
 37 38  2  0  0  0
 37 39  1  0  0  0
 10  5  1  0  0  0
 16 11  1  0  0  0
 21 17  1  0  0  0
 39 28  1  0  0  0
 39 31  2  0  0  0
  3  4  1  0  0  0
M  END
> <minimizedAffinity>
-6.22662

> <CNNscore>
0.1424985528

> <CNNaffinity>
6.5321617126

> <CNN_VS>
0.9308235645

> <CNNaffinity_variance>
0.4427092671

$$$$
[H]c1nc(-c2c([H])nc(N3C([H])([H])C([H])([H])C([H])([H])[C@]3([H])C(F)(F)F)nc2[H])nc(N([H])C(=O)[C@@]([H])(n2c([H])nc3c2c(=O)n(C([H])([H])C#N)c(=O)n3C([H])([H])[H])C([H])([H])[H])c1[H]


 42 46  0  0  0  0  0  0  0  0999 V2000
  151.6726  134.2374  185.9584 C   0  0  0  0  0  0  0  0  0  0  0  0
  152.6058  133.4191  185.8706 O   0  0  0  0  0  0  0  0  0  0  0  0
  151.8213  135.5426  186.3920 N   0  0  0  0  0  0  0  0  0  0  0  0
  150.9280  136.1425  186.4120 H   0  0  0  0  0  0  0  0  0  0  0  0
  152.9869  136.1935  186.8446 C   0  0  0  0  0  0  0  0  0  0  0  0
  153.5498  136.0088  188.0847 C   0  0  0  0  0  0  0  0  0  0  0  0
  154.6896  136.7005  188.4456 C   0  0  0  0  0  0  0  0  0  0  0  0
  155.2455  137.5513  187.5805 N   0  0  0  0  0  0  0  0  0  0  0  0
  154.7260  137.7554  186.3620 C   0  0  0  0  0  0  0  0  0  0  0  0
  153.6324  137.0829  186.0375 N   0  0  0  0  0  0  0  0  0  0  0  0
  155.3423  138.6958  185.4219 C   0  0  0  0  0  0  0  0  0  0  0  0
  154.6384  139.2056  184.3605 C   0  0  0  0  0  0  0  0  0  0  0  0
  155.2553  140.1023  183.5318 N   0  0  0  0  0  0  0  0  0  0  0  0
  156.5144  140.5040  183.7133 C   0  0  0  0  0  0  0  0  0  0  0  0
  157.2078  139.9962  184.7655 N   0  0  0  0  0  0  0  0  0  0  0  0
  156.6464  139.1157  185.6030 C   0  0  0  0  0  0  0  0  0  0  0  0
  157.2122  141.4230  182.8657 N   0  0  0  0  0  0  0  0  0  0  0  0
  158.6459  141.5901  182.8463 C   0  0  0  0  0  0  0  0  0  0  0  0
  158.9318  141.6981  181.3653 C   0  0  0  0  0  0  0  0  0  0  0  0
  157.7064  142.4108  180.8237 C   0  0  0  0  0  0  0  0  0  0  0  0
  156.6304  142.2880  181.8934 C   0  0  0  0  0  0  0  0  0  0  0  0
  156.3158  143.6776  182.3994 C   0  0  0  0  0  0  0  0  0  0  0  0
  155.7219  143.6827  183.6346 F   0  0  0  0  0  0  0  0  0  0  0  0
  157.4264  144.4781  182.4674 F   0  0  0  0  0  0  0  0  0  0  0  0
  155.4041  144.2728  181.5138 F   0  0  0  0  0  0  0  0  0  0  0  0
  149.7914  132.6611  186.4556 C   0  0  0  0  0  0  0  0  0  0  0  0
  150.3204  133.7350  185.5641 C   0  0  0  0  0  0  0  0  0  0  0  0
  150.1145  133.5634  184.1637 N   0  0  0  0  0  0  0  0  0  0  0  0
  150.1415  132.3977  183.4502 C   0  0  0  0  0  0  0  0  0  0  0  0
  149.9166  132.6114  182.1546 N   0  0  0  0  0  0  0  0  0  0  0  0
  149.7309  133.9507  181.9703 C   0  0  0  0  0  0  0  0  0  0  0  0
  149.4829  134.6360  180.8329 N   0  0  0  0  0  0  0  0  0  0  0  0
  149.3689  133.9469  179.5668 C   0  0  0  0  0  0  0  0  0  0  0  0
  149.3543  135.9620  180.9575 C   0  0  0  0  0  0  0  0  0  0  0  0
  149.1223  136.6837  179.9422 O   0  0  0  0  0  0  0  0  0  0  0  0
  149.4692  136.5696  182.1678 N   0  0  0  0  0  0  0  0  0  0  0  0
  149.7153  135.8956  183.3042 C   0  0  0  0  0  0  0  0  0  0  0  0
  149.8217  136.4348  184.4136 O   0  0  0  0  0  0  0  0  0  0  0  0
  149.8561  134.5164  183.2175 C   0  0  0  0  0  0  0  0  0  0  0  0
  149.3270  138.0122  182.2537 C   0  0  0  0  0  0  0  0  0  0  0  0
  147.9217  138.3239  182.5447 C   0  0  0  0  0  0  0  0  0  0  0  0
  146.8122  138.5764  182.7820 N   0  0  0  0  0  0  0  0  0  0  0  0
 26 27  1  0  0  0
 27  1  1  0  0  0
  1  2  2  0  0  0
  1  3  1  0  0  0
  3  5  1  0  0  0
  5  6  2  0  0  0
  6  7  1  0  0  0
  7  8  2  0  0  0
  8  9  1  0  0  0
  9 10  2  0  0  0
  9 11  1  0  0  0
 11 12  2  0  0  0
 12 13  1  0  0  0
 13 14  2  0  0  0
 14 15  1  0  0  0
 15 16  2  0  0  0
 14 17  1  0  0  0
 17 18  1  0  0  0
 18 19  1  0  0  0
 19 20  1  0  0  0
 20 21  1  0  0  0
 21 22  1  0  0  0
 22 23  1  0  0  0
 22 24  1  0  0  0
 22 25  1  0  0  0
 27 28  1  0  0  0
 28 29  1  0  0  0
 29 30  2  0  0  0
 30 31  1  0  0  0
 31 32  1  0  0  0
 32 33  1  0  0  0
 32 34  1  0  0  0
 34 35  2  0  0  0
 34 36  1  0  0  0
 36 40  1  0  0  0
 40 41  1  0  0  0
 41 42  3  0  0  0
 36 37  1  0  0  0
 37 38  2  0  0  0
 37 39  1  0  0  0
 10  5  1  0  0  0
 16 11  1  0  0  0
 21 17  1  0  0  0
 39 28  1  0  0  0
 39 31  2  0  0  0
  3  4  1  0  0  0
M  END
> <minimizedAffinity>
-5.59090

> <CNNscore>
0.1349630207

> <CNNaffinity>
6.5747094154

> <CNN_VS>
0.8873426318

> <CNNaffinity_variance>
0.2379176170

$$$$
[H]c1c([H])c([C@]2([H])N(S(=O)(=O)c3c([H])c(C([H])([H])[H])c(F)c(C([H])([H])[H])c3[H])C([H])([H])C([H])([H])[C@@]2([H])F)c([H])c([H])c1F


 25 27  0  0  0  0  0  0  0  0999 V2000
  155.9118  140.7428  184.0761 N   0  0  0  0  0  0  0  0  0  0  0  0
  155.0751  141.7740  183.5124 C   0  0  0  0  0  0  0  0  0  0  0  0
  154.1326  141.0540  182.5497 C   0  0  0  0  0  0  0  0  0  0  0  0
  153.9003  139.7493  183.3003 C   0  0  0  0  0  0  0  0  0  0  0  0
  153.5223  138.7177  182.4965 F   0  0  0  0  0  0  0  0  0  0  0  0
  155.2014  139.4999  184.0412 C   0  0  0  0  0  0  0  0  0  0  0  0
  154.9695  138.9212  185.3989 C   0  0  0  0  0  0  0  0  0  0  0  0
  155.9754  138.4441  186.2079 C   0  0  0  0  0  0  0  0  0  0  0  0
  155.7000  137.9037  187.4688 C   0  0  0  0  0  0  0  0  0  0  0  0
  154.4095  137.8309  187.9442 C   0  0  0  0  0  0  0  0  0  0  0  0
  154.1391  137.3021  189.1781 F   0  0  0  0  0  0  0  0  0  0  0  0
  153.4021  138.3089  187.1342 C   0  0  0  0  0  0  0  0  0  0  0  0
  153.6766  138.8406  185.8923 C   0  0  0  0  0  0  0  0  0  0  0  0
  157.3488  140.6203  183.0939 S   0  0  0  0  0  0  0  0  0  0  0  0
  156.9470  140.6617  181.6270 O   0  0  0  0  0  0  0  0  0  0  0  0
  158.0413  139.3025  183.2818 O   0  0  0  0  0  0  0  0  0  0  0  0
  159.2683  145.3576  182.0114 C   0  0  0  0  0  0  0  0  0  0  0  0
  159.3048  144.1379  182.8582 C   0  0  0  0  0  0  0  0  0  0  0  0
  158.4440  143.0867  182.6292 C   0  0  0  0  0  0  0  0  0  0  0  0
  158.4608  141.9315  183.4120 C   0  0  0  0  0  0  0  0  0  0  0  0
  159.3962  141.9067  184.4339 C   0  0  0  0  0  0  0  0  0  0  0  0
  160.2560  142.9598  184.6605 C   0  0  0  0  0  0  0  0  0  0  0  0
  161.2448  142.8982  185.7640 C   0  0  0  0  0  0  0  0  0  0  0  0
  160.2288  144.0943  183.8801 C   0  0  0  0  0  0  0  0  0  0  0  0
  161.0827  145.1298  184.1120 F   0  0  0  0  0  0  0  0  0  0  0  0
 17 18  1  0  0  0
 18 19  2  0  0  0
 19 20  1  0  0  0
 20 21  2  0  0  0
 21 22  1  0  0  0
 22 23  1  0  0  0
 22 24  2  0  0  0
 24 25  1  0  0  0
 20 14  1  0  0  0
 14 15  2  0  0  0
 14 16  2  0  0  0
 14  1  1  0  0  0
  1  2  1  0  0  0
  2  3  1  0  0  0
  3  4  1  0  0  0
  4  5  1  0  0  0
  4  6  1  0  0  0
  6  7  1  0  0  0
  7  8  2  0  0  0
  8  9  1  0  0  0
  9 10  2  0  0  0
 10 11  1  0  0  0
 10 12  1  0  0  0
 12 13  2  0  0  0
 24 18  1  0  0  0
  6  1  1  0  0  0
 13  7  1  0  0  0
M  END
> <minimizedAffinity>
-9.15785

> <CNNscore>
0.5653629303

> <CNNaffinity>
6.3506417274

> <CNN_VS>
3.5904173851

> <CNNaffinity_variance>
0.0392091163

$$$$
[H]c1c([H])c([C@]2([H])N(S(=O)(=O)c3c([H])c(C([H])([H])[H])c(F)c(C([H])([H])[H])c3[H])C([H])([H])C([H])([H])[C@@]2([H])F)c([H])c([H])c1F


 25 27  0  0  0  0  0  0  0  0999 V2000
  152.2799  135.1877  187.9166 N   0  0  0  0  0  0  0  0  0  0  0  0
  152.3983  134.2623  186.8162 C   0  0  0  0  0  0  0  0  0  0  0  0
  152.2452  135.1083  185.5534 C   0  0  0  0  0  0  0  0  0  0  0  0
  152.9476  136.3900  185.9817 C   0  0  0  0  0  0  0  0  0  0  0  0
  152.5511  137.4888  185.2828 F   0  0  0  0  0  0  0  0  0  0  0  0
  152.6836  136.4881  187.4733 C   0  0  0  0  0  0  0  0  0  0  0  0
  153.8663  137.0178  188.2167 C   0  0  0  0  0  0  0  0  0  0  0  0
  153.7929  138.0268  189.1497 C   0  0  0  0  0  0  0  0  0  0  0  0
  154.9356  138.4907  189.8106 C   0  0  0  0  0  0  0  0  0  0  0  0
  156.1758  137.9517  189.5491 C   0  0  0  0  0  0  0  0  0  0  0  0
  157.2946  138.4052  190.1954 F   0  0  0  0  0  0  0  0  0  0  0  0
  156.2492  136.9411  188.6150 C   0  0  0  0  0  0  0  0  0  0  0  0
  155.1216  136.4863  187.9654 C   0  0  0  0  0  0  0  0  0  0  0  0
  150.6048  135.2321  188.4034 S   0  0  0  0  0  0  0  0  0  0  0  0
  149.9282  133.9448  187.9557 O   0  0  0  0  0  0  0  0  0  0  0  0
  149.8549  136.3369  187.7190 O   0  0  0  0  0  0  0  0  0  0  0  0
  148.5066  133.7376  192.9490 C   0  0  0  0  0  0  0  0  0  0  0  0
  149.4315  134.6384  192.2147 C   0  0  0  0  0  0  0  0  0  0  0  0
  149.5784  134.5465  190.8477 C   0  0  0  0  0  0  0  0  0  0  0  0
  150.4412  135.3824  190.1376 C   0  0  0  0  0  0  0  0  0  0  0  0
  151.1413  136.3104  190.8916 C   0  0  0  0  0  0  0  0  0  0  0  0
  150.9922  136.3999  192.2589 C   0  0  0  0  0  0  0  0  0  0  0  0
  151.7582  137.4060  193.0338 C   0  0  0  0  0  0  0  0  0  0  0  0
  150.1369  135.5686  192.9475 C   0  0  0  0  0  0  0  0  0  0  0  0
  149.9964  135.6649  194.2988 F   0  0  0  0  0  0  0  0  0  0  0  0
 17 18  1  0  0  0
 18 19  2  0  0  0
 19 20  1  0  0  0
 20 21  2  0  0  0
 21 22  1  0  0  0
 22 23  1  0  0  0
 22 24  2  0  0  0
 24 25  1  0  0  0
 20 14  1  0  0  0
 14 15  2  0  0  0
 14 16  2  0  0  0
 14  1  1  0  0  0
  1  2  1  0  0  0
  2  3  1  0  0  0
  3  4  1  0  0  0
  4  5  1  0  0  0
  4  6  1  0  0  0
  6  7  1  0  0  0
  7  8  2  0  0  0
  8  9  1  0  0  0
  9 10  2  0  0  0
 10 11  1  0  0  0
 10 12  1  0  0  0
 12 13  2  0  0  0
 24 18  1  0  0  0
  6  1  1  0  0  0
 13  7  1  0  0  0
M  END
> <minimizedAffinity>
-6.00853

> <CNNscore>
0.5649220347

> <CNNaffinity>
5.3319101334

> <CNN_VS>
3.0121135712

> <CNNaffinity_variance>
0.0642784387

$$$$
[H]c1c([H])c([C@]2([H])N(S(=O)(=O)c3c([H])c(C([H])([H])[H])c(F)c(C([H])([H])[H])c3[H])C([H])([H])C([H])([H])[C@@]2([H])F)c([H])c([H])c1F


 25 27  0  0  0  0  0  0  0  0999 V2000
  157.7572  141.0285  182.9936 N   0  0  0  0  0  0  0  0  0  0  0  0
  158.1537  140.2874  181.8211 C   0  0  0  0  0  0  0  0  0  0  0  0
  158.4629  141.3402  180.7581 C   0  0  0  0  0  0  0  0  0  0  0  0
  159.0789  142.4383  181.6149 C   0  0  0  0  0  0  0  0  0  0  0  0
  158.9970  143.6768  181.0558 F   0  0  0  0  0  0  0  0  0  0  0  0
  158.3661  142.3239  182.9502 C   0  0  0  0  0  0  0  0  0  0  0  0
  159.2874  142.5752  184.0991 C   0  0  0  0  0  0  0  0  0  0  0  0
  160.3435  143.4565  184.0527 C   0  0  0  0  0  0  0  0  0  0  0  0
  161.1811  143.6466  185.1572 C   0  0  0  0  0  0  0  0  0  0  0  0
  160.9763  142.9565  186.3314 C   0  0  0  0  0  0  0  0  0  0  0  0
  161.7957  143.1420  187.4128 F   0  0  0  0  0  0  0  0  0  0  0  0
  159.9186  142.0743  186.3780 C   0  0  0  0  0  0  0  0  0  0  0  0
  159.0952  141.8890  185.2880 C   0  0  0  0  0  0  0  0  0  0  0  0
  156.0210  141.1993  182.9595 S   0  0  0  0  0  0  0  0  0  0  0  0
  155.5548  141.1963  181.5112 O   0  0  0  0  0  0  0  0  0  0  0  0
  155.5801  142.5199  183.5189 O   0  0  0  0  0  0  0  0  0  0  0  0
  155.7602  137.8201  186.9359 C   0  0  0  0  0  0  0  0  0  0  0  0
  155.1651  138.3529  185.6836 C   0  0  0  0  0  0  0  0  0  0  0  0
  155.7692  139.3781  184.9889 C   0  0  0  0  0  0  0  0  0  0  0  0
  155.2280  139.8940  183.8106 C   0  0  0  0  0  0  0  0  0  0  0  0
  154.0458  139.3120  183.3822 C   0  0  0  0  0  0  0  0  0  0  0  0
  153.4439  138.2866  184.0794 C   0  0  0  0  0  0  0  0  0  0  0  0
  152.1784  137.6875  183.5907 C   0  0  0  0  0  0  0  0  0  0  0  0
  153.9889  137.7867  185.2412 C   0  0  0  0  0  0  0  0  0  0  0  0
  153.3866  136.7731  185.9230 F   0  0  0  0  0  0  0  0  0  0  0  0
 17 18  1  0  0  0
 18 19  2  0  0  0
 19 20  1  0  0  0
 20 21  2  0  0  0
 21 22  1  0  0  0
 22 23  1  0  0  0
 22 24  2  0  0  0
 24 25  1  0  0  0
 20 14  1  0  0  0
 14 15  2  0  0  0
 14 16  2  0  0  0
 14  1  1  0  0  0
  1  2  1  0  0  0
  2  3  1  0  0  0
  3  4  1  0  0  0
  4  5  1  0  0  0
  4  6  1  0  0  0
  6  7  1  0  0  0
  7  8  2  0  0  0
  8  9  1  0  0  0
  9 10  2  0  0  0
 10 11  1  0  0  0
 10 12  1  0  0  0
 12 13  2  0  0  0
 24 18  1  0  0  0
  6  1  1  0  0  0
 13  7  1  0  0  0
M  END
> <minimizedAffinity>
-9.76379

> <CNNscore>
0.5554671288

> <CNNaffinity>
6.4021425247

> <CNN_VS>
3.5561797619

> <CNNaffinity_variance>
0.0463366695

$$$$
[H]c1c([H])c([C@]2([H])N(S(=O)(=O)c3c([H])c(C([H])([H])[H])c(F)c(C([H])([H])[H])c3[H])C([H])([H])C([H])([H])[C@@]2([H])F)c([H])c([H])c1F


 25 27  0  0  0  0  0  0  0  0999 V2000
  155.9222  140.7364  184.1448 N   0  0  0  0  0  0  0  0  0  0  0  0
  155.1218  141.8010  183.5906 C   0  0  0  0  0  0  0  0  0  0  0  0
  154.1780  141.1267  182.5964 C   0  0  0  0  0  0  0  0  0  0  0  0
  153.8998  139.8123  183.3135 C   0  0  0  0  0  0  0  0  0  0  0  0
  153.5098  138.8086  182.4806 F   0  0  0  0  0  0  0  0  0  0  0  0
  155.1813  139.5133  184.0703 C   0  0  0  0  0  0  0  0  0  0  0  0
  154.9115  138.9110  185.4106 C   0  0  0  0  0  0  0  0  0  0  0  0
  153.6522  138.7827  185.9508 C   0  0  0  0  0  0  0  0  0  0  0  0
  153.4578  138.2180  187.2162 C   0  0  0  0  0  0  0  0  0  0  0  0
  154.5230  137.7702  187.9657 C   0  0  0  0  0  0  0  0  0  0  0  0
  154.3336  137.2175  189.2042 F   0  0  0  0  0  0  0  0  0  0  0  0
  155.7839  137.8985  187.4246 C   0  0  0  0  0  0  0  0  0  0  0  0
  155.9723  138.4554  186.1777 C   0  0  0  0  0  0  0  0  0  0  0  0
  157.3724  140.5987  183.1842 S   0  0  0  0  0  0  0  0  0  0  0  0
  156.9845  140.5340  181.7144 O   0  0  0  0  0  0  0  0  0  0  0  0
  158.1046  139.3187  183.4613 O   0  0  0  0  0  0  0  0  0  0  0  0
  161.1857  143.0154  185.8142 C   0  0  0  0  0  0  0  0  0  0  0  0
  160.2145  143.0295  184.6905 C   0  0  0  0  0  0  0  0  0  0  0  0
  159.3588  141.9710  184.4763 C   0  0  0  0  0  0  0  0  0  0  0  0
  158.4386  141.9629  183.4272 C   0  0  0  0  0  0  0  0  0  0  0  0
  158.4385  143.0847  182.6139 C   0  0  0  0  0  0  0  0  0  0  0  0
  159.2957  144.1420  182.8307 C   0  0  0  0  0  0  0  0  0  0  0  0
  159.2673  145.3270  181.9395 C   0  0  0  0  0  0  0  0  0  0  0  0
  160.1991  144.1371  183.8702 C   0  0  0  0  0  0  0  0  0  0  0  0
  161.0422  145.1868  184.0762 F   0  0  0  0  0  0  0  0  0  0  0  0
 17 18  1  0  0  0
 18 19  2  0  0  0
 19 20  1  0  0  0
 20 21  2  0  0  0
 21 22  1  0  0  0
 22 23  1  0  0  0
 22 24  2  0  0  0
 24 25  1  0  0  0
 20 14  1  0  0  0
 14 15  2  0  0  0
 14 16  2  0  0  0
 14  1  1  0  0  0
  1  2  1  0  0  0
  2  3  1  0  0  0
  3  4  1  0  0  0
  4  5  1  0  0  0
  4  6  1  0  0  0
  6  7  1  0  0  0
  7  8  2  0  0  0
  8  9  1  0  0  0
  9 10  2  0  0  0
 10 11  1  0  0  0
 10 12  1  0  0  0
 12 13  2  0  0  0
 24 18  1  0  0  0
  6  1  1  0  0  0
 13  7  1  0  0  0
M  END
> <minimizedAffinity>
-9.07154

> <CNNscore>
0.5513158441

> <CNNaffinity>
6.3458471298

> <CNN_VS>
3.4985661507

> <CNNaffinity_variance>
0.0366154723

$$$$
[H]c1c([H])c([C@]2([H])N(S(=O)(=O)c3c([H])c(C([H])([H])[H])c(F)c(C([H])([H])[H])c3[H])C([H])([H])C([H])([H])[C@@]2([H])F)c([H])c([H])c1F


 25 27  0  0  0  0  0  0  0  0999 V2000
  157.3674  141.1948  183.5794 N   0  0  0  0  0  0  0  0  0  0  0  0
  157.4769  139.9683  182.8278 C   0  0  0  0  0  0  0  0  0  0  0  0
  158.2447  140.3345  181.5589 C   0  0  0  0  0  0  0  0  0  0  0  0
  159.2185  141.3710  182.1037 C   0  0  0  0  0  0  0  0  0  0  0  0
  159.6837  142.2325  181.1579 F   0  0  0  0  0  0  0  0  0  0  0  0
  158.4594  142.0520  183.2281 C   0  0  0  0  0  0  0  0  0  0  0  0
  159.3460  142.3735  184.3867 C   0  0  0  0  0  0  0  0  0  0  0  0
  159.1202  141.9263  185.6685 C   0  0  0  0  0  0  0  0  0  0  0  0
  159.9797  142.2657  186.7192 C   0  0  0  0  0  0  0  0  0  0  0  0
  161.0837  143.0608  186.5055 C   0  0  0  0  0  0  0  0  0  0  0  0
  161.9253  143.3934  187.5332 F   0  0  0  0  0  0  0  0  0  0  0  0
  161.3100  143.5084  185.2219 C   0  0  0  0  0  0  0  0  0  0  0  0
  160.4613  143.1724  184.1888 C   0  0  0  0  0  0  0  0  0  0  0  0
  155.8616  141.9604  183.1420 S   0  0  0  0  0  0  0  0  0  0  0  0
  156.0697  142.7614  181.8652 O   0  0  0  0  0  0  0  0  0  0  0  0
  155.4238  142.9583  184.1734 O   0  0  0  0  0  0  0  0  0  0  0  0
  153.3309  137.5780  184.4415 C   0  0  0  0  0  0  0  0  0  0  0  0
  153.4630  138.7429  183.5296 C   0  0  0  0  0  0  0  0  0  0  0  0
  154.4530  139.6831  183.7153 C   0  0  0  0  0  0  0  0  0  0  0  0
  154.5957  140.7851  182.8711 C   0  0  0  0  0  0  0  0  0  0  0  0
  153.6807  140.8758  181.8346 C   0  0  0  0  0  0  0  0  0  0  0  0
  152.6915  139.9336  181.6514 C   0  0  0  0  0  0  0  0  0  0  0  0
  151.7291  140.0630  180.5305 C   0  0  0  0  0  0  0  0  0  0  0  0
  152.5619  138.8506  182.4922 C   0  0  0  0  0  0  0  0  0  0  0  0
  151.5810  137.9248  182.3029 F   0  0  0  0  0  0  0  0  0  0  0  0
 17 18  1  0  0  0
 18 19  2  0  0  0
 19 20  1  0  0  0
 20 21  2  0  0  0
 21 22  1  0  0  0
 22 23  1  0  0  0
 22 24  2  0  0  0
 24 25  1  0  0  0
 20 14  1  0  0  0
 14 15  2  0  0  0
 14 16  2  0  0  0
 14  1  1  0  0  0
  1  2  1  0  0  0
  2  3  1  0  0  0
  3  4  1  0  0  0
  4  5  1  0  0  0
  4  6  1  0  0  0
  6  7  1  0  0  0
  7  8  2  0  0  0
  8  9  1  0  0  0
  9 10  2  0  0  0
 10 11  1  0  0  0
 10 12  1  0  0  0
 12 13  2  0  0  0
 24 18  1  0  0  0
  6  1  1  0  0  0
 13  7  1  0  0  0
M  END
> <minimizedAffinity>
-10.03829

> <CNNscore>
0.5461527109

> <CNNaffinity>
6.4331388474

> <CNN_VS>
3.5134761333

> <CNNaffinity_variance>
0.1071759239

$$$$
[H]c1c([H])c([C@]2([H])N(S(=O)(=O)c3c([H])c(C([H])([H])[H])c(F)c(C([H])([H])[H])c3[H])C([H])([H])C([H])([H])[C@@]2([H])F)c([H])c([H])c1F


 25 27  0  0  0  0  0  0  0  0999 V2000
  155.2948  136.6343  188.8477 N   0  0  0  0  0  0  0  0  0  0  0  0
  155.3935  138.0690  188.9634 C   0  0  0  0  0  0  0  0  0  0  0  0
  155.6595  138.3418  190.4427 C   0  0  0  0  0  0  0  0  0  0  0  0
  156.5459  137.1550  190.7968 C   0  0  0  0  0  0  0  0  0  0  0  0
  156.5364  136.8435  192.1220 F   0  0  0  0  0  0  0  0  0  0  0  0
  156.0526  136.0317  189.9029 C   0  0  0  0  0  0  0  0  0  0  0  0
  157.1745  135.1806  189.4041 C   0  0  0  0  0  0  0  0  0  0  0  0
  157.6947  135.2704  188.1331 C   0  0  0  0  0  0  0  0  0  0  0  0
  158.7413  134.4411  187.7154 C   0  0  0  0  0  0  0  0  0  0  0  0
  159.2878  133.5043  188.5643 C   0  0  0  0  0  0  0  0  0  0  0  0
  160.3120  132.6922  188.1562 F   0  0  0  0  0  0  0  0  0  0  0  0
  158.7670  133.4145  189.8371 C   0  0  0  0  0  0  0  0  0  0  0  0
  157.7357  134.2329  190.2457 C   0  0  0  0  0  0  0  0  0  0  0  0
  153.6140  136.1963  189.0140 S   0  0  0  0  0  0  0  0  0  0  0  0
  153.3566  134.9234  188.2211 O   0  0  0  0  0  0  0  0  0  0  0  0
  152.7069  137.2308  188.4153 O   0  0  0  0  0  0  0  0  0  0  0  0
  152.0173  137.9257  193.6786 C   0  0  0  0  0  0  0  0  0  0  0  0
  152.4364  136.7849  192.8248 C   0  0  0  0  0  0  0  0  0  0  0  0
  152.7860  136.9743  191.5055 C   0  0  0  0  0  0  0  0  0  0  0  0
  153.1827  135.9174  190.6853 C   0  0  0  0  0  0  0  0  0  0  0  0
  153.2034  134.6656  191.2790 C   0  0  0  0  0  0  0  0  0  0  0  0
  152.8532  134.4793  192.5990 C   0  0  0  0  0  0  0  0  0  0  0  0
  152.8874  133.1245  193.2012 C   0  0  0  0  0  0  0  0  0  0  0  0
  152.4635  135.5314  193.3976 C   0  0  0  0  0  0  0  0  0  0  0  0
  152.1193  135.3372  194.7009 F   0  0  0  0  0  0  0  0  0  0  0  0
 17 18  1  0  0  0
 18 19  2  0  0  0
 19 20  1  0  0  0
 20 21  2  0  0  0
 21 22  1  0  0  0
 22 23  1  0  0  0
 22 24  2  0  0  0
 24 25  1  0  0  0
 20 14  1  0  0  0
 14 15  2  0  0  0
 14 16  2  0  0  0
 14  1  1  0  0  0
  1  2  1  0  0  0
  2  3  1  0  0  0
  3  4  1  0  0  0
  4  5  1  0  0  0
  4  6  1  0  0  0
  6  7  1  0  0  0
  7  8  2  0  0  0
  8  9  1  0  0  0
  9 10  2  0  0  0
 10 11  1  0  0  0
 10 12  1  0  0  0
 12 13  2  0  0  0
 24 18  1  0  0  0
  6  1  1  0  0  0
 13  7  1  0  0  0
M  END
> <minimizedAffinity>
-7.04204

> <CNNscore>
0.5445933342

> <CNNaffinity>
5.2659602165

> <CNN_VS>
2.8678069115

> <CNNaffinity_variance>
0.2160962820

$$$$
[H]c1c([H])c([C@]2([H])N(S(=O)(=O)c3c([H])c(C([H])([H])[H])c(F)c(C([H])([H])[H])c3[H])C([H])([H])C([H])([H])[C@@]2([H])F)c([H])c([H])c1F


 25 27  0  0  0  0  0  0  0  0999 V2000
  157.3759  141.1486  183.5817 N   0  0  0  0  0  0  0  0  0  0  0  0
  157.4956  139.9189  182.8369 C   0  0  0  0  0  0  0  0  0  0  0  0
  158.2732  140.2814  181.5730 C   0  0  0  0  0  0  0  0  0  0  0  0
  159.2392  141.3234  182.1213 C   0  0  0  0  0  0  0  0  0  0  0  0
  159.7100  142.1818  181.1753 F   0  0  0  0  0  0  0  0  0  0  0  0
  158.4683  142.0075  183.2357 C   0  0  0  0  0  0  0  0  0  0  0  0
  159.3439  142.3371  184.4005 C   0  0  0  0  0  0  0  0  0  0  0  0
  159.0785  141.9418  185.6917 C   0  0  0  0  0  0  0  0  0  0  0  0
  159.9296  142.2867  186.7473 C   0  0  0  0  0  0  0  0  0  0  0  0
  161.0649  143.0352  186.5293 C   0  0  0  0  0  0  0  0  0  0  0  0
  161.8984  143.3731  187.5619 F   0  0  0  0  0  0  0  0  0  0  0  0
  161.3309  143.4308  185.2362 C   0  0  0  0  0  0  0  0  0  0  0  0
  160.4904  143.0896  184.1982 C   0  0  0  0  0  0  0  0  0  0  0  0
  155.8717  141.9075  183.1276 S   0  0  0  0  0  0  0  0  0  0  0  0
  156.0769  142.6655  181.8244 O   0  0  0  0  0  0  0  0  0  0  0  0
  155.4447  142.9408  184.1283 O   0  0  0  0  0  0  0  0  0  0  0  0
  151.7090  140.1097  180.5318 C   0  0  0  0  0  0  0  0  0  0  0  0
  152.6718  139.9488  181.6513 C   0  0  0  0  0  0  0  0  0  0  0  0
  153.6830  140.8620  181.8569 C   0  0  0  0  0  0  0  0  0  0  0  0
  154.5984  140.7307  182.9019 C   0  0  0  0  0  0  0  0  0  0  0  0
  154.4282  139.6255  183.7201 C   0  0  0  0  0  0  0  0  0  0  0  0
  153.4157  138.7138  183.5120 C   0  0  0  0  0  0  0  0  0  0  0  0
  153.2637  137.5423  184.4084 C   0  0  0  0  0  0  0  0  0  0  0  0
  152.5188  138.8554  182.4765 C   0  0  0  0  0  0  0  0  0  0  0  0
  151.5215  137.9491  182.2790 F   0  0  0  0  0  0  0  0  0  0  0  0
 17 18  1  0  0  0
 18 19  2  0  0  0
 19 20  1  0  0  0
 20 21  2  0  0  0
 21 22  1  0  0  0
 22 23  1  0  0  0
 22 24  2  0  0  0
 24 25  1  0  0  0
 20 14  1  0  0  0
 14 15  2  0  0  0
 14 16  2  0  0  0
 14  1  1  0  0  0
  1  2  1  0  0  0
  2  3  1  0  0  0
  3  4  1  0  0  0
  4  5  1  0  0  0
  4  6  1  0  0  0
  6  7  1  0  0  0
  7  8  2  0  0  0
  8  9  1  0  0  0
  9 10  2  0  0  0
 10 11  1  0  0  0
 10 12  1  0  0  0
 12 13  2  0  0  0
 24 18  1  0  0  0
  6  1  1  0  0  0
 13  7  1  0  0  0
M  END
> <minimizedAffinity>
-10.02859

> <CNNscore>
0.5311312079

> <CNNaffinity>
6.4000220299

> <CNN_VS>
3.3992514610

> <CNNaffinity_variance>
0.1052884683

$$$$
[H]c1c([H])c([C@]2([H])N(S(=O)(=O)c3c([H])c(C([H])([H])[H])c(F)c(C([H])([H])[H])c3[H])C([H])([H])C([H])([H])[C@@]2([H])F)c([H])c([H])c1F


 25 27  0  0  0  0  0  0  0  0999 V2000
  153.1126  137.3414  183.3686 N   0  0  0  0  0  0  0  0  0  0  0  0
  153.0959  135.9022  183.4673 C   0  0  0  0  0  0  0  0  0  0  0  0
  151.7617  135.5537  184.1249 C   0  0  0  0  0  0  0  0  0  0  0  0
  150.8569  136.6163  183.5151 C   0  0  0  0  0  0  0  0  0  0  0  0
  149.7512  136.8851  184.2623 F   0  0  0  0  0  0  0  0  0  0  0  0
  151.7631  137.8172  183.3132 C   0  0  0  0  0  0  0  0  0  0  0  0
  151.4519  138.5456  182.0466 C   0  0  0  0  0  0  0  0  0  0  0  0
  150.1806  138.9144  181.6700 C   0  0  0  0  0  0  0  0  0  0  0  0
  149.9453  139.5884  180.4666 C   0  0  0  0  0  0  0  0  0  0  0  0
  150.9807  139.9064  179.6160 C   0  0  0  0  0  0  0  0  0  0  0  0
  150.7513  140.5659  178.4381 F   0  0  0  0  0  0  0  0  0  0  0  0
  152.2539  139.5374  179.9932 C   0  0  0  0  0  0  0  0  0  0  0  0
  152.4825  138.8733  181.1794 C   0  0  0  0  0  0  0  0  0  0  0  0
  153.8935  137.9688  184.7974 S   0  0  0  0  0  0  0  0  0  0  0  0
  154.8075  136.8955  185.3699 O   0  0  0  0  0  0  0  0  0  0  0  0
  152.9049  138.2735  185.8842 O   0  0  0  0  0  0  0  0  0  0  0  0
  158.4313  140.5585  184.8105 C   0  0  0  0  0  0  0  0  0  0  0  0
  156.9848  140.5366  184.4736 C   0  0  0  0  0  0  0  0  0  0  0  0
  156.2072  139.4326  184.7473 C   0  0  0  0  0  0  0  0  0  0  0  0
  154.8467  139.3901  184.4396 C   0  0  0  0  0  0  0  0  0  0  0  0
  154.3259  140.5265  183.8418 C   0  0  0  0  0  0  0  0  0  0  0  0
  155.1063  141.6293  183.5693 C   0  0  0  0  0  0  0  0  0  0  0  0
  154.5145  142.8286  182.9284 C   0  0  0  0  0  0  0  0  0  0  0  0
  156.4481  141.6580  183.8783 C   0  0  0  0  0  0  0  0  0  0  0  0
  157.2111  142.7526  183.6051 F   0  0  0  0  0  0  0  0  0  0  0  0
 17 18  1  0  0  0
 18 19  2  0  0  0
 19 20  1  0  0  0
 20 21  2  0  0  0
 21 22  1  0  0  0
 22 23  1  0  0  0
 22 24  2  0  0  0
 24 25  1  0  0  0
 20 14  1  0  0  0
 14 15  2  0  0  0
 14 16  2  0  0  0
 14  1  1  0  0  0
  1  2  1  0  0  0
  2  3  1  0  0  0
  3  4  1  0  0  0
  4  5  1  0  0  0
  4  6  1  0  0  0
  6  7  1  0  0  0
  7  8  2  0  0  0
  8  9  1  0  0  0
  9 10  2  0  0  0
 10 11  1  0  0  0
 10 12  1  0  0  0
 12 13  2  0  0  0
 24 18  1  0  0  0
  6  1  1  0  0  0
 13  7  1  0  0  0
M  END
> <minimizedAffinity>
-7.64305

> <CNNscore>
0.5264562368

> <CNNaffinity>
5.6607875824

> <CNN_VS>
2.9801568985

> <CNNaffinity_variance>
0.1253534406

$$$$
[H]c1c([H])c([C@]2([H])N(S(=O)(=O)c3c([H])c(C([H])([H])[H])c(F)c(C([H])([H])[H])c3[H])C([H])([H])C([H])([H])[C@@]2([H])F)c([H])c([H])c1F


 25 27  0  0  0  0  0  0  0  0999 V2000
  156.2322  140.5802  184.4327 N   0  0  0  0  0  0  0  0  0  0  0  0
  155.5991  141.7044  183.7873 C   0  0  0  0  0  0  0  0  0  0  0  0
  154.7053  141.1029  182.7042 C   0  0  0  0  0  0  0  0  0  0  0  0
  154.2299  139.8337  183.3990 C   0  0  0  0  0  0  0  0  0  0  0  0
  153.8361  138.8555  182.5380 F   0  0  0  0  0  0  0  0  0  0  0  0
  155.3905  139.4304  184.2903 C   0  0  0  0  0  0  0  0  0  0  0  0
  154.9254  138.8811  185.5994 C   0  0  0  0  0  0  0  0  0  0  0  0
  153.6105  138.8852  186.0056 C   0  0  0  0  0  0  0  0  0  0  0  0
  153.2315  138.3646  187.2479 C   0  0  0  0  0  0  0  0  0  0  0  0
  154.1640  137.8290  188.1083 C   0  0  0  0  0  0  0  0  0  0  0  0
  153.7939  137.3194  189.3242 F   0  0  0  0  0  0  0  0  0  0  0  0
  155.4807  137.8246  187.7014 C   0  0  0  0  0  0  0  0  0  0  0  0
  155.8511  138.3384  186.4769 C   0  0  0  0  0  0  0  0  0  0  0  0
  157.7557  140.2896  183.6330 S   0  0  0  0  0  0  0  0  0  0  0  0
  157.5984  139.1057  182.6903 O   0  0  0  0  0  0  0  0  0  0  0  0
  158.8268  139.8882  184.6040 O   0  0  0  0  0  0  0  0  0  0  0  0
  158.4661  142.7585  179.0834 C   0  0  0  0  0  0  0  0  0  0  0  0
  158.5770  142.7726  180.5645 C   0  0  0  0  0  0  0  0  0  0  0  0
  158.1798  141.6896  181.3181 C   0  0  0  0  0  0  0  0  0  0  0  0
  158.2751  141.6810  182.7103 C   0  0  0  0  0  0  0  0  0  0  0  0
  158.7935  142.8286  183.2884 C   0  0  0  0  0  0  0  0  0  0  0  0
  159.1900  143.9103  182.5319 C   0  0  0  0  0  0  0  0  0  0  0  0
  159.7408  145.1224  183.1852 C   0  0  0  0  0  0  0  0  0  0  0  0
  159.0906  143.9055  181.1583 C   0  0  0  0  0  0  0  0  0  0  0  0
  159.4852  144.9795  180.4194 F   0  0  0  0  0  0  0  0  0  0  0  0
 17 18  1  0  0  0
 18 19  2  0  0  0
 19 20  1  0  0  0
 20 21  2  0  0  0
 21 22  1  0  0  0
 22 23  1  0  0  0
 22 24  2  0  0  0
 24 25  1  0  0  0
 20 14  1  0  0  0
 14 15  2  0  0  0
 14 16  2  0  0  0
 14  1  1  0  0  0
  1  2  1  0  0  0
  2  3  1  0  0  0
  3  4  1  0  0  0
  4  5  1  0  0  0
  4  6  1  0  0  0
  6  7  1  0  0  0
  7  8  2  0  0  0
  8  9  1  0  0  0
  9 10  2  0  0  0
 10 11  1  0  0  0
 10 12  1  0  0  0
 12 13  2  0  0  0
 24 18  1  0  0  0
  6  1  1  0  0  0
 13  7  1  0  0  0
M  END
> <minimizedAffinity>
-8.38955

> <CNNscore>
0.5097245574

> <CNNaffinity>
6.1963071823

> <CNN_VS>
3.1584098339

> <CNNaffinity_variance>
0.0449197441

$$$$
[H]c1nc(-c2c([H])nc(C(F)(F)F)c([H])c2[H])c([H])c(C([H])([H])N([H])C(=O)C([H])([H])N(c2c([H])c([H])c(F)c([H])c2[H])S(=O)(=O)c2c([H])c([H])c(F)c([H])c2[H])n1


 40 43  0  0  0  0  0  0  0  0999 V2000
  154.9523  142.4299  182.8607 C   0  0  0  0  0  0  0  0  0  0  0  0
  153.8854  142.9957  182.5625 O   0  0  0  0  0  0  0  0  0  0  0  0
  155.0906  140.9920  182.7246 N   0  0  0  0  0  0  0  0  0  0  0  0
  155.9854  140.5636  182.9992 H   0  0  0  0  0  0  0  0  0  0  0  0
  156.1607  143.1052  183.3577 C   0  0  0  0  0  0  0  0  0  0  0  0
  157.4376  142.5628  183.0548 N   0  0  0  0  0  0  0  0  0  0  0  0
  160.1934  144.2043  178.4840 F   0  0  0  0  0  0  0  0  0  0  0  0
  159.4816  143.7611  179.5798 C   0  0  0  0  0  0  0  0  0  0  0  0
  159.4970  144.6045  180.6841 C   0  0  0  0  0  0  0  0  0  0  0  0
  158.8088  144.1992  181.7948 C   0  0  0  0  0  0  0  0  0  0  0  0
  158.1115  143.0139  181.8716 C   0  0  0  0  0  0  0  0  0  0  0  0
  158.1236  142.2104  180.7430 C   0  0  0  0  0  0  0  0  0  0  0  0
  158.8115  142.5736  179.5797 C   0  0  0  0  0  0  0  0  0  0  0  0
  158.1329  141.3802  184.0873 S   0  0  0  0  0  0  0  0  0  0  0  0
  157.0867  140.9409  185.0977 O   0  0  0  0  0  0  0  0  0  0  0  0
  158.3575  140.1382  183.2280 O   0  0  0  0  0  0  0  0  0  0  0  0
  159.5937  141.8755  184.8675 C   0  0  0  0  0  0  0  0  0  0  0  0
  159.5721  142.2595  186.2265 C   0  0  0  0  0  0  0  0  0  0  0  0
  160.7095  142.6478  186.8835 C   0  0  0  0  0  0  0  0  0  0  0  0
  161.9261  142.6799  186.2507 C   0  0  0  0  0  0  0  0  0  0  0  0
  163.0541  143.0628  186.9172 F   0  0  0  0  0  0  0  0  0  0  0  0
  161.9691  142.3069  184.9281 C   0  0  0  0  0  0  0  0  0  0  0  0
  160.8076  141.9086  184.2443 C   0  0  0  0  0  0  0  0  0  0  0  0
  153.9926  140.2098  182.2212 C   0  0  0  0  0  0  0  0  0  0  0  0
  153.6880  139.1806  183.2649 C   0  0  0  0  0  0  0  0  0  0  0  0
  154.1416  139.2649  184.5551 C   0  0  0  0  0  0  0  0  0  0  0  0
  153.8293  138.2779  185.4426 C   0  0  0  0  0  0  0  0  0  0  0  0
  153.0774  137.2537  184.9986 N   0  0  0  0  0  0  0  0  0  0  0  0
  152.6224  137.1498  183.7441 C   0  0  0  0  0  0  0  0  0  0  0  0
  152.9484  138.1354  182.8987 N   0  0  0  0  0  0  0  0  0  0  0  0
  154.3201  138.2633  186.8140 C   0  0  0  0  0  0  0  0  0  0  0  0
  153.4511  138.5891  187.8652 C   0  0  0  0  0  0  0  0  0  0  0  0
  153.8931  138.5406  189.1627 C   0  0  0  0  0  0  0  0  0  0  0  0
  155.1859  138.1765  189.4765 C   0  0  0  0  0  0  0  0  0  0  0  0
  156.0130  137.8689  188.4743 N   0  0  0  0  0  0  0  0  0  0  0  0
  155.5967  137.9106  187.1738 C   0  0  0  0  0  0  0  0  0  0  0  0
  155.5992  138.1037  190.9150 C   0  0  0  0  0  0  0  0  0  0  0  0
  156.9489  137.9369  191.0286 F   0  0  0  0  0  0  0  0  0  0  0  0
  154.9321  137.1228  191.5950 F   0  0  0  0  0  0  0  0  0  0  0  0
  155.2537  139.3407  191.4710 F   0  0  0  0  0  0  0  0  0  0  0  0
  7  8  1  0  0  0
  8  9  2  0  0  0
  9 10  1  0  0  0
 10 11  2  0  0  0
 11 12  1  0  0  0
 12 13  2  0  0  0
 11  6  1  0  0  0
  6  5  1  0  0  0
  5  1  1  0  0  0
  1  2  2  0  0  0
  1  3  1  0  0  0
  3 24  1  0  0  0
 24 25  1  0  0  0
 25 26  2  0  0  0
 26 27  1  0  0  0
 27 28  2  0  0  0
 28 29  1  0  0  0
 29 30  2  0  0  0
 27 31  1  0  0  0
 31 32  2  0  0  0
 32 33  1  0  0  0
 33 34  2  0  0  0
 34 35  1  0  0  0
 35 36  2  0  0  0
 34 37  1  0  0  0
 37 38  1  0  0  0
 37 39  1  0  0  0
 37 40  1  0  0  0
  6 14  1  0  0  0
 14 15  2  0  0  0
 14 16  2  0  0  0
 14 17  1  0  0  0
 17 18  2  0  0  0
 18 19  1  0  0  0
 19 20  2  0  0  0
 20 21  1  0  0  0
 20 22  1  0  0  0
 22 23  2  0  0  0
 13  8  1  0  0  0
 30 25  1  0  0  0
 36 31  1  0  0  0
 23 17  1  0  0  0
  3  4  1  0  0  0
M  END
> <minimizedAffinity>
-11.46135

> <CNNscore>
0.8815914392

> <CNNaffinity>
8.0532283783

> <CNN_VS>
7.0996570587

> <CNNaffinity_variance>
0.1365472525

$$$$
[H]c1nc(-c2c([H])nc(C(F)(F)F)c([H])c2[H])c([H])c(C([H])([H])N([H])C(=O)C([H])([H])N(c2c([H])c([H])c(F)c([H])c2[H])S(=O)(=O)c2c([H])c([H])c(F)c([H])c2[H])n1


 40 43  0  0  0  0  0  0  0  0999 V2000
  154.9521  141.1808  182.5334 C   0  0  0  0  0  0  0  0  0  0  0  0
  154.6262  141.3268  181.3418 O   0  0  0  0  0  0  0  0  0  0  0  0
  154.3856  140.1081  183.3294 N   0  0  0  0  0  0  0  0  0  0  0  0
  154.6705  140.0350  184.3158 H   0  0  0  0  0  0  0  0  0  0  0  0
  155.9128  142.0251  183.2597 C   0  0  0  0  0  0  0  0  0  0  0  0
  157.3049  141.8061  183.0855 N   0  0  0  0  0  0  0  0  0  0  0  0
  160.0424  144.2472  178.8749 F   0  0  0  0  0  0  0  0  0  0  0  0
  159.3422  143.6064  179.8764 C   0  0  0  0  0  0  0  0  0  0  0  0
  159.1876  144.3277  181.0540 C   0  0  0  0  0  0  0  0  0  0  0  0
  158.5049  143.7258  182.0754 C   0  0  0  0  0  0  0  0  0  0  0  0
  157.9710  142.4587  181.9955 C   0  0  0  0  0  0  0  0  0  0  0  0
  158.1486  141.7827  180.7993 C   0  0  0  0  0  0  0  0  0  0  0  0
  158.8394  142.3484  179.7216 C   0  0  0  0  0  0  0  0  0  0  0  0
  158.1491  140.7643  184.1578 S   0  0  0  0  0  0  0  0  0  0  0  0
  157.1430  140.0962  185.0799 O   0  0  0  0  0  0  0  0  0  0  0  0
  158.6862  139.6158  183.3071 O   0  0  0  0  0  0  0  0  0  0  0  0
  159.4156  141.5267  185.0538 C   0  0  0  0  0  0  0  0  0  0  0  0
  160.6718  141.7504  184.4482 C   0  0  0  0  0  0  0  0  0  0  0  0
  161.6971  142.3610  185.1206 C   0  0  0  0  0  0  0  0  0  0  0  0
  161.5503  142.7866  186.4163 C   0  0  0  0  0  0  0  0  0  0  0  0
  162.5771  143.3994  187.0745 F   0  0  0  0  0  0  0  0  0  0  0  0
  160.3338  142.5809  187.0230 C   0  0  0  0  0  0  0  0  0  0  0  0
  159.2760  141.9537  186.3427 C   0  0  0  0  0  0  0  0  0  0  0  0
  153.4522  139.1886  182.7344 C   0  0  0  0  0  0  0  0  0  0  0  0
  153.1725  138.1384  183.7641 C   0  0  0  0  0  0  0  0  0  0  0  0
  153.4172  138.3155  185.1005 C   0  0  0  0  0  0  0  0  0  0  0  0
  153.1455  137.3035  185.9730 C   0  0  0  0  0  0  0  0  0  0  0  0
  152.6410  136.1623  185.4681 N   0  0  0  0  0  0  0  0  0  0  0  0
  152.3930  135.9661  184.1675 C   0  0  0  0  0  0  0  0  0  0  0  0
  152.6723  136.9798  183.3387 N   0  0  0  0  0  0  0  0  0  0  0  0
  153.4309  137.3904  187.3987 C   0  0  0  0  0  0  0  0  0  0  0  0
  154.4289  138.2638  187.8543 C   0  0  0  0  0  0  0  0  0  0  0  0
  154.6786  138.3816  189.1977 C   0  0  0  0  0  0  0  0  0  0  0  0
  153.9704  137.6579  190.1343 C   0  0  0  0  0  0  0  0  0  0  0  0
  153.0221  136.8248  189.6989 N   0  0  0  0  0  0  0  0  0  0  0  0
  152.7553  136.6893  188.3659 C   0  0  0  0  0  0  0  0  0  0  0  0
  154.2615  137.8587  191.5904 C   0  0  0  0  0  0  0  0  0  0  0  0
  153.1477  137.6374  192.3473 F   0  0  0  0  0  0  0  0  0  0  0  0
  154.7822  139.0966  191.8472 F   0  0  0  0  0  0  0  0  0  0  0  0
  155.2236  136.8972  191.9199 F   0  0  0  0  0  0  0  0  0  0  0  0
  7  8  1  0  0  0
  8  9  2  0  0  0
  9 10  1  0  0  0
 10 11  2  0  0  0
 11 12  1  0  0  0
 12 13  2  0  0  0
 11  6  1  0  0  0
  6  5  1  0  0  0
  5  1  1  0  0  0
  1  2  2  0  0  0
  1  3  1  0  0  0
  3 24  1  0  0  0
 24 25  1  0  0  0
 25 26  2  0  0  0
 26 27  1  0  0  0
 27 28  2  0  0  0
 28 29  1  0  0  0
 29 30  2  0  0  0
 27 31  1  0  0  0
 31 32  2  0  0  0
 32 33  1  0  0  0
 33 34  2  0  0  0
 34 35  1  0  0  0
 35 36  2  0  0  0
 34 37  1  0  0  0
 37 38  1  0  0  0
 37 39  1  0  0  0
 37 40  1  0  0  0
  6 14  1  0  0  0
 14 15  2  0  0  0
 14 16  2  0  0  0
 14 17  1  0  0  0
 17 18  2  0  0  0
 18 19  1  0  0  0
 19 20  2  0  0  0
 20 21  1  0  0  0
 20 22  1  0  0  0
 22 23  2  0  0  0
 13  8  1  0  0  0
 30 25  1  0  0  0
 36 31  1  0  0  0
 23 17  1  0  0  0
  3  4  1  0  0  0
M  END
> <minimizedAffinity>
-11.15774

> <CNNscore>
0.8178662062

> <CNNaffinity>
7.7366914749

> <CNN_VS>
6.3275785446

> <CNNaffinity_variance>
0.0552304499

$$$$
[H]c1nc(-c2c([H])nc(C(F)(F)F)c([H])c2[H])c([H])c(C([H])([H])N([H])C(=O)C([H])([H])N(c2c([H])c([H])c(F)c([H])c2[H])S(=O)(=O)c2c([H])c([H])c(F)c([H])c2[H])n1


 40 43  0  0  0  0  0  0  0  0999 V2000
  155.0111  140.9512  182.8847 C   0  0  0  0  0  0  0  0  0  0  0  0
  154.5105  140.9240  181.7462 O   0  0  0  0  0  0  0  0  0  0  0  0
  154.6758  139.9354  183.8650 N   0  0  0  0  0  0  0  0  0  0  0  0
  155.1000  140.0065  184.8001 H   0  0  0  0  0  0  0  0  0  0  0  0
  155.9686  141.9583  183.3666 C   0  0  0  0  0  0  0  0  0  0  0  0
  157.3586  141.7542  183.1605 N   0  0  0  0  0  0  0  0  0  0  0  0
  159.9579  144.1710  178.8495 F   0  0  0  0  0  0  0  0  0  0  0  0
  159.2898  143.5366  179.8767 C   0  0  0  0  0  0  0  0  0  0  0  0
  159.1923  144.2564  181.0613 C   0  0  0  0  0  0  0  0  0  0  0  0
  158.5430  143.6606  182.1078 C   0  0  0  0  0  0  0  0  0  0  0  0
  157.9892  142.4010  182.0463 C   0  0  0  0  0  0  0  0  0  0  0  0
  158.1096  141.7263  180.8422 C   0  0  0  0  0  0  0  0  0  0  0  0
  158.7643  142.2860  179.7391 C   0  0  0  0  0  0  0  0  0  0  0  0
  158.2422  140.7364  184.2242 S   0  0  0  0  0  0  0  0  0  0  0  0
  157.2665  140.0589  185.1717 O   0  0  0  0  0  0  0  0  0  0  0  0
  158.7823  139.5901  183.3723 O   0  0  0  0  0  0  0  0  0  0  0  0
  159.5127  141.5284  185.0882 C   0  0  0  0  0  0  0  0  0  0  0  0
  160.7659  141.7321  184.4694 C   0  0  0  0  0  0  0  0  0  0  0  0
  161.7942  142.3649  185.1162 C   0  0  0  0  0  0  0  0  0  0  0  0
  161.6535  142.8331  186.3978 C   0  0  0  0  0  0  0  0  0  0  0  0
  162.6833  143.4676  187.0303 F   0  0  0  0  0  0  0  0  0  0  0  0
  160.4401  142.6473  187.0169 C   0  0  0  0  0  0  0  0  0  0  0  0
  159.3792  141.9978  186.3629 C   0  0  0  0  0  0  0  0  0  0  0  0
  153.7712  138.8720  183.5160 C   0  0  0  0  0  0  0  0  0  0  0  0
  153.6150  138.0255  184.7409 C   0  0  0  0  0  0  0  0  0  0  0  0
  154.6741  137.4597  185.4007 C   0  0  0  0  0  0  0  0  0  0  0  0
  154.4454  136.6908  186.5033 C   0  0  0  0  0  0  0  0  0  0  0  0
  153.1684  136.5248  186.8950 N   0  0  0  0  0  0  0  0  0  0  0  0
  152.1180  137.0676  186.2676 C   0  0  0  0  0  0  0  0  0  0  0  0
  152.3783  137.8156  185.1882 N   0  0  0  0  0  0  0  0  0  0  0  0
  155.5099  136.0073  187.2255 C   0  0  0  0  0  0  0  0  0  0  0  0
  155.8314  134.6826  186.8969 C   0  0  0  0  0  0  0  0  0  0  0  0
  156.8577  134.0433  187.5443 C   0  0  0  0  0  0  0  0  0  0  0  0
  157.5983  134.6682  188.5258 C   0  0  0  0  0  0  0  0  0  0  0  0
  157.2894  135.9288  188.8395 N   0  0  0  0  0  0  0  0  0  0  0  0
  156.2711  136.5866  188.2096 C   0  0  0  0  0  0  0  0  0  0  0  0
  158.7332  133.9314  189.1698 C   0  0  0  0  0  0  0  0  0  0  0  0
  158.6174  133.9462  190.5295 F   0  0  0  0  0  0  0  0  0  0  0  0
  159.9509  134.4185  188.7831 F   0  0  0  0  0  0  0  0  0  0  0  0
  158.6251  132.6083  188.7267 F   0  0  0  0  0  0  0  0  0  0  0  0
  7  8  1  0  0  0
  8  9  2  0  0  0
  9 10  1  0  0  0
 10 11  2  0  0  0
 11 12  1  0  0  0
 12 13  2  0  0  0
 11  6  1  0  0  0
  6  5  1  0  0  0
  5  1  1  0  0  0
  1  2  2  0  0  0
  1  3  1  0  0  0
  3 24  1  0  0  0
 24 25  1  0  0  0
 25 26  2  0  0  0
 26 27  1  0  0  0
 27 28  2  0  0  0
 28 29  1  0  0  0
 29 30  2  0  0  0
 27 31  1  0  0  0
 31 32  2  0  0  0
 32 33  1  0  0  0
 33 34  2  0  0  0
 34 35  1  0  0  0
 35 36  2  0  0  0
 34 37  1  0  0  0
 37 38  1  0  0  0
 37 39  1  0  0  0
 37 40  1  0  0  0
  6 14  1  0  0  0
 14 15  2  0  0  0
 14 16  2  0  0  0
 14 17  1  0  0  0
 17 18  2  0  0  0
 18 19  1  0  0  0
 19 20  2  0  0  0
 20 21  1  0  0  0
 20 22  1  0  0  0
 22 23  2  0  0  0
 13  8  1  0  0  0
 30 25  1  0  0  0
 36 31  1  0  0  0
 23 17  1  0  0  0
  3  4  1  0  0  0
M  END
> <minimizedAffinity>
-10.34315

> <CNNscore>
0.7450799942

> <CNNaffinity>
7.6793518066

> <CNN_VS>
5.7217311859

> <CNNaffinity_variance>
0.1494150460

$$$$
[H]c1nc(-c2c([H])nc(C(F)(F)F)c([H])c2[H])c([H])c(C([H])([H])N([H])C(=O)C([H])([H])N(c2c([H])c([H])c(F)c([H])c2[H])S(=O)(=O)c2c([H])c([H])c(F)c([H])c2[H])n1


 40 43  0  0  0  0  0  0  0  0999 V2000
  155.0393  140.6737  183.4283 C   0  0  0  0  0  0  0  0  0  0  0  0
  154.7253  140.1028  182.3687 O   0  0  0  0  0  0  0  0  0  0  0  0
  154.5074  140.2195  184.6995 N   0  0  0  0  0  0  0  0  0  0  0  0
  154.7803  140.7320  185.5493 H   0  0  0  0  0  0  0  0  0  0  0  0
  155.9521  141.8221  183.5349 C   0  0  0  0  0  0  0  0  0  0  0  0
  157.3396  141.6347  183.2978 N   0  0  0  0  0  0  0  0  0  0  0  0
  159.7762  143.9412  178.8341 F   0  0  0  0  0  0  0  0  0  0  0  0
  159.1471  143.3331  179.9009 C   0  0  0  0  0  0  0  0  0  0  0  0
  159.0899  144.0839  181.0688 C   0  0  0  0  0  0  0  0  0  0  0  0
  158.4801  143.5148  182.1533 C   0  0  0  0  0  0  0  0  0  0  0  0
  157.9281  142.2530  182.1450 C   0  0  0  0  0  0  0  0  0  0  0  0
  158.0073  141.5468  180.9556 C   0  0  0  0  0  0  0  0  0  0  0  0
  158.6205  142.0782  179.8154 C   0  0  0  0  0  0  0  0  0  0  0  0
  158.2697  140.6700  184.3711 S   0  0  0  0  0  0  0  0  0  0  0  0
  157.3290  139.9806  185.3449 O   0  0  0  0  0  0  0  0  0  0  0  0
  158.8380  139.5247  183.5366 O   0  0  0  0  0  0  0  0  0  0  0  0
  159.5231  141.5224  185.2022 C   0  0  0  0  0  0  0  0  0  0  0  0
  160.7688  141.7355  184.5716 C   0  0  0  0  0  0  0  0  0  0  0  0
  161.7832  142.4154  185.1921 C   0  0  0  0  0  0  0  0  0  0  0  0
  161.6351  142.9239  186.4574 C   0  0  0  0  0  0  0  0  0  0  0  0
  162.6509  143.6049  187.0636 F   0  0  0  0  0  0  0  0  0  0  0  0
  160.4287  142.7297  187.0875 C   0  0  0  0  0  0  0  0  0  0  0  0
  159.3821  142.0320  186.4606 C   0  0  0  0  0  0  0  0  0  0  0  0
  153.6231  139.0850  184.7433 C   0  0  0  0  0  0  0  0  0  0  0  0
  154.1203  138.1987  185.8427 C   0  0  0  0  0  0  0  0  0  0  0  0
  153.5336  138.1381  187.0794 C   0  0  0  0  0  0  0  0  0  0  0  0
  154.0560  137.3127  188.0308 C   0  0  0  0  0  0  0  0  0  0  0  0
  155.1398  136.5862  187.7006 N   0  0  0  0  0  0  0  0  0  0  0  0
  155.7297  136.6279  186.4998 C   0  0  0  0  0  0  0  0  0  0  0  0
  155.1918  137.4494  185.5897 N   0  0  0  0  0  0  0  0  0  0  0  0
  153.5276  137.2341  189.3860 C   0  0  0  0  0  0  0  0  0  0  0  0
  152.2716  136.6515  189.6081 C   0  0  0  0  0  0  0  0  0  0  0  0
  151.7825  136.5377  190.8844 C   0  0  0  0  0  0  0  0  0  0  0  0
  152.4948  136.9845  191.9777 C   0  0  0  0  0  0  0  0  0  0  0  0
  153.6896  137.5412  191.7646 N   0  0  0  0  0  0  0  0  0  0  0  0
  154.1980  137.6668  190.5027 C   0  0  0  0  0  0  0  0  0  0  0  0
  151.9256  136.7967  193.3511 C   0  0  0  0  0  0  0  0  0  0  0  0
  152.5928  135.8172  194.0277 F   0  0  0  0  0  0  0  0  0  0  0  0
  150.5836  136.5365  193.3229 F   0  0  0  0  0  0  0  0  0  0  0  0
  152.1265  138.0132  194.0134 F   0  0  0  0  0  0  0  0  0  0  0  0
  7  8  1  0  0  0
  8  9  2  0  0  0
  9 10  1  0  0  0
 10 11  2  0  0  0
 11 12  1  0  0  0
 12 13  2  0  0  0
 11  6  1  0  0  0
  6  5  1  0  0  0
  5  1  1  0  0  0
  1  2  2  0  0  0
  1  3  1  0  0  0
  3 24  1  0  0  0
 24 25  1  0  0  0
 25 26  2  0  0  0
 26 27  1  0  0  0
 27 28  2  0  0  0
 28 29  1  0  0  0
 29 30  2  0  0  0
 27 31  1  0  0  0
 31 32  2  0  0  0
 32 33  1  0  0  0
 33 34  2  0  0  0
 34 35  1  0  0  0
 35 36  2  0  0  0
 34 37  1  0  0  0
 37 38  1  0  0  0
 37 39  1  0  0  0
 37 40  1  0  0  0
  6 14  1  0  0  0
 14 15  2  0  0  0
 14 16  2  0  0  0
 14 17  1  0  0  0
 17 18  2  0  0  0
 18 19  1  0  0  0
 19 20  2  0  0  0
 20 21  1  0  0  0
 20 22  1  0  0  0
 22 23  2  0  0  0
 13  8  1  0  0  0
 30 25  1  0  0  0
 36 31  1  0  0  0
 23 17  1  0  0  0
  3  4  1  0  0  0
M  END
> <minimizedAffinity>
-10.37301

> <CNNscore>
0.7278717160

> <CNNaffinity>
7.3747301102

> <CNN_VS>
5.3678574562

> <CNNaffinity_variance>
0.0306644645

$$$$
[H]c1nc(-c2c([H])nc(C(F)(F)F)c([H])c2[H])c([H])c(C([H])([H])N([H])C(=O)C([H])([H])N(c2c([H])c([H])c(F)c([H])c2[H])S(=O)(=O)c2c([H])c([H])c(F)c([H])c2[H])n1


 40 43  0  0  0  0  0  0  0  0999 V2000
  154.9808  141.0211  182.7731 C   0  0  0  0  0  0  0  0  0  0  0  0
  154.6240  140.9064  181.5871 O   0  0  0  0  0  0  0  0  0  0  0  0
  154.4713  140.1199  183.7897 N   0  0  0  0  0  0  0  0  0  0  0  0
  154.7801  140.2620  184.7613 H   0  0  0  0  0  0  0  0  0  0  0  0
  155.9258  142.0272  183.2813 C   0  0  0  0  0  0  0  0  0  0  0  0
  157.3205  141.8248  183.1078 N   0  0  0  0  0  0  0  0  0  0  0  0
  160.0161  144.2389  178.8549 F   0  0  0  0  0  0  0  0  0  0  0  0
  159.3257  143.6047  179.8673 C   0  0  0  0  0  0  0  0  0  0  0  0
  159.1877  144.3313  181.0437 C   0  0  0  0  0  0  0  0  0  0  0  0
  158.5151  143.7360  182.0756 C   0  0  0  0  0  0  0  0  0  0  0  0
  157.9758  142.4706  182.0073 C   0  0  0  0  0  0  0  0  0  0  0  0
  158.1367  141.7891  180.8118 C   0  0  0  0  0  0  0  0  0  0  0  0
  158.8166  142.3479  179.7237 C   0  0  0  0  0  0  0  0  0  0  0  0
  158.1806  140.8103  184.1936 S   0  0  0  0  0  0  0  0  0  0  0  0
  157.1984  140.2256  185.1947 O   0  0  0  0  0  0  0  0  0  0  0  0
  158.6392  139.6019  183.3807 O   0  0  0  0  0  0  0  0  0  0  0  0
  159.5123  141.5730  184.9892 C   0  0  0  0  0  0  0  0  0  0  0  0
  159.3755  142.0196  186.3221 C   0  0  0  0  0  0  0  0  0  0  0  0
  160.4101  142.6186  186.9907 C   0  0  0  0  0  0  0  0  0  0  0  0
  161.6310  142.8112  186.3958 C   0  0  0  0  0  0  0  0  0  0  0  0
  162.6566  143.4039  187.0739 F   0  0  0  0  0  0  0  0  0  0  0  0
  161.7855  142.3808  185.0992 C   0  0  0  0  0  0  0  0  0  0  0  0
  160.7299  141.7667  184.4036 C   0  0  0  0  0  0  0  0  0  0  0  0
  153.5593  139.0683  183.4247 C   0  0  0  0  0  0  0  0  0  0  0  0
  153.5600  138.0903  184.5583 C   0  0  0  0  0  0  0  0  0  0  0  0
  152.4295  137.4548  185.0003 C   0  0  0  0  0  0  0  0  0  0  0  0
  152.5134  136.5863  186.0481 C   0  0  0  0  0  0  0  0  0  0  0  0
  153.7240  136.3934  186.6040 N   0  0  0  0  0  0  0  0  0  0  0  0
  154.8419  137.0017  186.1896 C   0  0  0  0  0  0  0  0  0  0  0  0
  154.7235  137.8487  185.1595 N   0  0  0  0  0  0  0  0  0  0  0  0
  151.3508  135.9160  186.6147 C   0  0  0  0  0  0  0  0  0  0  0  0
  150.6247  135.0067  185.8322 C   0  0  0  0  0  0  0  0  0  0  0  0
  149.5520  134.3415  186.3688 C   0  0  0  0  0  0  0  0  0  0  0  0
  149.1540  134.5389  187.6745 C   0  0  0  0  0  0  0  0  0  0  0  0
  149.8449  135.4069  188.4177 N   0  0  0  0  0  0  0  0  0  0  0  0
  150.9165  136.0823  187.9058 C   0  0  0  0  0  0  0  0  0  0  0  0
  147.9985  133.7535  188.2163 C   0  0  0  0  0  0  0  0  0  0  0  0
  148.3535  133.0778  189.3476 F   0  0  0  0  0  0  0  0  0  0  0  0
  147.4741  132.8985  187.2871 F   0  0  0  0  0  0  0  0  0  0  0  0
  147.0215  134.6988  188.5488 F   0  0  0  0  0  0  0  0  0  0  0  0
  7  8  1  0  0  0
  8  9  2  0  0  0
  9 10  1  0  0  0
 10 11  2  0  0  0
 11 12  1  0  0  0
 12 13  2  0  0  0
 11  6  1  0  0  0
  6  5  1  0  0  0
  5  1  1  0  0  0
  1  2  2  0  0  0
  1  3  1  0  0  0
  3 24  1  0  0  0
 24 25  1  0  0  0
 25 26  2  0  0  0
 26 27  1  0  0  0
 27 28  2  0  0  0
 28 29  1  0  0  0
 29 30  2  0  0  0
 27 31  1  0  0  0
 31 32  2  0  0  0
 32 33  1  0  0  0
 33 34  2  0  0  0
 34 35  1  0  0  0
 35 36  2  0  0  0
 34 37  1  0  0  0
 37 38  1  0  0  0
 37 39  1  0  0  0
 37 40  1  0  0  0
  6 14  1  0  0  0
 14 15  2  0  0  0
 14 16  2  0  0  0
 14 17  1  0  0  0
 17 18  2  0  0  0
 18 19  1  0  0  0
 19 20  2  0  0  0
 20 21  1  0  0  0
 20 22  1  0  0  0
 22 23  2  0  0  0
 13  8  1  0  0  0
 30 25  1  0  0  0
 36 31  1  0  0  0
 23 17  1  0  0  0
  3  4  1  0  0  0
M  END
> <minimizedAffinity>
-9.24559

> <CNNscore>
0.5049136877

> <CNNaffinity>
7.0635213852

> <CNN_VS>
3.5664687157

> <CNNaffinity_variance>
0.0062822802

$$$$
[H]c1nc(-c2c([H])nc(C(F)(F)F)c([H])c2[H])c([H])c(C([H])([H])N([H])C(=O)C([H])([H])N(c2c([H])c([H])c(F)c([H])c2[H])S(=O)(=O)c2c([H])c([H])c(F)c([H])c2[H])n1


 40 43  0  0  0  0  0  0  0  0999 V2000
  155.0474  141.2382  182.7510 C   0  0  0  0  0  0  0  0  0  0  0  0
  154.6804  141.2060  181.5629 O   0  0  0  0  0  0  0  0  0  0  0  0
  154.5019  140.3057  183.7195 N   0  0  0  0  0  0  0  0  0  0  0  0
  154.8212  140.3793  184.6953 H   0  0  0  0  0  0  0  0  0  0  0  0
  156.0395  142.1706  183.3075 C   0  0  0  0  0  0  0  0  0  0  0  0
  157.4221  141.9272  183.0943 N   0  0  0  0  0  0  0  0  0  0  0  0
  160.0743  144.2910  178.7862 F   0  0  0  0  0  0  0  0  0  0  0  0
  159.3938  143.6692  179.8129 C   0  0  0  0  0  0  0  0  0  0  0  0
  159.2773  144.4054  180.9856 C   0  0  0  0  0  0  0  0  0  0  0  0
  158.6152  143.8224  182.0312 C   0  0  0  0  0  0  0  0  0  0  0  0
  158.0663  142.5603  181.9800 C   0  0  0  0  0  0  0  0  0  0  0  0
  158.2057  141.8689  180.7875 C   0  0  0  0  0  0  0  0  0  0  0  0
  158.8741  142.4149  179.6858 C   0  0  0  0  0  0  0  0  0  0  0  0
  158.2804  140.8799  184.1499 S   0  0  0  0  0  0  0  0  0  0  0  0
  157.2946  140.2546  185.1225 O   0  0  0  0  0  0  0  0  0  0  0  0
  158.7519  139.7036  183.2983 O   0  0  0  0  0  0  0  0  0  0  0  0
  159.6019  141.6214  184.9817 C   0  0  0  0  0  0  0  0  0  0  0  0
  159.4456  142.0415  186.3210 C   0  0  0  0  0  0  0  0  0  0  0  0
  160.4714  142.6231  187.0179 C   0  0  0  0  0  0  0  0  0  0  0  0
  161.7022  142.8233  186.4462 C   0  0  0  0  0  0  0  0  0  0  0  0
  162.7189  143.3984  187.1523 F   0  0  0  0  0  0  0  0  0  0  0  0
  161.8757  142.4185  185.1438 C   0  0  0  0  0  0  0  0  0  0  0  0
  160.8293  141.8225  184.4194 C   0  0  0  0  0  0  0  0  0  0  0  0
  153.5413  139.3184  183.3032 C   0  0  0  0  0  0  0  0  0  0  0  0
  153.5473  138.2488  184.3508 C   0  0  0  0  0  0  0  0  0  0  0  0
  152.6931  137.1777  184.3328 C   0  0  0  0  0  0  0  0  0  0  0  0
  152.7550  136.2525  185.3326 C   0  0  0  0  0  0  0  0  0  0  0  0
  153.6688  136.4414  186.3027 N   0  0  0  0  0  0  0  0  0  0  0  0
  154.5138  137.4787  186.3413 C   0  0  0  0  0  0  0  0  0  0  0  0
  154.4253  138.3686  185.3449 N   0  0  0  0  0  0  0  0  0  0  0  0
  151.8448  135.1184  185.4180 C   0  0  0  0  0  0  0  0  0  0  0  0
  152.0560  133.9967  184.6033 C   0  0  0  0  0  0  0  0  0  0  0  0
  151.2276  132.9083  184.7039 C   0  0  0  0  0  0  0  0  0  0  0  0
  150.1743  132.8769  185.5939 C   0  0  0  0  0  0  0  0  0  0  0  0
  149.9730  133.9467  186.3672 N   0  0  0  0  0  0  0  0  0  0  0  0
  150.7837  135.0432  186.2850 C   0  0  0  0  0  0  0  0  0  0  0  0
  149.3279  131.6438  185.6861 C   0  0  0  0  0  0  0  0  0  0  0  0
  149.6201  130.7729  184.6769 F   0  0  0  0  0  0  0  0  0  0  0  0
  147.9919  131.9345  185.7020 F   0  0  0  0  0  0  0  0  0  0  0  0
  149.6646  131.0442  186.9050 F   0  0  0  0  0  0  0  0  0  0  0  0
  7  8  1  0  0  0
  8  9  2  0  0  0
  9 10  1  0  0  0
 10 11  2  0  0  0
 11 12  1  0  0  0
 12 13  2  0  0  0
 11  6  1  0  0  0
  6  5  1  0  0  0
  5  1  1  0  0  0
  1  2  2  0  0  0
  1  3  1  0  0  0
  3 24  1  0  0  0
 24 25  1  0  0  0
 25 26  2  0  0  0
 26 27  1  0  0  0
 27 28  2  0  0  0
 28 29  1  0  0  0
 29 30  2  0  0  0
 27 31  1  0  0  0
 31 32  2  0  0  0
 32 33  1  0  0  0
 33 34  2  0  0  0
 34 35  1  0  0  0
 35 36  2  0  0  0
 34 37  1  0  0  0
 37 38  1  0  0  0
 37 39  1  0  0  0
 37 40  1  0  0  0
  6 14  1  0  0  0
 14 15  2  0  0  0
 14 16  2  0  0  0
 14 17  1  0  0  0
 17 18  2  0  0  0
 18 19  1  0  0  0
 19 20  2  0  0  0
 20 21  1  0  0  0
 20 22  1  0  0  0
 22 23  2  0  0  0
 13  8  1  0  0  0
 30 25  1  0  0  0
 36 31  1  0  0  0
 23 17  1  0  0  0
  3  4  1  0  0  0
M  END
> <minimizedAffinity>
-8.89353

> <CNNscore>
0.4620505571

> <CNNaffinity>
7.0922522545

> <CNN_VS>
3.2769792080

> <CNNaffinity_variance>
0.0298830085

$$$$
[H]c1nc(-c2c([H])nc(C(F)(F)F)c([H])c2[H])c([H])c(C([H])([H])N([H])C(=O)C([H])([H])N(c2c([H])c([H])c(F)c([H])c2[H])S(=O)(=O)c2c([H])c([H])c(F)c([H])c2[H])n1


 40 43  0  0  0  0  0  0  0  0999 V2000
  153.6755  138.1956  187.9042 C   0  0  0  0  0  0  0  0  0  0  0  0
  152.4687  138.1498  187.6059 O   0  0  0  0  0  0  0  0  0  0  0  0
  154.6955  137.9576  186.9002 N   0  0  0  0  0  0  0  0  0  0  0  0
  155.6813  137.9884  187.1949 H   0  0  0  0  0  0  0  0  0  0  0  0
  154.2077  138.4907  189.2432 C   0  0  0  0  0  0  0  0  0  0  0  0
  154.3596  137.4359  190.1816 N   0  0  0  0  0  0  0  0  0  0  0  0
  149.8289  136.0117  193.1185 F   0  0  0  0  0  0  0  0  0  0  0  0
  150.9404  136.3155  192.3595 C   0  0  0  0  0  0  0  0  0  0  0  0
  151.8384  137.2018  192.9418 C   0  0  0  0  0  0  0  0  0  0  0  0
  152.9513  137.5350  192.2193 C   0  0  0  0  0  0  0  0  0  0  0  0
  153.2220  137.0427  190.9618 C   0  0  0  0  0  0  0  0  0  0  0  0
  152.2981  136.1596  190.4270 C   0  0  0  0  0  0  0  0  0  0  0  0
  151.1415  135.7843  191.1199 C   0  0  0  0  0  0  0  0  0  0  0  0
  155.8860  136.6738  190.3744 S   0  0  0  0  0  0  0  0  0  0  0  0
  156.9401  137.7452  190.5970 O   0  0  0  0  0  0  0  0  0  0  0  0
  155.8303  135.9313  191.7074 O   0  0  0  0  0  0  0  0  0  0  0  0
  156.3288  135.6128  189.0835 C   0  0  0  0  0  0  0  0  0  0  0  0
  155.3337  134.8781  188.4018 C   0  0  0  0  0  0  0  0  0  0  0  0
  155.6424  134.0356  187.3669 C   0  0  0  0  0  0  0  0  0  0  0  0
  156.9358  133.8673  186.9422 C   0  0  0  0  0  0  0  0  0  0  0  0
  157.2309  133.0294  185.9058 F   0  0  0  0  0  0  0  0  0  0  0  0
  157.9192  134.5759  187.5910 C   0  0  0  0  0  0  0  0  0  0  0  0
  157.6134  135.4416  188.6551 C   0  0  0  0  0  0  0  0  0  0  0  0
  154.3138  137.6853  185.5397 C   0  0  0  0  0  0  0  0  0  0  0  0
  154.9088  138.7751  184.7032 C   0  0  0  0  0  0  0  0  0  0  0  0
  156.1728  139.2656  184.9004 C   0  0  0  0  0  0  0  0  0  0  0  0
  156.6362  140.2688  184.1016 C   0  0  0  0  0  0  0  0  0  0  0  0
  155.8141  140.7337  183.1425 N   0  0  0  0  0  0  0  0  0  0  0  0
  154.5764  140.2704  182.9304 C   0  0  0  0  0  0  0  0  0  0  0  0
  154.1528  139.2863  183.7333 N   0  0  0  0  0  0  0  0  0  0  0  0
  157.9439  140.8843  184.2831 C   0  0  0  0  0  0  0  0  0  0  0  0
  158.3378  141.3125  185.5590 C   0  0  0  0  0  0  0  0  0  0  0  0
  159.5821  141.8577  185.7474 C   0  0  0  0  0  0  0  0  0  0  0  0
  160.4765  142.0031  184.7075 C   0  0  0  0  0  0  0  0  0  0  0  0
  160.0991  141.5971  183.4927 N   0  0  0  0  0  0  0  0  0  0  0  0
  158.8647  141.0518  183.2795 C   0  0  0  0  0  0  0  0  0  0  0  0
  161.8363  142.5693  184.9827 C   0  0  0  0  0  0  0  0  0  0  0  0
  161.8696  143.9093  184.7262 F   0  0  0  0  0  0  0  0  0  0  0  0
  162.8170  141.9193  184.2862 F   0  0  0  0  0  0  0  0  0  0  0  0
  162.0591  142.3707  186.3501 F   0  0  0  0  0  0  0  0  0  0  0  0
  7  8  1  0  0  0
  8  9  2  0  0  0
  9 10  1  0  0  0
 10 11  2  0  0  0
 11 12  1  0  0  0
 12 13  2  0  0  0
 11  6  1  0  0  0
  6  5  1  0  0  0
  5  1  1  0  0  0
  1  2  2  0  0  0
  1  3  1  0  0  0
  3 24  1  0  0  0
 24 25  1  0  0  0
 25 26  2  0  0  0
 26 27  1  0  0  0
 27 28  2  0  0  0
 28 29  1  0  0  0
 29 30  2  0  0  0
 27 31  1  0  0  0
 31 32  2  0  0  0
 32 33  1  0  0  0
 33 34  2  0  0  0
 34 35  1  0  0  0
 35 36  2  0  0  0
 34 37  1  0  0  0
 37 38  1  0  0  0
 37 39  1  0  0  0
 37 40  1  0  0  0
  6 14  1  0  0  0
 14 15  2  0  0  0
 14 16  2  0  0  0
 14 17  1  0  0  0
 17 18  2  0  0  0
 18 19  1  0  0  0
 19 20  2  0  0  0
 20 21  1  0  0  0
 20 22  1  0  0  0
 22 23  2  0  0  0
 13  8  1  0  0  0
 30 25  1  0  0  0
 36 31  1  0  0  0
 23 17  1  0  0  0
  3  4  1  0  0  0
M  END
> <minimizedAffinity>
-9.40747

> <CNNscore>
0.4484156668

> <CNNaffinity>
6.8581299782

> <CNN_VS>
3.0752928257

> <CNNaffinity_variance>
0.4796848893

$$$$
[H]c1nc(-c2c([H])nc(C(F)(F)F)c([H])c2[H])c([H])c(C([H])([H])N([H])C(=O)C([H])([H])N(c2c([H])c([H])c(F)c([H])c2[H])S(=O)(=O)c2c([H])c([H])c(F)c([H])c2[H])n1


 40 43  0  0  0  0  0  0  0  0999 V2000
  155.5034  139.6713  183.7414 C   0  0  0  0  0  0  0  0  0  0  0  0
  155.9426  138.5203  183.5692 O   0  0  0  0  0  0  0  0  0  0  0  0
  154.3962  139.9131  184.6474 N   0  0  0  0  0  0  0  0  0  0  0  0
  154.0537  140.8787  184.7463 H   0  0  0  0  0  0  0  0  0  0  0  0
  156.0239  140.8839  183.0917 C   0  0  0  0  0  0  0  0  0  0  0  0
  157.4069  141.1896  183.1910 N   0  0  0  0  0  0  0  0  0  0  0  0
  159.7794  144.7282  179.5811 F   0  0  0  0  0  0  0  0  0  0  0  0
  159.1870  143.8150  180.4289 C   0  0  0  0  0  0  0  0  0  0  0  0
  158.6761  144.3393  181.6101 C   0  0  0  0  0  0  0  0  0  0  0  0
  158.0860  143.4662  182.4825 C   0  0  0  0  0  0  0  0  0  0  0  0
  157.9746  142.1129  182.2514 C   0  0  0  0  0  0  0  0  0  0  0  0
  158.4958  141.6404  181.0578 C   0  0  0  0  0  0  0  0  0  0  0  0
  159.1116  142.4870  180.1290 C   0  0  0  0  0  0  0  0  0  0  0  0
  158.3640  140.4447  184.4063 S   0  0  0  0  0  0  0  0  0  0  0  0
  157.4403  139.8280  185.4431 O   0  0  0  0  0  0  0  0  0  0  0  0
  159.0331  139.2403  183.7482 O   0  0  0  0  0  0  0  0  0  0  0  0
  159.5312  141.4860  185.1421 C   0  0  0  0  0  0  0  0  0  0  0  0
  159.3026  141.9964  186.4390 C   0  0  0  0  0  0  0  0  0  0  0  0
  160.2076  142.8154  187.0606 C   0  0  0  0  0  0  0  0  0  0  0  0
  161.3821  143.1773  186.4513 C   0  0  0  0  0  0  0  0  0  0  0  0
  162.2793  143.9893  187.0829 F   0  0  0  0  0  0  0  0  0  0  0  0
  161.6250  142.6886  185.1894 C   0  0  0  0  0  0  0  0  0  0  0  0
  160.7023  141.8491  184.5421 C   0  0  0  0  0  0  0  0  0  0  0  0
  153.8093  138.8171  185.3721 C   0  0  0  0  0  0  0  0  0  0  0  0
  153.3444  137.8288  184.3481 C   0  0  0  0  0  0  0  0  0  0  0  0
  152.4228  138.1302  183.3801 C   0  0  0  0  0  0  0  0  0  0  0  0
  152.0431  137.1683  182.4914 C   0  0  0  0  0  0  0  0  0  0  0  0
  152.6035  135.9505  182.6118 N   0  0  0  0  0  0  0  0  0  0  0  0
  153.5057  135.6326  183.5480 C   0  0  0  0  0  0  0  0  0  0  0  0
  153.8552  136.6002  184.4048 N   0  0  0  0  0  0  0  0  0  0  0  0
  151.0276  137.3909  181.4710 C   0  0  0  0  0  0  0  0  0  0  0  0
  150.2491  136.3149  181.0209 C   0  0  0  0  0  0  0  0  0  0  0  0
  149.2644  136.5213  180.0888 C   0  0  0  0  0  0  0  0  0  0  0  0
  149.0079  137.7726  179.5682 C   0  0  0  0  0  0  0  0  0  0  0  0
  149.7516  138.7958  179.9960 N   0  0  0  0  0  0  0  0  0  0  0  0
  150.7388  138.6154  180.9229 C   0  0  0  0  0  0  0  0  0  0  0  0
  147.8925  137.9426  178.5820 C   0  0  0  0  0  0  0  0  0  0  0  0
  146.9181  138.7575  179.0809 F   0  0  0  0  0  0  0  0  0  0  0  0
  147.3653  136.7445  178.1869 F   0  0  0  0  0  0  0  0  0  0  0  0
  148.4657  138.5632  177.4661 F   0  0  0  0  0  0  0  0  0  0  0  0
  7  8  1  0  0  0
  8  9  2  0  0  0
  9 10  1  0  0  0
 10 11  2  0  0  0
 11 12  1  0  0  0
 12 13  2  0  0  0
 11  6  1  0  0  0
  6  5  1  0  0  0
  5  1  1  0  0  0
  1  2  2  0  0  0
  1  3  1  0  0  0
  3 24  1  0  0  0
 24 25  1  0  0  0
 25 26  2  0  0  0
 26 27  1  0  0  0
 27 28  2  0  0  0
 28 29  1  0  0  0
 29 30  2  0  0  0
 27 31  1  0  0  0
 31 32  2  0  0  0
 32 33  1  0  0  0
 33 34  2  0  0  0
 34 35  1  0  0  0
 35 36  2  0  0  0
 34 37  1  0  0  0
 37 38  1  0  0  0
 37 39  1  0  0  0
 37 40  1  0  0  0
  6 14  1  0  0  0
 14 15  2  0  0  0
 14 16  2  0  0  0
 14 17  1  0  0  0
 17 18  2  0  0  0
 18 19  1  0  0  0
 19 20  2  0  0  0
 20 21  1  0  0  0
 20 22  1  0  0  0
 22 23  2  0  0  0
 13  8  1  0  0  0
 30 25  1  0  0  0
 36 31  1  0  0  0
 23 17  1  0  0  0
  3  4  1  0  0  0
M  END
> <minimizedAffinity>
-9.57119

> <CNNscore>
0.4208496511

> <CNNaffinity>
7.1061425209

> <CNN_VS>
2.9906175137

> <CNNaffinity_variance>
0.0382861719

$$$$
[H]c1nc(-c2c([H])nc(C(F)(F)F)c([H])c2[H])c([H])c(C([H])([H])N([H])C(=O)C([H])([H])N(c2c([H])c([H])c(F)c([H])c2[H])S(=O)(=O)c2c([H])c([H])c(F)c([H])c2[H])n1


 40 43  0  0  0  0  0  0  0  0999 V2000
  155.1211  140.7938  183.6588 C   0  0  0  0  0  0  0  0  0  0  0  0
  154.6344  141.9160  183.8848 O   0  0  0  0  0  0  0  0  0  0  0  0
  154.6329  139.6207  184.3593 N   0  0  0  0  0  0  0  0  0  0  0  0
  155.0762  138.7148  184.1537 H   0  0  0  0  0  0  0  0  0  0  0  0
  156.1959  140.5138  182.6946 C   0  0  0  0  0  0  0  0  0  0  0  0
  157.5125  140.9714  182.9652 N   0  0  0  0  0  0  0  0  0  0  0  0
  159.7632  145.0493  179.8851 F   0  0  0  0  0  0  0  0  0  0  0  0
  159.2036  144.0085  180.5974 C   0  0  0  0  0  0  0  0  0  0  0  0
  158.6474  144.3534  181.8232 C   0  0  0  0  0  0  0  0  0  0  0  0
  158.0876  143.3494  182.5649 C   0  0  0  0  0  0  0  0  0  0  0  0
  158.0485  142.0327  182.1626 C   0  0  0  0  0  0  0  0  0  0  0  0
  158.6126  141.7410  180.9312 C   0  0  0  0  0  0  0  0  0  0  0  0
  159.2003  142.7273  180.1309 C   0  0  0  0  0  0  0  0  0  0  0  0
  158.4319  140.2432  184.2191 S   0  0  0  0  0  0  0  0  0  0  0  0
  157.4831  139.5258  185.1644 O   0  0  0  0  0  0  0  0  0  0  0  0
  159.2263  139.1130  183.5688 O   0  0  0  0  0  0  0  0  0  0  0  0
  159.4708  141.3292  185.0733 C   0  0  0  0  0  0  0  0  0  0  0  0
  160.7032  141.7200  184.5046 C   0  0  0  0  0  0  0  0  0  0  0  0
  161.5491  142.5867  185.1445 C   0  0  0  0  0  0  0  0  0  0  0  0
  161.2368  143.1183  186.3698 C   0  0  0  0  0  0  0  0  0  0  0  0
  162.0848  143.9858  186.9954 F   0  0  0  0  0  0  0  0  0  0  0  0
  160.0400  142.7527  186.9393 C   0  0  0  0  0  0  0  0  0  0  0  0
  159.1658  141.8627  186.2920 C   0  0  0  0  0  0  0  0  0  0  0  0
  153.5614  139.7475  185.3115 C   0  0  0  0  0  0  0  0  0  0  0  0
  153.6230  138.5347  186.1871 C   0  0  0  0  0  0  0  0  0  0  0  0
  154.3550  137.4200  185.8727 C   0  0  0  0  0  0  0  0  0  0  0  0
  154.3482  136.3511  186.7194 C   0  0  0  0  0  0  0  0  0  0  0  0
  153.6106  136.4476  187.8411 N   0  0  0  0  0  0  0  0  0  0  0  0
  152.8883  137.5255  188.1699 C   0  0  0  0  0  0  0  0  0  0  0  0
  152.9166  138.5562  187.3159 N   0  0  0  0  0  0  0  0  0  0  0  0
  155.0516  135.1087  186.4302 C   0  0  0  0  0  0  0  0  0  0  0  0
  154.6466  134.3189  185.3447 C   0  0  0  0  0  0  0  0  0  0  0  0
  155.3267  133.1673  185.0408 C   0  0  0  0  0  0  0  0  0  0  0  0
  156.4148  132.7501  185.7787 C   0  0  0  0  0  0  0  0  0  0  0  0
  156.7978  133.5020  186.8136 N   0  0  0  0  0  0  0  0  0  0  0  0
  156.1360  134.6526  187.1369 C   0  0  0  0  0  0  0  0  0  0  0  0
  157.1417  131.5038  185.3741 C   0  0  0  0  0  0  0  0  0  0  0  0
  158.3770  131.7981  184.8743 F   0  0  0  0  0  0  0  0  0  0  0  0
  156.4255  130.7546  184.4823 F   0  0  0  0  0  0  0  0  0  0  0  0
  157.3008  130.7604  186.5491 F   0  0  0  0  0  0  0  0  0  0  0  0
  7  8  1  0  0  0
  8  9  2  0  0  0
  9 10  1  0  0  0
 10 11  2  0  0  0
 11 12  1  0  0  0
 12 13  2  0  0  0
 11  6  1  0  0  0
  6  5  1  0  0  0
  5  1  1  0  0  0
  1  2  2  0  0  0
  1  3  1  0  0  0
  3 24  1  0  0  0
 24 25  1  0  0  0
 25 26  2  0  0  0
 26 27  1  0  0  0
 27 28  2  0  0  0
 28 29  1  0  0  0
 29 30  2  0  0  0
 27 31  1  0  0  0
 31 32  2  0  0  0
 32 33  1  0  0  0
 33 34  2  0  0  0
 34 35  1  0  0  0
 35 36  2  0  0  0
 34 37  1  0  0  0
 37 38  1  0  0  0
 37 39  1  0  0  0
 37 40  1  0  0  0
  6 14  1  0  0  0
 14 15  2  0  0  0
 14 16  2  0  0  0
 14 17  1  0  0  0
 17 18  2  0  0  0
 18 19  1  0  0  0
 19 20  2  0  0  0
 20 21  1  0  0  0
 20 22  1  0  0  0
 22 23  2  0  0  0
 13  8  1  0  0  0
 30 25  1  0  0  0
 36 31  1  0  0  0
 23 17  1  0  0  0
  3  4  1  0  0  0
M  END
> <minimizedAffinity>
-8.50554

> <CNNscore>
0.4157115519

> <CNNaffinity>
7.0950231552

> <CNN_VS>
2.9494831562

> <CNNaffinity_variance>
0.1859548390

$$$$
[H]c1nc(C(F)(F)F)c(C([H])([H])[H])c([H])c1-c1nc(N([H])C(=O)C([H])([H])n2c([H])nc3c2c(=O)n(C([H])([H])c2nc(C([H])([H])[H])no2)c(=O)n3C([H])([H])[H])c([H])s1


 40 44  0  0  0  0  0  0  0  0999 V2000
  155.0469  138.2751  184.3633 C   0  0  0  0  0  0  0  0  0  0  0  0
  158.2142  141.3751  183.4219 N   0  0  0  0  0  0  0  0  0  0  0  0
  157.7059  142.4969  182.9001 C   0  0  0  0  0  0  0  0  0  0  0  0
  158.5034  143.4283  182.6010 O   0  0  0  0  0  0  0  0  0  0  0  0
  156.3927  142.6611  182.6874 N   0  0  0  0  0  0  0  0  0  0  0  0
  155.9017  143.8893  182.1208 C   0  0  0  0  0  0  0  0  0  0  0  0
  155.5701  141.6512  183.0168 C   0  0  0  0  0  0  0  0  0  0  0  0
  154.2251  141.4868  182.9380 N   0  0  0  0  0  0  0  0  0  0  0  0
  153.8951  140.2791  183.4039 C   0  0  0  0  0  0  0  0  0  0  0  0
  155.0188  139.6117  183.8033 N   0  0  0  0  0  0  0  0  0  0  0  0
  156.0367  140.4535  183.5654 C   0  0  0  0  0  0  0  0  0  0  0  0
  157.3838  140.3583  183.7533 C   0  0  0  0  0  0  0  0  0  0  0  0
  157.8746  139.3291  184.2360 O   0  0  0  0  0  0  0  0  0  0  0  0
  159.6251  141.2240  183.6378 C   0  0  0  0  0  0  0  0  0  0  0  0
  162.5616  143.1295  187.1976 C   0  0  0  0  0  0  0  0  0  0  0  0
  161.3651  142.6240  186.5128 C   0  0  0  0  0  0  0  0  0  0  0  0
  160.0986  142.5017  186.9615 N   0  0  0  0  0  0  0  0  0  0  0  0
  159.3808  142.0099  186.0188 O   0  0  0  0  0  0  0  0  0  0  0  0
  160.0939  141.7851  184.9327 C   0  0  0  0  0  0  0  0  0  0  0  0
  161.3404  142.1723  185.2474 N   0  0  0  0  0  0  0  0  0  0  0  0
  154.6989  138.3834  185.8351 C   0  0  0  0  0  0  0  0  0  0  0  0
  153.6988  139.0260  186.1937 O   0  0  0  0  0  0  0  0  0  0  0  0
  155.5364  137.7444  186.7424 N   0  0  0  0  0  0  0  0  0  0  0  0
  156.3706  137.2189  186.3303 H   0  0  0  0  0  0  0  0  0  0  0  0
  155.3590  137.7300  188.1853 C   0  0  0  0  0  0  0  0  0  0  0  0
  156.2751  138.2545  189.0452 C   0  0  0  0  0  0  0  0  0  0  0  0
  155.5408  137.9097  190.5770 S   0  0  0  0  0  0  0  0  0  0  0  0
  154.1367  137.1298  190.0021 C   0  0  0  0  0  0  0  0  0  0  0  0
  154.2961  137.1729  188.7024 N   0  0  0  0  0  0  0  0  0  0  0  0
  153.0229  136.5432  190.7787 C   0  0  0  0  0  0  0  0  0  0  0  0
  151.8284  136.2126  190.2095 C   0  0  0  0  0  0  0  0  0  0  0  0
  150.8152  135.6643  190.9450 N   0  0  0  0  0  0  0  0  0  0  0  0
  151.0202  135.4493  192.2797 C   0  0  0  0  0  0  0  0  0  0  0  0
  152.2057  135.7654  192.9022 C   0  0  0  0  0  0  0  0  0  0  0  0
  152.4359  135.5390  194.3476 C   0  0  0  0  0  0  0  0  0  0  0  0
  153.2167  136.3239  192.1150 C   0  0  0  0  0  0  0  0  0  0  0  0
  149.9053  134.8616  193.0376 C   0  0  0  0  0  0  0  0  0  0  0  0
  150.2729  133.5808  193.4124 F   0  0  0  0  0  0  0  0  0  0  0  0
  148.8042  134.6734  192.1804 F   0  0  0  0  0  0  0  0  0  0  0  0
  149.4368  135.6301  194.0613 F   0  0  0  0  0  0  0  0  0  0  0  0
 15 16  1  0  0  0
 16 17  2  0  0  0
 17 18  1  0  0  0
 18 19  1  0  0  0
 19 14  1  0  0  0
 14  2  1  0  0  0
  2  3  1  0  0  0
  3  4  2  0  0  0
  3  5  1  0  0  0
  5  6  1  0  0  0
  5  7  1  0  0  0
  7  8  1  0  0  0
  8  9  2  0  0  0
  9 10  1  0  0  0
 10  1  1  0  0  0
  1 21  1  0  0  0
 21 22  2  0  0  0
 21 23  1  0  0  0
 23 25  1  0  0  0
 25 26  2  0  0  0
 26 27  1  0  0  0
 27 28  1  0  0  0
 28 29  2  0  0  0
 28 30  1  0  0  0
 30 31  2  0  0  0
 31 32  1  0  0  0
 32 33  2  0  0  0
 33 34  1  0  0  0
 34 35  1  0  0  0
 34 36  2  0  0  0
 33 37  1  0  0  0
 37 38  1  0  0  0
 37 39  1  0  0  0
 37 40  1  0  0  0
 10 11  1  0  0  0
 11 12  1  0  0  0
 12 13  2  0  0  0
 19 20  2  0  0  0
 20 16  1  0  0  0
 12  2  1  0  0  0
 11  7  2  0  0  0
 29 25  1  0  0  0
 36 30  1  0  0  0
 23 24  1  0  0  0
M  END
> <minimizedAffinity>
-9.00324

> <CNNscore>
0.7028706670

> <CNNaffinity>
7.0970444679

> <CNN_VS>
4.9883046150

> <CNNaffinity_variance>
0.1781356037

$$$$
[H]c1nc(C(F)(F)F)c(C([H])([H])[H])c([H])c1-c1nc(N([H])C(=O)C([H])([H])n2c([H])nc3c2c(=O)n(C([H])([H])c2nc(C([H])([H])[H])no2)c(=O)n3C([H])([H])[H])c([H])s1


 40 44  0  0  0  0  0  0  0  0999 V2000
  155.1037  136.7619  187.8862 C   0  0  0  0  0  0  0  0  0  0  0  0
  151.1387  135.7244  189.8176 N   0  0  0  0  0  0  0  0  0  0  0  0
  151.0429  136.1626  191.0776 C   0  0  0  0  0  0  0  0  0  0  0  0
  149.9762  135.9271  191.7097 O   0  0  0  0  0  0  0  0  0  0  0  0
  152.0317  136.8356  191.6827 N   0  0  0  0  0  0  0  0  0  0  0  0
  151.8745  137.2815  193.0417 C   0  0  0  0  0  0  0  0  0  0  0  0
  153.1541  137.0705  190.9827 C   0  0  0  0  0  0  0  0  0  0  0  0
  154.3169  137.7046  191.2794 N   0  0  0  0  0  0  0  0  0  0  0  0
  155.1300  137.6643  190.2203 C   0  0  0  0  0  0  0  0  0  0  0  0
  154.5226  136.9990  189.1927 N   0  0  0  0  0  0  0  0  0  0  0  0
  153.3180  136.6399  189.6633 C   0  0  0  0  0  0  0  0  0  0  0  0
  152.2705  135.9621  189.1135 C   0  0  0  0  0  0  0  0  0  0  0  0
  152.3383  135.5489  187.9482 O   0  0  0  0  0  0  0  0  0  0  0  0
  150.0655  135.0042  189.1933 C   0  0  0  0  0  0  0  0  0  0  0  0
  147.7155  137.9099  185.8827 C   0  0  0  0  0  0  0  0  0  0  0  0
  147.9983  137.1626  187.1146 C   0  0  0  0  0  0  0  0  0  0  0  0
  147.2649  137.0422  188.2407 N   0  0  0  0  0  0  0  0  0  0  0  0
  147.9036  136.2907  189.0612 O   0  0  0  0  0  0  0  0  0  0  0  0
  149.0502  135.8826  188.5538 C   0  0  0  0  0  0  0  0  0  0  0  0
  149.1058  136.4329  187.3304 N   0  0  0  0  0  0  0  0  0  0  0  0
  154.5382  137.7977  186.9341 C   0  0  0  0  0  0  0  0  0  0  0  0
  153.6942  138.6164  187.3331 O   0  0  0  0  0  0  0  0  0  0  0  0
  154.9990  137.7847  185.6225 N   0  0  0  0  0  0  0  0  0  0  0  0
  155.7250  137.0386  185.3813 H   0  0  0  0  0  0  0  0  0  0  0  0
  154.5807  138.7016  184.5746 C   0  0  0  0  0  0  0  0  0  0  0  0
  155.1671  139.9149  184.3804 C   0  0  0  0  0  0  0  0  0  0  0  0
  154.2359  140.5351  183.0565 S   0  0  0  0  0  0  0  0  0  0  0  0
  153.1816  139.2084  182.8598 C   0  0  0  0  0  0  0  0  0  0  0  0
  153.5857  138.3801  183.7910 N   0  0  0  0  0  0  0  0  0  0  0  0
  152.0804  139.0407  181.8867 C   0  0  0  0  0  0  0  0  0  0  0  0
  152.2137  139.3626  180.5681 C   0  0  0  0  0  0  0  0  0  0  0  0
  151.1850  139.1920  179.6845 N   0  0  0  0  0  0  0  0  0  0  0  0
  150.0027  138.6864  180.1494 C   0  0  0  0  0  0  0  0  0  0  0  0
  149.8163  138.3464  181.4695 C   0  0  0  0  0  0  0  0  0  0  0  0
  148.5387  137.8011  181.9828 C   0  0  0  0  0  0  0  0  0  0  0  0
  150.8928  138.5358  182.3407 C   0  0  0  0  0  0  0  0  0  0  0  0
  148.9188  138.5212  179.1693 C   0  0  0  0  0  0  0  0  0  0  0  0
  147.7523  139.0024  179.7386 F   0  0  0  0  0  0  0  0  0  0  0  0
  148.6720  137.1493  178.9709 F   0  0  0  0  0  0  0  0  0  0  0  0
  149.1827  139.0221  177.9293 F   0  0  0  0  0  0  0  0  0  0  0  0
 15 16  1  0  0  0
 16 17  2  0  0  0
 17 18  1  0  0  0
 18 19  1  0  0  0
 19 14  1  0  0  0
 14  2  1  0  0  0
  2  3  1  0  0  0
  3  4  2  0  0  0
  3  5  1  0  0  0
  5  6  1  0  0  0
  5  7  1  0  0  0
  7  8  1  0  0  0
  8  9  2  0  0  0
  9 10  1  0  0  0
 10  1  1  0  0  0
  1 21  1  0  0  0
 21 22  2  0  0  0
 21 23  1  0  0  0
 23 25  1  0  0  0
 25 26  2  0  0  0
 26 27  1  0  0  0
 27 28  1  0  0  0
 28 29  2  0  0  0
 28 30  1  0  0  0
 30 31  2  0  0  0
 31 32  1  0  0  0
 32 33  2  0  0  0
 33 34  1  0  0  0
 34 35  1  0  0  0
 34 36  2  0  0  0
 33 37  1  0  0  0
 37 38  1  0  0  0
 37 39  1  0  0  0
 37 40  1  0  0  0
 10 11  1  0  0  0
 11 12  1  0  0  0
 12 13  2  0  0  0
 19 20  2  0  0  0
 20 16  1  0  0  0
 12  2  1  0  0  0
 11  7  2  0  0  0
 29 25  1  0  0  0
 36 30  1  0  0  0
 23 24  1  0  0  0
M  END
> <minimizedAffinity>
-7.54606

> <CNNscore>
0.6640200019

> <CNNaffinity>
6.6759901047

> <CNN_VS>
4.4329910278

> <CNNaffinity_variance>
0.1016512364

$$$$
[H]c1nc(C(F)(F)F)c(C([H])([H])[H])c([H])c1-c1nc(N([H])C(=O)C([H])([H])n2c([H])nc3c2c(=O)n(C([H])([H])c2nc(C([H])([H])[H])no2)c(=O)n3C([H])([H])[H])c([H])s1


 40 44  0  0  0  0  0  0  0  0999 V2000
  154.1320  136.4665  185.3400 C   0  0  0  0  0  0  0  0  0  0  0  0
  151.9935  138.5837  181.9529 N   0  0  0  0  0  0  0  0  0  0  0  0
  152.4792  139.8069  181.7145 C   0  0  0  0  0  0  0  0  0  0  0  0
  151.9543  140.4851  180.7885 O   0  0  0  0  0  0  0  0  0  0  0  0
  153.4930  140.3287  182.4192 N   0  0  0  0  0  0  0  0  0  0  0  0
  153.9736  141.6517  182.1203 C   0  0  0  0  0  0  0  0  0  0  0  0
  154.0303  139.5813  183.3978 C   0  0  0  0  0  0  0  0  0  0  0  0
  155.0399  139.7942  184.2797 N   0  0  0  0  0  0  0  0  0  0  0  0
  155.1850  138.7195  185.0598 C   0  0  0  0  0  0  0  0  0  0  0  0
  154.2703  137.7655  184.7120 N   0  0  0  0  0  0  0  0  0  0  0  0
  153.5696  138.2965  183.6978 C   0  0  0  0  0  0  0  0  0  0  0  0
  152.5362  137.8318  182.9395 C   0  0  0  0  0  0  0  0  0  0  0  0
  152.0727  136.7018  183.1431 O   0  0  0  0  0  0  0  0  0  0  0  0
  150.9055  138.0489  181.1847 C   0  0  0  0  0  0  0  0  0  0  0  0
  146.9385  138.9545  184.0776 C   0  0  0  0  0  0  0  0  0  0  0  0
  147.8127  138.9155  182.8986 C   0  0  0  0  0  0  0  0  0  0  0  0
  147.6005  139.3777  181.6489 N   0  0  0  0  0  0  0  0  0  0  0  0
  148.6405  139.1248  180.9416 O   0  0  0  0  0  0  0  0  0  0  0  0
  149.5679  138.5065  181.6462 C   0  0  0  0  0  0  0  0  0  0  0  0
  149.0436  138.3768  182.8754 N   0  0  0  0  0  0  0  0  0  0  0  0
  153.0756  136.5861  186.4211 C   0  0  0  0  0  0  0  0  0  0  0  0
  153.2657  137.3268  187.3994 O   0  0  0  0  0  0  0  0  0  0  0  0
  151.9116  135.8416  186.2676 N   0  0  0  0  0  0  0  0  0  0  0  0
  151.8477  135.2352  185.3900 H   0  0  0  0  0  0  0  0  0  0  0  0
  150.7895  135.8343  187.1919 C   0  0  0  0  0  0  0  0  0  0  0  0
  149.5161  136.1240  186.8068 C   0  0  0  0  0  0  0  0  0  0  0  0
  148.6668  135.9920  188.3121 S   0  0  0  0  0  0  0  0  0  0  0  0
  149.9934  135.5825  189.3033 C   0  0  0  0  0  0  0  0  0  0  0  0
  150.9916  135.5665  188.4549 N   0  0  0  0  0  0  0  0  0  0  0  0
  150.0121  135.3205  190.7589 C   0  0  0  0  0  0  0  0  0  0  0  0
  149.2693  134.3318  191.3340 C   0  0  0  0  0  0  0  0  0  0  0  0
  149.3078  134.1021  192.6808 N   0  0  0  0  0  0  0  0  0  0  0  0
  150.1141  134.8904  193.4543 C   0  0  0  0  0  0  0  0  0  0  0  0
  150.8825  135.9009  192.9240 C   0  0  0  0  0  0  0  0  0  0  0  0
  151.7563  136.7617  193.7540 C   0  0  0  0  0  0  0  0  0  0  0  0
  150.8150  136.1031  191.5427 C   0  0  0  0  0  0  0  0  0  0  0  0
  150.1254  134.6150  194.8989 C   0  0  0  0  0  0  0  0  0  0  0  0
  149.5847  135.7126  195.5464 F   0  0  0  0  0  0  0  0  0  0  0  0
  151.4564  134.5598  195.3546 F   0  0  0  0  0  0  0  0  0  0  0  0
  149.5713  133.4237  195.2622 F   0  0  0  0  0  0  0  0  0  0  0  0
 15 16  1  0  0  0
 16 17  2  0  0  0
 17 18  1  0  0  0
 18 19  1  0  0  0
 19 14  1  0  0  0
 14  2  1  0  0  0
  2  3  1  0  0  0
  3  4  2  0  0  0
  3  5  1  0  0  0
  5  6  1  0  0  0
  5  7  1  0  0  0
  7  8  1  0  0  0
  8  9  2  0  0  0
  9 10  1  0  0  0
 10  1  1  0  0  0
  1 21  1  0  0  0
 21 22  2  0  0  0
 21 23  1  0  0  0
 23 25  1  0  0  0
 25 26  2  0  0  0
 26 27  1  0  0  0
 27 28  1  0  0  0
 28 29  2  0  0  0
 28 30  1  0  0  0
 30 31  2  0  0  0
 31 32  1  0  0  0
 32 33  2  0  0  0
 33 34  1  0  0  0
 34 35  1  0  0  0
 34 36  2  0  0  0
 33 37  1  0  0  0
 37 38  1  0  0  0
 37 39  1  0  0  0
 37 40  1  0  0  0
 10 11  1  0  0  0
 11 12  1  0  0  0
 12 13  2  0  0  0
 19 20  2  0  0  0
 20 16  1  0  0  0
 12  2  1  0  0  0
 11  7  2  0  0  0
 29 25  1  0  0  0
 36 30  1  0  0  0
 23 24  1  0  0  0
M  END
> <minimizedAffinity>
-6.79869

> <CNNscore>
0.4460399449

> <CNNaffinity>
6.1623182297

> <CNN_VS>
2.7486400604

> <CNNaffinity_variance>
0.1722604930

$$$$
[H]c1nc(C(F)(F)F)c(C([H])([H])[H])c([H])c1-c1nc(N([H])C(=O)C([H])([H])n2c([H])nc3c2c(=O)n(C([H])([H])c2nc(C([H])([H])[H])no2)c(=O)n3C([H])([H])[H])c([H])s1


 40 44  0  0  0  0  0  0  0  0999 V2000
  154.3111  136.0292  185.0347 C   0  0  0  0  0  0  0  0  0  0  0  0
  154.6411  140.1844  183.2589 N   0  0  0  0  0  0  0  0  0  0  0  0
  153.6257  140.4833  182.4412 C   0  0  0  0  0  0  0  0  0  0  0  0
  153.6191  141.6196  181.8920 O   0  0  0  0  0  0  0  0  0  0  0  0
  152.6275  139.6248  182.1897 N   0  0  0  0  0  0  0  0  0  0  0  0
  151.5612  139.9992  181.2990 C   0  0  0  0  0  0  0  0  0  0  0  0
  152.6635  138.4234  182.7902 C   0  0  0  0  0  0  0  0  0  0  0  0
  151.8386  137.3461  182.7599 N   0  0  0  0  0  0  0  0  0  0  0  0
  152.3300  136.3855  183.5475 C   0  0  0  0  0  0  0  0  0  0  0  0
  153.4976  136.8056  184.1201 N   0  0  0  0  0  0  0  0  0  0  0  0
  153.6955  138.0490  183.6550 C   0  0  0  0  0  0  0  0  0  0  0  0
  154.6759  138.9733  183.8633 C   0  0  0  0  0  0  0  0  0  0  0  0
  155.6239  138.7171  184.6174 O   0  0  0  0  0  0  0  0  0  0  0  0
  155.6990  141.1214  183.5099 C   0  0  0  0  0  0  0  0  0  0  0  0
  158.6011  142.3378  179.6338 C   0  0  0  0  0  0  0  0  0  0  0  0
  158.0688  141.6038  180.7887 C   0  0  0  0  0  0  0  0  0  0  0  0
  158.5000  140.4601  181.3602 N   0  0  0  0  0  0  0  0  0  0  0  0
  157.7287  140.1853  182.3478 O   0  0  0  0  0  0  0  0  0  0  0  0
  156.7792  141.0893  182.4883 C   0  0  0  0  0  0  0  0  0  0  0  0
  156.9965  141.9790  181.5065 N   0  0  0  0  0  0  0  0  0  0  0  0
  153.9756  136.4760  186.4443 C   0  0  0  0  0  0  0  0  0  0  0  0
  152.7906  136.5718  186.8027 O   0  0  0  0  0  0  0  0  0  0  0  0
  155.0354  136.7681  187.2954 N   0  0  0  0  0  0  0  0  0  0  0  0
  156.0169  136.6542  186.8884 H   0  0  0  0  0  0  0  0  0  0  0  0
  154.9099  137.2006  188.6777 C   0  0  0  0  0  0  0  0  0  0  0  0
  155.5916  138.2664  189.1808 C   0  0  0  0  0  0  0  0  0  0  0  0
  155.0704  138.2545  190.8339 S   0  0  0  0  0  0  0  0  0  0  0  0
  154.0345  136.9016  190.7512 C   0  0  0  0  0  0  0  0  0  0  0  0
  154.1362  136.5384  189.4965 N   0  0  0  0  0  0  0  0  0  0  0  0
  153.2303  136.2873  191.8300 C   0  0  0  0  0  0  0  0  0  0  0  0
  152.3822  137.0126  192.6140 C   0  0  0  0  0  0  0  0  0  0  0  0
  151.6425  136.4227  193.6005 N   0  0  0  0  0  0  0  0  0  0  0  0
  151.7677  135.0747  193.7924 C   0  0  0  0  0  0  0  0  0  0  0  0
  152.6091  134.2981  193.0296 C   0  0  0  0  0  0  0  0  0  0  0  0
  152.7537  132.8381  193.2320 C   0  0  0  0  0  0  0  0  0  0  0  0
  153.3477  134.9393  192.0312 C   0  0  0  0  0  0  0  0  0  0  0  0
  150.9586  134.4777  194.8656 C   0  0  0  0  0  0  0  0  0  0  0  0
  151.7829  133.6542  195.6130 F   0  0  0  0  0  0  0  0  0  0  0  0
  150.0070  133.6050  194.3042 F   0  0  0  0  0  0  0  0  0  0  0  0
  150.2382  135.3671  195.6060 F   0  0  0  0  0  0  0  0  0  0  0  0
 15 16  1  0  0  0
 16 17  2  0  0  0
 17 18  1  0  0  0
 18 19  1  0  0  0
 19 14  1  0  0  0
 14  2  1  0  0  0
  2  3  1  0  0  0
  3  4  2  0  0  0
  3  5  1  0  0  0
  5  6  1  0  0  0
  5  7  1  0  0  0
  7  8  1  0  0  0
  8  9  2  0  0  0
  9 10  1  0  0  0
 10  1  1  0  0  0
  1 21  1  0  0  0
 21 22  2  0  0  0
 21 23  1  0  0  0
 23 25  1  0  0  0
 25 26  2  0  0  0
 26 27  1  0  0  0
 27 28  1  0  0  0
 28 29  2  0  0  0
 28 30  1  0  0  0
 30 31  2  0  0  0
 31 32  1  0  0  0
 32 33  2  0  0  0
 33 34  1  0  0  0
 34 35  1  0  0  0
 34 36  2  0  0  0
 33 37  1  0  0  0
 37 38  1  0  0  0
 37 39  1  0  0  0
 37 40  1  0  0  0
 10 11  1  0  0  0
 11 12  1  0  0  0
 12 13  2  0  0  0
 19 20  2  0  0  0
 20 16  1  0  0  0
 12  2  1  0  0  0
 11  7  2  0  0  0
 29 25  1  0  0  0
 36 30  1  0  0  0
 23 24  1  0  0  0
M  END
> <minimizedAffinity>
-7.82259

> <CNNscore>
0.4451386034

> <CNNaffinity>
6.3320851326

> <CNN_VS>
2.8186554909

> <CNNaffinity_variance>
0.2499155104

$$$$
[H]c1nc(C(F)(F)F)c(C([H])([H])[H])c([H])c1-c1nc(N([H])C(=O)C([H])([H])n2c([H])nc3c2c(=O)n(C([H])([H])c2nc(C([H])([H])[H])no2)c(=O)n3C([H])([H])[H])c([H])s1


 40 44  0  0  0  0  0  0  0  0999 V2000
  155.5186  138.5166  184.2179 C   0  0  0  0  0  0  0  0  0  0  0  0
  158.5482  141.7426  183.2471 N   0  0  0  0  0  0  0  0  0  0  0  0
  157.9848  142.8631  182.7826 C   0  0  0  0  0  0  0  0  0  0  0  0
  158.7404  143.8280  182.4810 O   0  0  0  0  0  0  0  0  0  0  0  0
  156.6594  142.9922  182.6291 N   0  0  0  0  0  0  0  0  0  0  0  0
  156.1081  144.2209  182.1226 C   0  0  0  0  0  0  0  0  0  0  0  0
  155.8823  141.9471  182.9595 C   0  0  0  0  0  0  0  0  0  0  0  0
  154.5408  141.7428  182.9306 N   0  0  0  0  0  0  0  0  0  0  0  0
  154.2674  140.5116  183.3708 C   0  0  0  0  0  0  0  0  0  0  0  0
  155.4265  139.8681  183.7025 N   0  0  0  0  0  0  0  0  0  0  0  0
  156.4077  140.7486  183.4501 C   0  0  0  0  0  0  0  0  0  0  0  0
  157.7637  140.6903  183.5796 C   0  0  0  0  0  0  0  0  0  0  0  0
  158.3052  139.6629  184.0087 O   0  0  0  0  0  0  0  0  0  0  0  0
  159.9709  141.6295  183.4001 C   0  0  0  0  0  0  0  0  0  0  0  0
  163.0104  142.8168  187.1788 C   0  0  0  0  0  0  0  0  0  0  0  0
  161.7806  142.5970  186.4072 C   0  0  0  0  0  0  0  0  0  0  0  0
  160.4915  142.7665  186.7677 N   0  0  0  0  0  0  0  0  0  0  0  0
  159.7477  142.4509  185.7712 O   0  0  0  0  0  0  0  0  0  0  0  0
  160.4643  142.0694  184.7323 C   0  0  0  0  0  0  0  0  0  0  0  0
  161.7414  142.1625  185.1362 N   0  0  0  0  0  0  0  0  0  0  0  0
  154.2781  138.2536  185.0491 C   0  0  0  0  0  0  0  0  0  0  0  0
  153.9924  139.0028  185.9973 O   0  0  0  0  0  0  0  0  0  0  0  0
  153.4954  137.1568  184.7066 N   0  0  0  0  0  0  0  0  0  0  0  0
  153.8298  136.5758  183.8745 H   0  0  0  0  0  0  0  0  0  0  0  0
  152.2711  136.7539  185.3792 C   0  0  0  0  0  0  0  0  0  0  0  0
  151.0968  136.5606  184.7179 C   0  0  0  0  0  0  0  0  0  0  0  0
  150.0350  136.1456  186.0236 S   0  0  0  0  0  0  0  0  0  0  0  0
  151.1647  136.2524  187.2974 C   0  0  0  0  0  0  0  0  0  0  0  0
  152.2675  136.5896  186.6756 N   0  0  0  0  0  0  0  0  0  0  0  0
  150.9493  136.0290  188.7436 C   0  0  0  0  0  0  0  0  0  0  0  0
  149.7866  135.5170  189.2397 C   0  0  0  0  0  0  0  0  0  0  0  0
  149.6120  135.3115  190.5797 N   0  0  0  0  0  0  0  0  0  0  0  0
  150.6356  135.6319  191.4277 C   0  0  0  0  0  0  0  0  0  0  0  0
  151.8278  136.1515  190.9786 C   0  0  0  0  0  0  0  0  0  0  0  0
  152.9408  136.5044  191.8896 C   0  0  0  0  0  0  0  0  0  0  0  0
  151.9665  136.3462  189.6015 C   0  0  0  0  0  0  0  0  0  0  0  0
  150.4082  135.4002  192.8621 C   0  0  0  0  0  0  0  0  0  0  0  0
  151.1210  134.2719  193.2299 F   0  0  0  0  0  0  0  0  0  0  0  0
  149.0613  135.0476  193.0716 F   0  0  0  0  0  0  0  0  0  0  0  0
  150.6251  136.4827  193.6616 F   0  0  0  0  0  0  0  0  0  0  0  0
 15 16  1  0  0  0
 16 17  2  0  0  0
 17 18  1  0  0  0
 18 19  1  0  0  0
 19 14  1  0  0  0
 14  2  1  0  0  0
  2  3  1  0  0  0
  3  4  2  0  0  0
  3  5  1  0  0  0
  5  6  1  0  0  0
  5  7  1  0  0  0
  7  8  1  0  0  0
  8  9  2  0  0  0
  9 10  1  0  0  0
 10  1  1  0  0  0
  1 21  1  0  0  0
 21 22  2  0  0  0
 21 23  1  0  0  0
 23 25  1  0  0  0
 25 26  2  0  0  0
 26 27  1  0  0  0
 27 28  1  0  0  0
 28 29  2  0  0  0
 28 30  1  0  0  0
 30 31  2  0  0  0
 31 32  1  0  0  0
 32 33  2  0  0  0
 33 34  1  0  0  0
 34 35  1  0  0  0
 34 36  2  0  0  0
 33 37  1  0  0  0
 37 38  1  0  0  0
 37 39  1  0  0  0
 37 40  1  0  0  0
 10 11  1  0  0  0
 11 12  1  0  0  0
 12 13  2  0  0  0
 19 20  2  0  0  0
 20 16  1  0  0  0
 12  2  1  0  0  0
 11  7  2  0  0  0
 29 25  1  0  0  0
 36 30  1  0  0  0
 23 24  1  0  0  0
M  END
> <minimizedAffinity>
-8.57550

> <CNNscore>
0.4227088690

> <CNNaffinity>
6.6938428879

> <CNN_VS>
2.8295466900

> <CNNaffinity_variance>
0.1442035139

$$$$
[H]c1nc(C(F)(F)F)c(C([H])([H])[H])c([H])c1-c1nc(N([H])C(=O)C([H])([H])n2c([H])nc3c2c(=O)n(C([H])([H])c2nc(C([H])([H])[H])no2)c(=O)n3C([H])([H])[H])c([H])s1


 40 44  0  0  0  0  0  0  0  0999 V2000
  150.7721  136.2301  183.5063 C   0  0  0  0  0  0  0  0  0  0  0  0
  154.6126  137.4963  185.5498 N   0  0  0  0  0  0  0  0  0  0  0  0
  155.1210  138.6270  185.0480 C   0  0  0  0  0  0  0  0  0  0  0  0
  156.1924  139.0701  185.5467 O   0  0  0  0  0  0  0  0  0  0  0  0
  154.5361  139.2960  184.0445 N   0  0  0  0  0  0  0  0  0  0  0  0
  155.1293  140.5069  183.5424 C   0  0  0  0  0  0  0  0  0  0  0  0
  153.3965  138.7984  183.5356 C   0  0  0  0  0  0  0  0  0  0  0  0
  152.5658  139.2099  182.5442 N   0  0  0  0  0  0  0  0  0  0  0  0
  151.5510  138.3492  182.4264 C   0  0  0  0  0  0  0  0  0  0  0  0
  151.6866  137.3424  183.3406 N   0  0  0  0  0  0  0  0  0  0  0  0
  152.8133  137.6221  184.0143 C   0  0  0  0  0  0  0  0  0  0  0  0
  153.4641  136.9962  185.0359 C   0  0  0  0  0  0  0  0  0  0  0  0
  153.0097  135.9491  185.5156 O   0  0  0  0  0  0  0  0  0  0  0  0
  155.2600  136.7979  186.6237 C   0  0  0  0  0  0  0  0  0  0  0  0
  155.1005  138.9040  191.1475 C   0  0  0  0  0  0  0  0  0  0  0  0
  154.7009  138.1307  189.9650 C   0  0  0  0  0  0  0  0  0  0  0  0
  153.5669  137.4398  189.7262 N   0  0  0  0  0  0  0  0  0  0  0  0
  153.6501  136.9167  188.5578 O   0  0  0  0  0  0  0  0  0  0  0  0
  154.7937  137.2145  187.9730 C   0  0  0  0  0  0  0  0  0  0  0  0
  155.4512  137.9775  188.8608 N   0  0  0  0  0  0  0  0  0  0  0  0
  149.9572  136.4849  184.7594 C   0  0  0  0  0  0  0  0  0  0  0  0
  149.1670  137.4416  184.8056 O   0  0  0  0  0  0  0  0  0  0  0  0
  150.1355  135.6159  185.8299 N   0  0  0  0  0  0  0  0  0  0  0  0
  150.8402  134.8252  185.6877 H   0  0  0  0  0  0  0  0  0  0  0  0
  149.4391  135.6959  187.1036 C   0  0  0  0  0  0  0  0  0  0  0  0
  148.1252  136.0380  187.2043 C   0  0  0  0  0  0  0  0  0  0  0  0
  147.8937  135.9983  188.9217 S   0  0  0  0  0  0  0  0  0  0  0  0
  149.4786  135.5534  189.3692 C   0  0  0  0  0  0  0  0  0  0  0  0
  150.0876  135.4590  188.2131 N   0  0  0  0  0  0  0  0  0  0  0  0
  150.0289  135.3378  190.7251 C   0  0  0  0  0  0  0  0  0  0  0  0
  149.8984  134.1530  191.3879 C   0  0  0  0  0  0  0  0  0  0  0  0
  150.4218  133.9732  192.6376 N   0  0  0  0  0  0  0  0  0  0  0  0
  151.0879  135.0146  193.2220 C   0  0  0  0  0  0  0  0  0  0  0  0
  151.2469  136.2297  192.5968 C   0  0  0  0  0  0  0  0  0  0  0  0
  151.9640  137.3642  193.2229 C   0  0  0  0  0  0  0  0  0  0  0  0
  150.6972  136.3728  191.3197 C   0  0  0  0  0  0  0  0  0  0  0  0
  151.6331  134.7837  194.5682 C   0  0  0  0  0  0  0  0  0  0  0  0
  151.2800  133.5030  194.9572 F   0  0  0  0  0  0  0  0  0  0  0  0
  150.9774  135.6230  195.4892 F   0  0  0  0  0  0  0  0  0  0  0  0
  152.9599  135.0637  194.7079 F   0  0  0  0  0  0  0  0  0  0  0  0
 15 16  1  0  0  0
 16 17  2  0  0  0
 17 18  1  0  0  0
 18 19  1  0  0  0
 19 14  1  0  0  0
 14  2  1  0  0  0
  2  3  1  0  0  0
  3  4  2  0  0  0
  3  5  1  0  0  0
  5  6  1  0  0  0
  5  7  1  0  0  0
  7  8  1  0  0  0
  8  9  2  0  0  0
  9 10  1  0  0  0
 10  1  1  0  0  0
  1 21  1  0  0  0
 21 22  2  0  0  0
 21 23  1  0  0  0
 23 25  1  0  0  0
 25 26  2  0  0  0
 26 27  1  0  0  0
 27 28  1  0  0  0
 28 29  2  0  0  0
 28 30  1  0  0  0
 30 31  2  0  0  0
 31 32  1  0  0  0
 32 33  2  0  0  0
 33 34  1  0  0  0
 34 35  1  0  0  0
 34 36  2  0  0  0
 33 37  1  0  0  0
 37 38  1  0  0  0
 37 39  1  0  0  0
 37 40  1  0  0  0
 10 11  1  0  0  0
 11 12  1  0  0  0
 12 13  2  0  0  0
 19 20  2  0  0  0
 20 16  1  0  0  0
 12  2  1  0  0  0
 11  7  2  0  0  0
 29 25  1  0  0  0
 36 30  1  0  0  0
 23 24  1  0  0  0
M  END
> <minimizedAffinity>
-6.80517

> <CNNscore>
0.4128722250

> <CNNaffinity>
6.3029365540

> <CNN_VS>
2.6023075581

> <CNNaffinity_variance>
0.4035062790

$$$$
[H]c1nc(C(F)(F)F)c(C([H])([H])[H])c([H])c1-c1nc(N([H])C(=O)C([H])([H])n2c([H])nc3c2c(=O)n(C([H])([H])c2nc(C([H])([H])[H])no2)c(=O)n3C([H])([H])[H])c([H])s1


 40 44  0  0  0  0  0  0  0  0999 V2000
  152.5958  136.2470  186.3831 C   0  0  0  0  0  0  0  0  0  0  0  0
  154.7405  136.8518  190.3280 N   0  0  0  0  0  0  0  0  0  0  0  0
  155.9319  136.2454  190.3712 C   0  0  0  0  0  0  0  0  0  0  0  0
  156.6150  136.3508  191.4272 O   0  0  0  0  0  0  0  0  0  0  0  0
  156.4172  135.5381  189.3412 N   0  0  0  0  0  0  0  0  0  0  0  0
  157.7051  134.9046  189.4443 C   0  0  0  0  0  0  0  0  0  0  0  0
  155.6660  135.4452  188.2312 C   0  0  0  0  0  0  0  0  0  0  0  0
  155.8478  134.8262  187.0371 N   0  0  0  0  0  0  0  0  0  0  0  0
  154.7854  135.0416  186.2565 C   0  0  0  0  0  0  0  0  0  0  0  0
  153.8703  135.8112  186.9184 N   0  0  0  0  0  0  0  0  0  0  0  0
  154.4131  136.0546  188.1216 C   0  0  0  0  0  0  0  0  0  0  0  0
  153.9847  136.7573  189.2086 C   0  0  0  0  0  0  0  0  0  0  0  0
  152.8856  137.3270  189.1889 O   0  0  0  0  0  0  0  0  0  0  0  0
  154.2429  137.6018  191.4460 C   0  0  0  0  0  0  0  0  0  0  0  0
  152.3607  133.9412  194.2715 C   0  0  0  0  0  0  0  0  0  0  0  0
  152.4876  135.2284  193.5766 C   0  0  0  0  0  0  0  0  0  0  0  0
  151.6403  136.2777  193.5381 N   0  0  0  0  0  0  0  0  0  0  0  0
  152.1609  137.1918  192.8039 O   0  0  0  0  0  0  0  0  0  0  0  0
  153.3350  136.8235  192.3300 C   0  0  0  0  0  0  0  0  0  0  0  0
  153.5365  135.5890  192.8179 N   0  0  0  0  0  0  0  0  0  0  0  0
  152.8333  137.5307  185.6118 C   0  0  0  0  0  0  0  0  0  0  0  0
  153.1041  138.5807  186.2169 O   0  0  0  0  0  0  0  0  0  0  0  0
  152.7334  137.4759  184.2262 N   0  0  0  0  0  0  0  0  0  0  0  0
  152.4949  136.5236  183.8043 H   0  0  0  0  0  0  0  0  0  0  0  0
  152.9353  138.5972  183.3232 C   0  0  0  0  0  0  0  0  0  0  0  0
  152.0561  138.9128  182.3327 C   0  0  0  0  0  0  0  0  0  0  0  0
  152.8422  140.2729  181.6001 S   0  0  0  0  0  0  0  0  0  0  0  0
  154.2182  140.3283  182.6070 C   0  0  0  0  0  0  0  0  0  0  0  0
  154.0111  139.3312  183.4312 N   0  0  0  0  0  0  0  0  0  0  0  0
  155.3630  141.2634  182.5551 C   0  0  0  0  0  0  0  0  0  0  0  0
  155.2008  142.6162  182.4959 C   0  0  0  0  0  0  0  0  0  0  0  0
  156.2735  143.4623  182.4565 N   0  0  0  0  0  0  0  0  0  0  0  0
  157.5302  142.9240  182.4776 C   0  0  0  0  0  0  0  0  0  0  0  0
  157.7483  141.5669  182.5364 C   0  0  0  0  0  0  0  0  0  0  0  0
  159.1055  140.9745  182.5566 C   0  0  0  0  0  0  0  0  0  0  0  0
  156.6251  140.7359  182.5755 C   0  0  0  0  0  0  0  0  0  0  0  0
  158.6583  143.8664  182.4300 C   0  0  0  0  0  0  0  0  0  0  0  0
  158.1427  145.1506  182.4655 F   0  0  0  0  0  0  0  0  0  0  0  0
  159.2903  143.7770  181.1750 F   0  0  0  0  0  0  0  0  0  0  0  0
  159.6415  143.6341  183.3451 F   0  0  0  0  0  0  0  0  0  0  0  0
 15 16  1  0  0  0
 16 17  2  0  0  0
 17 18  1  0  0  0
 18 19  1  0  0  0
 19 14  1  0  0  0
 14  2  1  0  0  0
  2  3  1  0  0  0
  3  4  2  0  0  0
  3  5  1  0  0  0
  5  6  1  0  0  0
  5  7  1  0  0  0
  7  8  1  0  0  0
  8  9  2  0  0  0
  9 10  1  0  0  0
 10  1  1  0  0  0
  1 21  1  0  0  0
 21 22  2  0  0  0
 21 23  1  0  0  0
 23 25  1  0  0  0
 25 26  2  0  0  0
 26 27  1  0  0  0
 27 28  1  0  0  0
 28 29  2  0  0  0
 28 30  1  0  0  0
 30 31  2  0  0  0
 31 32  1  0  0  0
 32 33  2  0  0  0
 33 34  1  0  0  0
 34 35  1  0  0  0
 34 36  2  0  0  0
 33 37  1  0  0  0
 37 38  1  0  0  0
 37 39  1  0  0  0
 37 40  1  0  0  0
 10 11  1  0  0  0
 11 12  1  0  0  0
 12 13  2  0  0  0
 19 20  2  0  0  0
 20 16  1  0  0  0
 12  2  1  0  0  0
 11  7  2  0  0  0
 29 25  1  0  0  0
 36 30  1  0  0  0
 23 24  1  0  0  0
M  END
> <minimizedAffinity>
-8.05827

> <CNNscore>
0.4028396606

> <CNNaffinity>
6.6330475807

> <CNN_VS>
2.6720545292

> <CNNaffinity_variance>
0.1126741543

$$$$
[H]c1nc(C(F)(F)F)c(C([H])([H])[H])c([H])c1-c1nc(N([H])C(=O)C([H])([H])n2c([H])nc3c2c(=O)n(C([H])([H])c2nc(C([H])([H])[H])no2)c(=O)n3C([H])([H])[H])c([H])s1


 40 44  0  0  0  0  0  0  0  0999 V2000
  151.0983  136.7509  181.8606 C   0  0  0  0  0  0  0  0  0  0  0  0
  154.4613  138.8550  184.0494 N   0  0  0  0  0  0  0  0  0  0  0  0
  154.6159  140.1272  183.6665 C   0  0  0  0  0  0  0  0  0  0  0  0
  155.5269  140.8069  184.2151 O   0  0  0  0  0  0  0  0  0  0  0  0
  153.8436  140.6960  182.7302 N   0  0  0  0  0  0  0  0  0  0  0  0
  154.0566  142.0689  182.3557 C   0  0  0  0  0  0  0  0  0  0  0  0
  152.8825  139.9459  182.1655 C   0  0  0  0  0  0  0  0  0  0  0  0
  151.9483  140.1978  181.2137 N   0  0  0  0  0  0  0  0  0  0  0  0
  151.2184  139.0990  181.0030 C   0  0  0  0  0  0  0  0  0  0  0  0
  151.6544  138.0886  181.8134 N   0  0  0  0  0  0  0  0  0  0  0  0
  152.6687  138.6112  182.5202 C   0  0  0  0  0  0  0  0  0  0  0  0
  153.4922  138.1005  183.4794 C   0  0  0  0  0  0  0  0  0  0  0  0
  153.3651  136.9256  183.8490 O   0  0  0  0  0  0  0  0  0  0  0  0
  155.3033  138.2693  185.0533 C   0  0  0  0  0  0  0  0  0  0  0  0
  154.9228  138.3319  190.0311 C   0  0  0  0  0  0  0  0  0  0  0  0
  154.5464  138.3800  188.6126 C   0  0  0  0  0  0  0  0  0  0  0  0
  153.3331  138.5412  188.0448 N   0  0  0  0  0  0  0  0  0  0  0  0
  153.4765  138.5186  186.7701 O   0  0  0  0  0  0  0  0  0  0  0  0
  154.7382  138.3489  186.4266 C   0  0  0  0  0  0  0  0  0  0  0  0
  155.4072  138.2621  187.5875 N   0  0  0  0  0  0  0  0  0  0  0  0
  150.4906  136.5514  183.2353 C   0  0  0  0  0  0  0  0  0  0  0  0
  149.6217  137.3342  183.6526 O   0  0  0  0  0  0  0  0  0  0  0  0
  150.9449  135.4751  183.9890 N   0  0  0  0  0  0  0  0  0  0  0  0
  151.6955  134.8625  183.5381 H   0  0  0  0  0  0  0  0  0  0  0  0
  150.4757  135.1214  185.3188 C   0  0  0  0  0  0  0  0  0  0  0  0
  149.2578  134.5558  185.5438 C   0  0  0  0  0  0  0  0  0  0  0  0
  149.2627  134.4128  187.2713 S   0  0  0  0  0  0  0  0  0  0  0  0
  150.8044  135.0815  187.5650 C   0  0  0  0  0  0  0  0  0  0  0  0
  151.2263  135.3710  186.3589 N   0  0  0  0  0  0  0  0  0  0  0  0
  151.4887  135.2903  188.8595 C   0  0  0  0  0  0  0  0  0  0  0  0
  152.8116  135.0127  189.0411 C   0  0  0  0  0  0  0  0  0  0  0  0
  153.4256  135.2207  190.2444 N   0  0  0  0  0  0  0  0  0  0  0  0
  152.6826  135.7186  191.2786 C   0  0  0  0  0  0  0  0  0  0  0  0
  151.3453  136.0146  191.1480 C   0  0  0  0  0  0  0  0  0  0  0  0
  150.5317  136.5512  192.2631 C   0  0  0  0  0  0  0  0  0  0  0  0
  150.7551  135.7878  189.9015 C   0  0  0  0  0  0  0  0  0  0  0  0
  153.3777  135.9250  192.5580 C   0  0  0  0  0  0  0  0  0  0  0  0
  153.2157  137.2506  192.9223 F   0  0  0  0  0  0  0  0  0  0  0  0
  154.7651  135.7814  192.3655 F   0  0  0  0  0  0  0  0  0  0  0  0
  153.0566  135.0335  193.5380 F   0  0  0  0  0  0  0  0  0  0  0  0
 15 16  1  0  0  0
 16 17  2  0  0  0
 17 18  1  0  0  0
 18 19  1  0  0  0
 19 14  1  0  0  0
 14  2  1  0  0  0
  2  3  1  0  0  0
  3  4  2  0  0  0
  3  5  1  0  0  0
  5  6  1  0  0  0
  5  7  1  0  0  0
  7  8  1  0  0  0
  8  9  2  0  0  0
  9 10  1  0  0  0
 10  1  1  0  0  0
  1 21  1  0  0  0
 21 22  2  0  0  0
 21 23  1  0  0  0
 23 25  1  0  0  0
 25 26  2  0  0  0
 26 27  1  0  0  0
 27 28  1  0  0  0
 28 29  2  0  0  0
 28 30  1  0  0  0
 30 31  2  0  0  0
 31 32  1  0  0  0
 32 33  2  0  0  0
 33 34  1  0  0  0
 34 35  1  0  0  0
 34 36  2  0  0  0
 33 37  1  0  0  0
 37 38  1  0  0  0
 37 39  1  0  0  0
 37 40  1  0  0  0
 10 11  1  0  0  0
 11 12  1  0  0  0
 12 13  2  0  0  0
 19 20  2  0  0  0
 20 16  1  0  0  0
 12  2  1  0  0  0
 11  7  2  0  0  0
 29 25  1  0  0  0
 36 30  1  0  0  0
 23 24  1  0  0  0
M  END
> <minimizedAffinity>
-6.60271

> <CNNscore>
0.3611189425

> <CNNaffinity>
6.2389516830

> <CNN_VS>
2.2530035973

> <CNNaffinity_variance>
0.4118226469

$$$$
[H]c1nc(C(F)(F)F)c(C([H])([H])[H])c([H])c1-c1nc(N([H])C(=O)C([H])([H])n2c([H])nc3c2c(=O)n(C([H])([H])c2nc(C([H])([H])[H])no2)c(=O)n3C([H])([H])[H])c([H])s1


 40 44  0  0  0  0  0  0  0  0999 V2000
  153.2737  135.7590  186.2826 C   0  0  0  0  0  0  0  0  0  0  0  0
  154.4774  136.5542  190.5776 N   0  0  0  0  0  0  0  0  0  0  0  0
  155.5130  135.8068  190.9749 C   0  0  0  0  0  0  0  0  0  0  0  0
  155.9307  135.9498  192.1573 O   0  0  0  0  0  0  0  0  0  0  0  0
  156.1137  134.9218  190.1671 N   0  0  0  0  0  0  0  0  0  0  0  0
  157.2231  134.1424  190.6491 C   0  0  0  0  0  0  0  0  0  0  0  0
  155.6457  134.7934  188.9143 C   0  0  0  0  0  0  0  0  0  0  0  0
  156.0089  134.0150  187.8635 N   0  0  0  0  0  0  0  0  0  0  0  0
  155.2122  134.2709  186.8222 C   0  0  0  0  0  0  0  0  0  0  0  0
  154.2978  135.2286  187.1605 N   0  0  0  0  0  0  0  0  0  0  0  0
  154.5675  135.5437  188.4370 C   0  0  0  0  0  0  0  0  0  0  0  0
  154.0069  136.4237  189.3147 C   0  0  0  0  0  0  0  0  0  0  0  0
  153.0483  137.1258  188.9666 O   0  0  0  0  0  0  0  0  0  0  0  0
  153.8505  137.4937  191.4633 C   0  0  0  0  0  0  0  0  0  0  0  0
  151.1796  135.0913  194.9305 C   0  0  0  0  0  0  0  0  0  0  0  0
  151.5095  135.8756  193.7338 C   0  0  0  0  0  0  0  0  0  0  0  0
  150.6970  136.4060  192.7962 N   0  0  0  0  0  0  0  0  0  0  0  0
  151.4219  137.0114  191.9281 O   0  0  0  0  0  0  0  0  0  0  0  0
  152.7045  136.9253  192.2217 C   0  0  0  0  0  0  0  0  0  0  0  0
  152.7552  136.2106  193.3572 N   0  0  0  0  0  0  0  0  0  0  0  0
  153.9564  136.6455  185.2592 C   0  0  0  0  0  0  0  0  0  0  0  0
  154.1903  136.2148  184.1183 O   0  0  0  0  0  0  0  0  0  0  0  0
  154.3012  137.9336  185.6525 N   0  0  0  0  0  0  0  0  0  0  0  0
  154.0563  138.2054  186.6565 H   0  0  0  0  0  0  0  0  0  0  0  0
  154.9507  138.9249  184.8105 C   0  0  0  0  0  0  0  0  0  0  0  0
  154.3585  139.4534  183.7042 C   0  0  0  0  0  0  0  0  0  0  0  0
  155.6037  140.5100  183.1232 S   0  0  0  0  0  0  0  0  0  0  0  0
  156.7702  140.1943  184.3275 C   0  0  0  0  0  0  0  0  0  0  0  0
  156.1634  139.3213  185.0930 N   0  0  0  0  0  0  0  0  0  0  0  0
  158.1302  140.7591  184.4660 C   0  0  0  0  0  0  0  0  0  0  0  0
  159.0840  140.6151  183.5019 C   0  0  0  0  0  0  0  0  0  0  0  0
  160.3324  141.1522  183.6475 N   0  0  0  0  0  0  0  0  0  0  0  0
  160.6147  141.8461  184.7914 C   0  0  0  0  0  0  0  0  0  0  0  0
  159.6888  142.0196  185.7941 C   0  0  0  0  0  0  0  0  0  0  0  0
  159.9863  142.7668  187.0377 C   0  0  0  0  0  0  0  0  0  0  0  0
  158.4240  141.4551  185.6065 C   0  0  0  0  0  0  0  0  0  0  0  0
  161.9695  142.4053  184.9128 C   0  0  0  0  0  0  0  0  0  0  0  0
  161.9181  143.7342  184.5287 F   0  0  0  0  0  0  0  0  0  0  0  0
  162.8133  141.7984  183.9631 F   0  0  0  0  0  0  0  0  0  0  0  0
  162.5733  142.1951  186.1167 F   0  0  0  0  0  0  0  0  0  0  0  0
 15 16  1  0  0  0
 16 17  2  0  0  0
 17 18  1  0  0  0
 18 19  1  0  0  0
 19 14  1  0  0  0
 14  2  1  0  0  0
  2  3  1  0  0  0
  3  4  2  0  0  0
  3  5  1  0  0  0
  5  6  1  0  0  0
  5  7  1  0  0  0
  7  8  1  0  0  0
  8  9  2  0  0  0
  9 10  1  0  0  0
 10  1  1  0  0  0
  1 21  1  0  0  0
 21 22  2  0  0  0
 21 23  1  0  0  0
 23 25  1  0  0  0
 25 26  2  0  0  0
 26 27  1  0  0  0
 27 28  1  0  0  0
 28 29  2  0  0  0
 28 30  1  0  0  0
 30 31  2  0  0  0
 31 32  1  0  0  0
 32 33  2  0  0  0
 33 34  1  0  0  0
 34 35  1  0  0  0
 34 36  2  0  0  0
 33 37  1  0  0  0
 37 38  1  0  0  0
 37 39  1  0  0  0
 37 40  1  0  0  0
 10 11  1  0  0  0
 11 12  1  0  0  0
 12 13  2  0  0  0
 19 20  2  0  0  0
 20 16  1  0  0  0
 12  2  1  0  0  0
 11  7  2  0  0  0
 29 25  1  0  0  0
 36 30  1  0  0  0
 23 24  1  0  0  0
M  END
> <minimizedAffinity>
-9.16161

> <CNNscore>
0.3574769497

> <CNNaffinity>
6.6725378036

> <CNN_VS>
2.3852784634

> <CNNaffinity_variance>
0.2826933265

$$$$
[H]c1nc(C([H])([H])[H])c(C(F)(F)F)c([H])c1-c1nc(N([H])C(=O)[C@@]([H])(n2c([H])nc3c2c(=O)n(C([H])([H])C(=O)C([H])([H])[H])c(=O)n3C([H])([H])[H])C([H])([H])[H])c([H])s1


 38 41  0  0  0  0  0  0  0  0999 V2000
  154.5294  137.9802  186.7089 C   0  0  0  0  0  0  0  0  0  0  0  0
  153.5520  138.7425  186.9656 O   0  0  0  0  0  0  0  0  0  0  0  0
  155.0802  138.0163  185.4128 N   0  0  0  0  0  0  0  0  0  0  0  0
  155.8763  137.4029  185.1899 H   0  0  0  0  0  0  0  0  0  0  0  0
  154.5360  138.9090  184.3931 C   0  0  0  0  0  0  0  0  0  0  0  0
  155.0577  140.1670  184.2067 C   0  0  0  0  0  0  0  0  0  0  0  0
  154.0821  140.7566  182.9366 S   0  0  0  0  0  0  0  0  0  0  0  0
  153.0819  139.3825  182.7231 C   0  0  0  0  0  0  0  0  0  0  0  0
  153.5525  138.5514  183.6366 N   0  0  0  0  0  0  0  0  0  0  0  0
  151.9840  139.1864  181.7664 C   0  0  0  0  0  0  0  0  0  0  0  0
  152.2300  139.1311  180.4182 C   0  0  0  0  0  0  0  0  0  0  0  0
  151.2146  138.9492  179.5212 N   0  0  0  0  0  0  0  0  0  0  0  0
  149.9317  138.8161  179.9084 C   0  0  0  0  0  0  0  0  0  0  0  0
  148.8261  138.6198  178.9321 C   0  0  0  0  0  0  0  0  0  0  0  0
  149.6598  138.8686  181.2631 C   0  0  0  0  0  0  0  0  0  0  0  0
  150.6884  139.0544  182.1987 C   0  0  0  0  0  0  0  0  0  0  0  0
  148.2514  138.7239  181.7296 C   0  0  0  0  0  0  0  0  0  0  0  0
  148.2471  138.8084  183.1243 F   0  0  0  0  0  0  0  0  0  0  0  0
  147.4166  139.6822  181.2330 F   0  0  0  0  0  0  0  0  0  0  0  0
  147.7874  137.4269  181.4680 F   0  0  0  0  0  0  0  0  0  0  0  0
  155.4626  135.7169  187.2887 C   0  0  0  0  0  0  0  0  0  0  0  0
  155.0659  137.0833  187.7442 C   0  0  0  0  0  0  0  0  0  0  0  0
  154.5235  137.2326  189.0559 N   0  0  0  0  0  0  0  0  0  0  0  0
  155.1256  137.8908  190.1041 C   0  0  0  0  0  0  0  0  0  0  0  0
  154.4062  137.8787  191.1997 N   0  0  0  0  0  0  0  0  0  0  0  0
  153.2906  137.2162  190.9452 C   0  0  0  0  0  0  0  0  0  0  0  0
  152.1953  136.8903  191.6710 N   0  0  0  0  0  0  0  0  0  0  0  0
  152.1442  137.3198  193.0578 C   0  0  0  0  0  0  0  0  0  0  0  0
  151.1852  136.1952  191.1410 C   0  0  0  0  0  0  0  0  0  0  0  0
  150.1918  135.9186  191.8572 O   0  0  0  0  0  0  0  0  0  0  0  0
  151.2042  135.7847  189.8631 N   0  0  0  0  0  0  0  0  0  0  0  0
  152.2973  136.1069  189.1302 C   0  0  0  0  0  0  0  0  0  0  0  0
  152.2926  135.7211  187.9615 O   0  0  0  0  0  0  0  0  0  0  0  0
  153.3637  136.8145  189.6112 C   0  0  0  0  0  0  0  0  0  0  0  0
  150.1327  135.0439  189.2875 C   0  0  0  0  0  0  0  0  0  0  0  0
  150.0726  133.6360  189.6624 C   0  0  0  0  0  0  0  0  0  0  0  0
  148.8160  133.0161  190.1387 C   0  0  0  0  0  0  0  0  0  0  0  0
  151.0594  132.9381  189.5912 O   0  0  0  0  0  0  0  0  0  0  0  0
 21 22  1  0  0  0
 22  1  1  0  0  0
  1  2  2  0  0  0
  1  3  1  0  0  0
  3  5  1  0  0  0
  5  6  2  0  0  0
  6  7  1  0  0  0
  7  8  1  0  0  0
  8  9  2  0  0  0
  8 10  1  0  0  0
 10 11  2  0  0  0
 11 12  1  0  0  0
 12 13  2  0  0  0
 13 14  1  0  0  0
 13 15  1  0  0  0
 15 16  2  0  0  0
 15 17  1  0  0  0
 17 18  1  0  0  0
 17 19  1  0  0  0
 17 20  1  0  0  0
 22 23  1  0  0  0
 23 24  1  0  0  0
 24 25  2  0  0  0
 25 26  1  0  0  0
 26 27  1  0  0  0
 27 28  1  0  0  0
 27 29  1  0  0  0
 29 30  2  0  0  0
 29 31  1  0  0  0
 31 35  1  0  0  0
 35 36  1  0  0  0
 36 37  1  0  0  0
 36 38  2  0  0  0
 31 32  1  0  0  0
 32 33  2  0  0  0
 32 34  1  0  0  0
  9  5  1  0  0  0
 16 10  1  0  0  0
 34 23  1  0  0  0
 34 26  2  0  0  0
  3  4  1  0  0  0
M  END
> <minimizedAffinity>
-6.58148

> <CNNscore>
0.5779772401

> <CNNaffinity>
6.2606363297

> <CNN_VS>
3.6185052395

> <CNNaffinity_variance>
0.1248527914

$$$$
[H]c1nc(C([H])([H])[H])c(C(F)(F)F)c([H])c1-c1nc(N([H])C(=O)[C@@]([H])(n2c([H])nc3c2c(=O)n(C([H])([H])C(=O)C([H])([H])[H])c(=O)n3C([H])([H])[H])C([H])([H])[H])c([H])s1


 38 41  0  0  0  0  0  0  0  0999 V2000
  154.0214  136.8743  185.9547 C   0  0  0  0  0  0  0  0  0  0  0  0
  154.6833  135.9192  186.4564 O   0  0  0  0  0  0  0  0  0  0  0  0
  153.5436  137.8797  186.8179 N   0  0  0  0  0  0  0  0  0  0  0  0
  153.0048  138.6635  186.4239 H   0  0  0  0  0  0  0  0  0  0  0  0
  153.8046  137.8196  188.2536 C   0  0  0  0  0  0  0  0  0  0  0  0
  154.9600  138.3442  188.7823 C   0  0  0  0  0  0  0  0  0  0  0  0
  154.7564  138.0125  190.4440 S   0  0  0  0  0  0  0  0  0  0  0  0
  153.2316  137.2360  190.3651 C   0  0  0  0  0  0  0  0  0  0  0  0
  152.9662  137.2753  189.0710 N   0  0  0  0  0  0  0  0  0  0  0  0
  152.4306  136.6732  191.4609 C   0  0  0  0  0  0  0  0  0  0  0  0
  152.5443  137.1641  192.7366 C   0  0  0  0  0  0  0  0  0  0  0  0
  151.8032  136.6463  193.7620 N   0  0  0  0  0  0  0  0  0  0  0  0
  150.9310  135.6370  193.5772 C   0  0  0  0  0  0  0  0  0  0  0  0
  150.1255  135.0722  194.6935 C   0  0  0  0  0  0  0  0  0  0  0  0
  150.7997  135.1260  192.2991 C   0  0  0  0  0  0  0  0  0  0  0  0
  151.5515  135.6444  191.2342 C   0  0  0  0  0  0  0  0  0  0  0  0
  149.8430  134.0090  192.0559 C   0  0  0  0  0  0  0  0  0  0  0  0
  149.7478  133.8141  190.6755 F   0  0  0  0  0  0  0  0  0  0  0  0
  150.2249  132.8345  192.6359 F   0  0  0  0  0  0  0  0  0  0  0  0
  148.5481  134.3922  192.4332 F   0  0  0  0  0  0  0  0  0  0  0  0
  154.2707  135.7637  183.7110 C   0  0  0  0  0  0  0  0  0  0  0  0
  153.7626  136.9211  184.5073 C   0  0  0  0  0  0  0  0  0  0  0  0
  153.7634  138.2147  183.9043 N   0  0  0  0  0  0  0  0  0  0  0  0
  152.7620  138.7342  183.1157 C   0  0  0  0  0  0  0  0  0  0  0  0
  153.0190  139.9475  182.6917 N   0  0  0  0  0  0  0  0  0  0  0  0
  154.1988  140.3035  183.1711 C   0  0  0  0  0  0  0  0  0  0  0  0
  154.9643  141.4158  183.0753 N   0  0  0  0  0  0  0  0  0  0  0  0
  154.4599  142.5240  182.2830 C   0  0  0  0  0  0  0  0  0  0  0  0
  156.1494  141.5052  183.6852 C   0  0  0  0  0  0  0  0  0  0  0  0
  156.8206  142.5592  183.5644 O   0  0  0  0  0  0  0  0  0  0  0  0
  156.6414  140.4979  184.4235 N   0  0  0  0  0  0  0  0  0  0  0  0
  155.8810  139.3810  184.5240 C   0  0  0  0  0  0  0  0  0  0  0  0
  156.3516  138.4711  185.2063 O   0  0  0  0  0  0  0  0  0  0  0  0
  154.6616  139.2252  183.9258 C   0  0  0  0  0  0  0  0  0  0  0  0
  157.9032  140.5826  185.0786 C   0  0  0  0  0  0  0  0  0  0  0  0
  159.0654  140.3359  184.2332 C   0  0  0  0  0  0  0  0  0  0  0  0
  160.1146  141.3623  184.0433 C   0  0  0  0  0  0  0  0  0  0  0  0
  159.1973  139.2759  183.6633 O   0  0  0  0  0  0  0  0  0  0  0  0
 21 22  1  0  0  0
 22  1  1  0  0  0
  1  2  2  0  0  0
  1  3  1  0  0  0
  3  5  1  0  0  0
  5  6  2  0  0  0
  6  7  1  0  0  0
  7  8  1  0  0  0
  8  9  2  0  0  0
  8 10  1  0  0  0
 10 11  2  0  0  0
 11 12  1  0  0  0
 12 13  2  0  0  0
 13 14  1  0  0  0
 13 15  1  0  0  0
 15 16  2  0  0  0
 15 17  1  0  0  0
 17 18  1  0  0  0
 17 19  1  0  0  0
 17 20  1  0  0  0
 22 23  1  0  0  0
 23 24  1  0  0  0
 24 25  2  0  0  0
 25 26  1  0  0  0
 26 27  1  0  0  0
 27 28  1  0  0  0
 27 29  1  0  0  0
 29 30  2  0  0  0
 29 31  1  0  0  0
 31 35  1  0  0  0
 35 36  1  0  0  0
 36 37  1  0  0  0
 36 38  2  0  0  0
 31 32  1  0  0  0
 32 33  2  0  0  0
 32 34  1  0  0  0
  9  5  1  0  0  0
 16 10  1  0  0  0
 34 23  1  0  0  0
 34 26  2  0  0  0
  3  4  1  0  0  0
M  END
> <minimizedAffinity>
-6.94249

> <CNNscore>
0.3186697364

> <CNNaffinity>
6.3177852631

> <CNN_VS>
2.0132870674

> <CNNaffinity_variance>
0.1189988703

$$$$
[H]c1nc(C([H])([H])[H])c(C(F)(F)F)c([H])c1-c1nc(N([H])C(=O)[C@@]([H])(n2c([H])nc3c2c(=O)n(C([H])([H])C(=O)C([H])([H])[H])c(=O)n3C([H])([H])[H])C([H])([H])[H])c([H])s1


 38 41  0  0  0  0  0  0  0  0999 V2000
  152.9891  136.3766  183.7437 C   0  0  0  0  0  0  0  0  0  0  0  0
  153.4203  136.1686  182.5720 O   0  0  0  0  0  0  0  0  0  0  0  0
  152.7247  137.7052  184.1304 N   0  0  0  0  0  0  0  0  0  0  0  0
  152.3723  137.8896  185.0799 H   0  0  0  0  0  0  0  0  0  0  0  0
  152.9441  138.8121  183.2033 C   0  0  0  0  0  0  0  0  0  0  0  0
  152.0395  139.0849  182.2048 C   0  0  0  0  0  0  0  0  0  0  0  0
  152.7648  140.4301  181.4452 S   0  0  0  0  0  0  0  0  0  0  0  0
  154.1581  140.5614  182.4330 C   0  0  0  0  0  0  0  0  0  0  0  0
  153.9878  139.5677  183.2875 N   0  0  0  0  0  0  0  0  0  0  0  0
  155.2567  141.5334  182.3456 C   0  0  0  0  0  0  0  0  0  0  0  0
  155.0255  142.8720  182.5350 C   0  0  0  0  0  0  0  0  0  0  0  0
  156.0415  143.7831  182.4552 N   0  0  0  0  0  0  0  0  0  0  0  0
  157.3106  143.4197  182.1890 C   0  0  0  0  0  0  0  0  0  0  0  0
  158.4163  144.4115  182.1006 C   0  0  0  0  0  0  0  0  0  0  0  0
  157.5674  142.0751  181.9945 C   0  0  0  0  0  0  0  0  0  0  0  0
  156.5379  141.1253  182.0724 C   0  0  0  0  0  0  0  0  0  0  0  0
  158.9606  141.6349  181.6989 C   0  0  0  0  0  0  0  0  0  0  0  0
  158.9489  140.2480  181.5284 F   0  0  0  0  0  0  0  0  0  0  0  0
  159.4811  142.2070  180.5749 F   0  0  0  0  0  0  0  0  0  0  0  0
  159.7769  141.8305  182.8220 F   0  0  0  0  0  0  0  0  0  0  0  0
  151.4637  135.2298  185.3831 C   0  0  0  0  0  0  0  0  0  0  0  0
  152.7756  135.2530  184.6688 C   0  0  0  0  0  0  0  0  0  0  0  0
  153.9304  134.7646  185.3508 N   0  0  0  0  0  0  0  0  0  0  0  0
  154.5599  133.5650  185.1072 C   0  0  0  0  0  0  0  0  0  0  0  0
  155.6009  133.3652  185.8781 N   0  0  0  0  0  0  0  0  0  0  0  0
  155.7237  134.4139  186.6741 C   0  0  0  0  0  0  0  0  0  0  0  0
  156.5909  134.7646  187.6525 N   0  0  0  0  0  0  0  0  0  0  0  0
  157.6637  133.8401  187.9759 C   0  0  0  0  0  0  0  0  0  0  0  0
  156.4753  135.9222  188.3091 C   0  0  0  0  0  0  0  0  0  0  0  0
  157.3059  136.2000  189.2085 O   0  0  0  0  0  0  0  0  0  0  0  0
  155.4946  136.7961  188.0325 N   0  0  0  0  0  0  0  0  0  0  0  0
  154.6224  136.4520  187.0544 C   0  0  0  0  0  0  0  0  0  0  0  0
  153.7324  137.2684  186.8176 O   0  0  0  0  0  0  0  0  0  0  0  0
  154.6843  135.2846  186.3455 C   0  0  0  0  0  0  0  0  0  0  0  0
  155.3622  138.0332  188.7256 C   0  0  0  0  0  0  0  0  0  0  0  0
  154.6857  137.9592  190.0152 C   0  0  0  0  0  0  0  0  0  0  0  0
  155.1031  138.8041  191.1563 C   0  0  0  0  0  0  0  0  0  0  0  0
  153.7595  137.1973  190.1809 O   0  0  0  0  0  0  0  0  0  0  0  0
 21 22  1  0  0  0
 22  1  1  0  0  0
  1  2  2  0  0  0
  1  3  1  0  0  0
  3  5  1  0  0  0
  5  6  2  0  0  0
  6  7  1  0  0  0
  7  8  1  0  0  0
  8  9  2  0  0  0
  8 10  1  0  0  0
 10 11  2  0  0  0
 11 12  1  0  0  0
 12 13  2  0  0  0
 13 14  1  0  0  0
 13 15  1  0  0  0
 15 16  2  0  0  0
 15 17  1  0  0  0
 17 18  1  0  0  0
 17 19  1  0  0  0
 17 20  1  0  0  0
 22 23  1  0  0  0
 23 24  1  0  0  0
 24 25  2  0  0  0
 25 26  1  0  0  0
 26 27  1  0  0  0
 27 28  1  0  0  0
 27 29  1  0  0  0
 29 30  2  0  0  0
 29 31  1  0  0  0
 31 35  1  0  0  0
 35 36  1  0  0  0
 36 37  1  0  0  0
 36 38  2  0  0  0
 31 32  1  0  0  0
 32 33  2  0  0  0
 32 34  1  0  0  0
  9  5  1  0  0  0
 16 10  1  0  0  0
 34 23  1  0  0  0
 34 26  2  0  0  0
  3  4  1  0  0  0
M  END
> <minimizedAffinity>
-7.45843

> <CNNscore>
0.3176328838

> <CNNaffinity>
6.5346374512

> <CNN_VS>
2.0756156445

> <CNNaffinity_variance>
0.1888435185

$$$$
[H]c1nc(C([H])([H])[H])c(C(F)(F)F)c([H])c1-c1nc(N([H])C(=O)[C@@]([H])(n2c([H])nc3c2c(=O)n(C([H])([H])C(=O)C([H])([H])[H])c(=O)n3C([H])([H])[H])C([H])([H])[H])c([H])s1


 38 41  0  0  0  0  0  0  0  0999 V2000
  155.0086  137.8535  188.7976 C   0  0  0  0  0  0  0  0  0  0  0  0
  154.0502  138.6736  188.6926 O   0  0  0  0  0  0  0  0  0  0  0  0
  155.6398  137.4116  187.6183 N   0  0  0  0  0  0  0  0  0  0  0  0
  156.4217  136.7455  187.6883 H   0  0  0  0  0  0  0  0  0  0  0  0
  155.1982  137.8870  186.3099 C   0  0  0  0  0  0  0  0  0  0  0  0
  154.1412  137.2913  185.6637 C   0  0  0  0  0  0  0  0  0  0  0  0
  154.0579  138.2093  184.2274 S   0  0  0  0  0  0  0  0  0  0  0  0
  155.3577  139.2821  184.5335 C   0  0  0  0  0  0  0  0  0  0  0  0
  155.7807  138.8756  185.7178 N   0  0  0  0  0  0  0  0  0  0  0  0
  155.8657  140.3726  183.6897 C   0  0  0  0  0  0  0  0  0  0  0  0
  155.3041  141.6226  183.7458 C   0  0  0  0  0  0  0  0  0  0  0  0
  155.7702  142.6427  182.9642 N   0  0  0  0  0  0  0  0  0  0  0  0
  156.7948  142.4774  182.1061 C   0  0  0  0  0  0  0  0  0  0  0  0
  157.3013  143.5872  181.2541 C   0  0  0  0  0  0  0  0  0  0  0  0
  157.3768  141.2253  182.0326 C   0  0  0  0  0  0  0  0  0  0  0  0
  156.9123  140.1661  182.8267 C   0  0  0  0  0  0  0  0  0  0  0  0
  158.5143  141.0045  181.0947 C   0  0  0  0  0  0  0  0  0  0  0  0
  158.0427  141.1883  179.7923 F   0  0  0  0  0  0  0  0  0  0  0  0
  159.5596  141.8562  181.3033 F   0  0  0  0  0  0  0  0  0  0  0  0
  158.9099  139.6597  181.1243 F   0  0  0  0  0  0  0  0  0  0  0  0
  156.6727  138.0176  190.6773 C   0  0  0  0  0  0  0  0  0  0  0  0
  155.4415  137.3799  190.1214 C   0  0  0  0  0  0  0  0  0  0  0  0
  155.1955  136.0050  190.4148 N   0  0  0  0  0  0  0  0  0  0  0  0
  155.8437  134.9332  189.8441 C   0  0  0  0  0  0  0  0  0  0  0  0
  155.4226  133.7775  190.2969 N   0  0  0  0  0  0  0  0  0  0  0  0
  154.4760  134.0121  191.1898 C   0  0  0  0  0  0  0  0  0  0  0  0
  153.6961  133.2295  191.9720 N   0  0  0  0  0  0  0  0  0  0  0  0
  153.8620  131.7895  191.8761 C   0  0  0  0  0  0  0  0  0  0  0  0
  152.7972  133.7519  192.8108 C   0  0  0  0  0  0  0  0  0  0  0  0
  152.0984  132.9821  193.5145 O   0  0  0  0  0  0  0  0  0  0  0  0
  152.6214  135.0782  192.9209 N   0  0  0  0  0  0  0  0  0  0  0  0
  153.3982  135.8681  192.1410 C   0  0  0  0  0  0  0  0  0  0  0  0
  153.2203  137.0802  192.2593 O   0  0  0  0  0  0  0  0  0  0  0  0
  154.3351  135.3981  191.2632 C   0  0  0  0  0  0  0  0  0  0  0  0
  151.6667  135.6461  193.8121 C   0  0  0  0  0  0  0  0  0  0  0  0
  150.2983  135.7016  193.3114 C   0  0  0  0  0  0  0  0  0  0  0  0
  150.0078  135.7606  191.8615 C   0  0  0  0  0  0  0  0  0  0  0  0
  149.3621  135.7009  194.0791 O   0  0  0  0  0  0  0  0  0  0  0  0
 21 22  1  0  0  0
 22  1  1  0  0  0
  1  2  2  0  0  0
  1  3  1  0  0  0
  3  5  1  0  0  0
  5  6  2  0  0  0
  6  7  1  0  0  0
  7  8  1  0  0  0
  8  9  2  0  0  0
  8 10  1  0  0  0
 10 11  2  0  0  0
 11 12  1  0  0  0
 12 13  2  0  0  0
 13 14  1  0  0  0
 13 15  1  0  0  0
 15 16  2  0  0  0
 15 17  1  0  0  0
 17 18  1  0  0  0
 17 19  1  0  0  0
 17 20  1  0  0  0
 22 23  1  0  0  0
 23 24  1  0  0  0
 24 25  2  0  0  0
 25 26  1  0  0  0
 26 27  1  0  0  0
 27 28  1  0  0  0
 27 29  1  0  0  0
 29 30  2  0  0  0
 29 31  1  0  0  0
 31 35  1  0  0  0
 35 36  1  0  0  0
 36 37  1  0  0  0
 36 38  2  0  0  0
 31 32  1  0  0  0
 32 33  2  0  0  0
 32 34  1  0  0  0
  9  5  1  0  0  0
 16 10  1  0  0  0
 34 23  1  0  0  0
 34 26  2  0  0  0
  3  4  1  0  0  0
M  END
> <minimizedAffinity>
-8.18860

> <CNNscore>
0.3049306571

> <CNNaffinity>
6.2140150070

> <CNN_VS>
1.8948436975

> <CNNaffinity_variance>
0.0536969677

$$$$
[H]c1nc(C([H])([H])[H])c(C(F)(F)F)c([H])c1-c1nc(N([H])C(=O)[C@@]([H])(n2c([H])nc3c2c(=O)n(C([H])([H])C(=O)C([H])([H])[H])c(=O)n3C([H])([H])[H])C([H])([H])[H])c([H])s1


 38 41  0  0  0  0  0  0  0  0999 V2000
  153.4597  137.6239  185.5274 C   0  0  0  0  0  0  0  0  0  0  0  0
  153.5338  138.6327  186.2884 O   0  0  0  0  0  0  0  0  0  0  0  0
  153.8107  137.7841  184.1725 N   0  0  0  0  0  0  0  0  0  0  0  0
  153.7566  136.9722  183.5420 H   0  0  0  0  0  0  0  0  0  0  0  0
  154.2468  139.0806  183.6608 C   0  0  0  0  0  0  0  0  0  0  0  0
  153.4226  139.8360  182.8610 C   0  0  0  0  0  0  0  0  0  0  0  0
  154.3985  141.2033  182.5599 S   0  0  0  0  0  0  0  0  0  0  0  0
  155.7791  140.7356  183.4596 C   0  0  0  0  0  0  0  0  0  0  0  0
  155.4134  139.5594  183.9386 N   0  0  0  0  0  0  0  0  0  0  0  0
  157.0424  141.4625  183.6459 C   0  0  0  0  0  0  0  0  0  0  0  0
  158.0039  140.9896  184.5022 C   0  0  0  0  0  0  0  0  0  0  0  0
  159.1819  141.6595  184.6817 N   0  0  0  0  0  0  0  0  0  0  0  0
  159.4592  142.8076  184.0347 C   0  0  0  0  0  0  0  0  0  0  0  0
  160.7407  143.5377  184.2312 C   0  0  0  0  0  0  0  0  0  0  0  0
  158.5044  143.3033  183.1662 C   0  0  0  0  0  0  0  0  0  0  0  0
  157.2896  142.6300  182.9688 C   0  0  0  0  0  0  0  0  0  0  0  0
  158.7764  144.5714  182.4313 C   0  0  0  0  0  0  0  0  0  0  0  0
  159.4304  144.2486  181.2393 F   0  0  0  0  0  0  0  0  0  0  0  0
  157.6466  145.2749  182.1309 F   0  0  0  0  0  0  0  0  0  0  0  0
  159.7133  145.3439  183.1323 F   0  0  0  0  0  0  0  0  0  0  0  0
  153.5874  135.1151  185.3899 C   0  0  0  0  0  0  0  0  0  0  0  0
  153.0156  136.3245  186.0549 C   0  0  0  0  0  0  0  0  0  0  0  0
  151.6763  136.2628  186.5442 N   0  0  0  0  0  0  0  0  0  0  0  0
  150.5403  136.5196  185.8106 C   0  0  0  0  0  0  0  0  0  0  0  0
  149.4379  136.3881  186.5074 N   0  0  0  0  0  0  0  0  0  0  0  0
  149.7746  136.0379  187.7372 C   0  0  0  0  0  0  0  0  0  0  0  0
  149.0823  135.7651  188.8680 N   0  0  0  0  0  0  0  0  0  0  0  0
  147.6333  135.8544  188.8181 C   0  0  0  0  0  0  0  0  0  0  0  0
  149.6999  135.4232  190.0021 C   0  0  0  0  0  0  0  0  0  0  0  0
  149.0114  135.1803  191.0234 O   0  0  0  0  0  0  0  0  0  0  0  0
  151.0370  135.3328  190.0786 N   0  0  0  0  0  0  0  0  0  0  0  0
  151.7370  135.6046  188.9508 C   0  0  0  0  0  0  0  0  0  0  0  0
  152.9609  135.5146  189.0441 O   0  0  0  0  0  0  0  0  0  0  0  0
  151.1674  135.9598  187.7597 C   0  0  0  0  0  0  0  0  0  0  0  0
  151.7058  134.9686  191.2820 C   0  0  0  0  0  0  0  0  0  0  0  0
  152.2330  136.0793  192.0661 C   0  0  0  0  0  0  0  0  0  0  0  0
  151.3379  137.0858  192.6793 C   0  0  0  0  0  0  0  0  0  0  0  0
  153.4258  136.2024  192.2333 O   0  0  0  0  0  0  0  0  0  0  0  0
 21 22  1  0  0  0
 22  1  1  0  0  0
  1  2  2  0  0  0
  1  3  1  0  0  0
  3  5  1  0  0  0
  5  6  2  0  0  0
  6  7  1  0  0  0
  7  8  1  0  0  0
  8  9  2  0  0  0
  8 10  1  0  0  0
 10 11  2  0  0  0
 11 12  1  0  0  0
 12 13  2  0  0  0
 13 14  1  0  0  0
 13 15  1  0  0  0
 15 16  2  0  0  0
 15 17  1  0  0  0
 17 18  1  0  0  0
 17 19  1  0  0  0
 17 20  1  0  0  0
 22 23  1  0  0  0
 23 24  1  0  0  0
 24 25  2  0  0  0
 25 26  1  0  0  0
 26 27  1  0  0  0
 27 28  1  0  0  0
 27 29  1  0  0  0
 29 30  2  0  0  0
 29 31  1  0  0  0
 31 35  1  0  0  0
 35 36  1  0  0  0
 36 37  1  0  0  0
 36 38  2  0  0  0
 31 32  1  0  0  0
 32 33  2  0  0  0
 32 34  1  0  0  0
  9  5  1  0  0  0
 16 10  1  0  0  0
 34 23  1  0  0  0
 34 26  2  0  0  0
  3  4  1  0  0  0
M  END
> <minimizedAffinity>
-7.31470

> <CNNscore>
0.3031180203

> <CNNaffinity>
6.2984724045

> <CNN_VS>
1.9091805220

> <CNNaffinity_variance>
0.1569743156

$$$$
[H]c1nc(C([H])([H])[H])c(C(F)(F)F)c([H])c1-c1nc(N([H])C(=O)[C@@]([H])(n2c([H])nc3c2c(=O)n(C([H])([H])C(=O)C([H])([H])[H])c(=O)n3C([H])([H])[H])C([H])([H])[H])c([H])s1


 38 41  0  0  0  0  0  0  0  0999 V2000
  153.8675  137.5881  184.8324 C   0  0  0  0  0  0  0  0  0  0  0  0
  154.2858  137.2039  183.7012 O   0  0  0  0  0  0  0  0  0  0  0  0
  154.2250  138.8777  185.2724 N   0  0  0  0  0  0  0  0  0  0  0  0
  153.8910  139.2042  186.1897 H   0  0  0  0  0  0  0  0  0  0  0  0
  155.0575  139.7466  184.4448 C   0  0  0  0  0  0  0  0  0  0  0  0
  154.5343  140.3857  183.3460 C   0  0  0  0  0  0  0  0  0  0  0  0
  155.8946  141.2383  182.7670 S   0  0  0  0  0  0  0  0  0  0  0  0
  157.0323  140.7353  183.9447 C   0  0  0  0  0  0  0  0  0  0  0  0
  156.3051  139.9435  184.7133 N   0  0  0  0  0  0  0  0  0  0  0  0
  158.4516  141.0968  184.0627 C   0  0  0  0  0  0  0  0  0  0  0  0
  159.3466  140.7537  183.0816 C   0  0  0  0  0  0  0  0  0  0  0  0
  160.6688  141.0856  183.1835 N   0  0  0  0  0  0  0  0  0  0  0  0
  161.1589  141.7601  184.2410 C   0  0  0  0  0  0  0  0  0  0  0  0
  162.5984  142.1201  184.3527 C   0  0  0  0  0  0  0  0  0  0  0  0
  160.2749  142.1166  185.2426 C   0  0  0  0  0  0  0  0  0  0  0  0
  158.9146  141.7849  185.1558 C   0  0  0  0  0  0  0  0  0  0  0  0
  160.7807  142.8650  186.4284 C   0  0  0  0  0  0  0  0  0  0  0  0
  159.7004  143.1041  187.2818 F   0  0  0  0  0  0  0  0  0  0  0  0
  161.7428  142.1910  187.1226 F   0  0  0  0  0  0  0  0  0  0  0  0
  161.2002  144.1473  186.0466 F   0  0  0  0  0  0  0  0  0  0  0  0
  151.8840  137.3478  186.3613 C   0  0  0  0  0  0  0  0  0  0  0  0
  153.0324  136.7016  185.6576 C   0  0  0  0  0  0  0  0  0  0  0  0
  153.7016  135.6174  186.3008 N   0  0  0  0  0  0  0  0  0  0  0  0
  153.5176  134.2818  186.0235 C   0  0  0  0  0  0  0  0  0  0  0  0
  154.2622  133.4962  186.7627 N   0  0  0  0  0  0  0  0  0  0  0  0
  154.9804  134.2589  187.5694 C   0  0  0  0  0  0  0  0  0  0  0  0
  155.9046  134.0172  188.5284 N   0  0  0  0  0  0  0  0  0  0  0  0
  156.2495  132.6344  188.8094 C   0  0  0  0  0  0  0  0  0  0  0  0
  156.4895  135.0104  189.2038 C   0  0  0  0  0  0  0  0  0  0  0  0
  157.3405  134.7325  190.0839 O   0  0  0  0  0  0  0  0  0  0  0  0
  156.1910  136.2974  188.9664 N   0  0  0  0  0  0  0  0  0  0  0  0
  155.2666  136.5474  188.0079 C   0  0  0  0  0  0  0  0  0  0  0  0
  155.0095  137.7341  187.8068 O   0  0  0  0  0  0  0  0  0  0  0  0
  154.6316  135.5787  187.2815 C   0  0  0  0  0  0  0  0  0  0  0  0
  156.8087  137.3642  189.6798 C   0  0  0  0  0  0  0  0  0  0  0  0
  156.2126  137.6808  190.9723 C   0  0  0  0  0  0  0  0  0  0  0  0
  155.1492  138.7016  191.1036 C   0  0  0  0  0  0  0  0  0  0  0  0
  156.5792  137.1097  191.9749 O   0  0  0  0  0  0  0  0  0  0  0  0
 21 22  1  0  0  0
 22  1  1  0  0  0
  1  2  2  0  0  0
  1  3  1  0  0  0
  3  5  1  0  0  0
  5  6  2  0  0  0
  6  7  1  0  0  0
  7  8  1  0  0  0
  8  9  2  0  0  0
  8 10  1  0  0  0
 10 11  2  0  0  0
 11 12  1  0  0  0
 12 13  2  0  0  0
 13 14  1  0  0  0
 13 15  1  0  0  0
 15 16  2  0  0  0
 15 17  1  0  0  0
 17 18  1  0  0  0
 17 19  1  0  0  0
 17 20  1  0  0  0
 22 23  1  0  0  0
 23 24  1  0  0  0
 24 25  2  0  0  0
 25 26  1  0  0  0
 26 27  1  0  0  0
 27 28  1  0  0  0
 27 29  1  0  0  0
 29 30  2  0  0  0
 29 31  1  0  0  0
 31 35  1  0  0  0
 35 36  1  0  0  0
 36 37  1  0  0  0
 36 38  2  0  0  0
 31 32  1  0  0  0
 32 33  2  0  0  0
 32 34  1  0  0  0
  9  5  1  0  0  0
 16 10  1  0  0  0
 34 23  1  0  0  0
 34 26  2  0  0  0
  3  4  1  0  0  0
M  END
> <minimizedAffinity>
-8.45425

> <CNNscore>
0.2958700955

> <CNNaffinity>
6.6822156906

> <CNN_VS>
1.9770678282

> <CNNaffinity_variance>
0.3893158138

$$$$
[H]c1nc(C([H])([H])[H])c(C(F)(F)F)c([H])c1-c1nc(N([H])C(=O)[C@@]([H])(n2c([H])nc3c2c(=O)n(C([H])([H])C(=O)C([H])([H])[H])c(=O)n3C([H])([H])[H])C([H])([H])[H])c([H])s1


 38 41  0  0  0  0  0  0  0  0999 V2000
  154.0511  137.8685  185.4596 C   0  0  0  0  0  0  0  0  0  0  0  0
  154.0823  138.7065  186.4077 O   0  0  0  0  0  0  0  0  0  0  0  0
  154.6784  138.2117  184.2458 N   0  0  0  0  0  0  0  0  0  0  0  0
  154.6622  137.5395  183.4663 H   0  0  0  0  0  0  0  0  0  0  0  0
  155.3454  139.5011  184.0867 C   0  0  0  0  0  0  0  0  0  0  0  0
  154.6293  140.6304  183.7682 C   0  0  0  0  0  0  0  0  0  0  0  0
  155.8611  141.8100  183.7073 S   0  0  0  0  0  0  0  0  0  0  0  0
  157.1961  140.8059  184.0864 C   0  0  0  0  0  0  0  0  0  0  0  0
  156.6218  139.6253  184.2377 N   0  0  0  0  0  0  0  0  0  0  0  0
  158.6138  141.1719  184.2099 C   0  0  0  0  0  0  0  0  0  0  0  0
  159.5154  140.8236  183.2368 C   0  0  0  0  0  0  0  0  0  0  0  0
  160.8361  141.1597  183.3438 N   0  0  0  0  0  0  0  0  0  0  0  0
  161.3183  141.8436  184.3989 C   0  0  0  0  0  0  0  0  0  0  0  0
  162.7561  142.2082  184.5162 C   0  0  0  0  0  0  0  0  0  0  0  0
  160.4275  142.2056  185.3925 C   0  0  0  0  0  0  0  0  0  0  0  0
  159.0686  141.8697  185.3004 C   0  0  0  0  0  0  0  0  0  0  0  0
  160.9245  142.9644  186.5754 C   0  0  0  0  0  0  0  0  0  0  0  0
  159.8319  143.2426  187.4009 F   0  0  0  0  0  0  0  0  0  0  0  0
  161.8564  142.2825  187.3022 F   0  0  0  0  0  0  0  0  0  0  0  0
  161.3802  144.2300  186.1799 F   0  0  0  0  0  0  0  0  0  0  0  0
  152.8254  135.9489  184.3906 C   0  0  0  0  0  0  0  0  0  0  0  0
  153.3729  136.5745  185.6319 C   0  0  0  0  0  0  0  0  0  0  0  0
  152.6653  136.3875  186.8572 N   0  0  0  0  0  0  0  0  0  0  0  0
  151.2981  136.4318  187.0103 C   0  0  0  0  0  0  0  0  0  0  0  0
  150.9124  136.2243  188.2457 N   0  0  0  0  0  0  0  0  0  0  0  0
  151.9939  136.0307  188.9813 C   0  0  0  0  0  0  0  0  0  0  0  0
  152.2151  135.7743  190.2920 N   0  0  0  0  0  0  0  0  0  0  0  0
  151.0627  135.6743  191.1708 C   0  0  0  0  0  0  0  0  0  0  0  0
  153.4500  135.6159  190.7760 C   0  0  0  0  0  0  0  0  0  0  0  0
  153.6010  135.3797  191.9998 O   0  0  0  0  0  0  0  0  0  0  0  0
  154.5337  135.7028  189.9886 N   0  0  0  0  0  0  0  0  0  0  0  0
  154.3204  135.9595  188.6755 C   0  0  0  0  0  0  0  0  0  0  0  0
  155.3280  136.0340  187.9727 O   0  0  0  0  0  0  0  0  0  0  0  0
  153.0844  136.1320  188.1171 C   0  0  0  0  0  0  0  0  0  0  0  0
  155.8547  135.5351  190.4937 C   0  0  0  0  0  0  0  0  0  0  0  0
  156.3691  136.6479  191.2833 C   0  0  0  0  0  0  0  0  0  0  0  0
  156.4139  138.0243  190.7414 C   0  0  0  0  0  0  0  0  0  0  0  0
  156.7745  136.4670  192.4097 O   0  0  0  0  0  0  0  0  0  0  0  0
 21 22  1  0  0  0
 22  1  1  0  0  0
  1  2  2  0  0  0
  1  3  1  0  0  0
  3  5  1  0  0  0
  5  6  2  0  0  0
  6  7  1  0  0  0
  7  8  1  0  0  0
  8  9  2  0  0  0
  8 10  1  0  0  0
 10 11  2  0  0  0
 11 12  1  0  0  0
 12 13  2  0  0  0
 13 14  1  0  0  0
 13 15  1  0  0  0
 15 16  2  0  0  0
 15 17  1  0  0  0
 17 18  1  0  0  0
 17 19  1  0  0  0
 17 20  1  0  0  0
 22 23  1  0  0  0
 23 24  1  0  0  0
 24 25  2  0  0  0
 25 26  1  0  0  0
 26 27  1  0  0  0
 27 28  1  0  0  0
 27 29  1  0  0  0
 29 30  2  0  0  0
 29 31  1  0  0  0
 31 35  1  0  0  0
 35 36  1  0  0  0
 36 37  1  0  0  0
 36 38  2  0  0  0
 31 32  1  0  0  0
 32 33  2  0  0  0
 32 34  1  0  0  0
  9  5  1  0  0  0
 16 10  1  0  0  0
 34 23  1  0  0  0
 34 26  2  0  0  0
  3  4  1  0  0  0
M  END
> <minimizedAffinity>
-8.63896

> <CNNscore>
0.2940450311

> <CNNaffinity>
6.4815659523

> <CNN_VS>
1.9058722258

> <CNNaffinity_variance>
0.2808316648

$$$$
[H]c1nc(C([H])([H])[H])c(C(F)(F)F)c([H])c1-c1nc(N([H])C(=O)[C@@]([H])(n2c([H])nc3c2c(=O)n(C([H])([H])C(=O)C([H])([H])[H])c(=O)n3C([H])([H])[H])C([H])([H])[H])c([H])s1


 38 41  0  0  0  0  0  0  0  0999 V2000
  154.5532  138.0778  188.8806 C   0  0  0  0  0  0  0  0  0  0  0  0
  153.5629  138.7752  188.5131 O   0  0  0  0  0  0  0  0  0  0  0  0
  155.4855  137.6774  187.9034 N   0  0  0  0  0  0  0  0  0  0  0  0
  156.2968  137.1110  188.1877 H   0  0  0  0  0  0  0  0  0  0  0  0
  155.3120  138.0565  186.5037 C   0  0  0  0  0  0  0  0  0  0  0  0
  154.2899  137.5277  185.7519 C   0  0  0  0  0  0  0  0  0  0  0  0
  154.5475  138.2853  184.2445 S   0  0  0  0  0  0  0  0  0  0  0  0
  155.9236  139.2176  184.6583 C   0  0  0  0  0  0  0  0  0  0  0  0
  156.1067  138.8950  185.9268 N   0  0  0  0  0  0  0  0  0  0  0  0
  156.6966  140.1379  183.8130 C   0  0  0  0  0  0  0  0  0  0  0  0
  156.2264  140.5233  182.5835 C   0  0  0  0  0  0  0  0  0  0  0  0
  156.9391  141.3788  181.7905 N   0  0  0  0  0  0  0  0  0  0  0  0
  158.1285  141.8841  182.1693 C   0  0  0  0  0  0  0  0  0  0  0  0
  158.9051  142.8141  181.3056 C   0  0  0  0  0  0  0  0  0  0  0  0
  158.6224  141.5095  183.4052 C   0  0  0  0  0  0  0  0  0  0  0  0
  157.9055  140.6327  184.2330 C   0  0  0  0  0  0  0  0  0  0  0  0
  159.9357  142.0495  183.8591 C   0  0  0  0  0  0  0  0  0  0  0  0
  160.9373  141.4576  183.0851 F   0  0  0  0  0  0  0  0  0  0  0  0
  160.0343  143.4048  183.7359 F   0  0  0  0  0  0  0  0  0  0  0  0
  160.2127  141.6123  185.1621 F   0  0  0  0  0  0  0  0  0  0  0  0
  155.7346  138.4694  191.0670 C   0  0  0  0  0  0  0  0  0  0  0  0
  154.7144  137.6999  190.2931 C   0  0  0  0  0  0  0  0  0  0  0  0
  154.5196  136.3213  190.6071 N   0  0  0  0  0  0  0  0  0  0  0  0
  153.3670  135.7688  191.1178 C   0  0  0  0  0  0  0  0  0  0  0  0
  153.4592  134.4759  191.3121 N   0  0  0  0  0  0  0  0  0  0  0  0
  154.6709  134.0957  190.9440 C   0  0  0  0  0  0  0  0  0  0  0  0
  155.3245  132.9105  190.9151 N   0  0  0  0  0  0  0  0  0  0  0  0
  154.6157  131.7301  191.3782 C   0  0  0  0  0  0  0  0  0  0  0  0
  156.5828  132.8150  190.4770 C   0  0  0  0  0  0  0  0  0  0  0  0
  157.1440  131.6920  190.4708 O   0  0  0  0  0  0  0  0  0  0  0  0
  157.2629  133.8880  190.0433 N   0  0  0  0  0  0  0  0  0  0  0  0
  156.6156  135.0779  190.0693 C   0  0  0  0  0  0  0  0  0  0  0  0
  157.2581  136.0473  189.6665 O   0  0  0  0  0  0  0  0  0  0  0  0
  155.3304  135.2441  190.5051 C   0  0  0  0  0  0  0  0  0  0  0  0
  158.6044  133.7977  189.5735 C   0  0  0  0  0  0  0  0  0  0  0  0
  158.7552  133.6885  188.1272 C   0  0  0  0  0  0  0  0  0  0  0  0
  157.6202  133.3044  187.2587 C   0  0  0  0  0  0  0  0  0  0  0  0
  159.8228  133.9119  187.6018 O   0  0  0  0  0  0  0  0  0  0  0  0
 21 22  1  0  0  0
 22  1  1  0  0  0
  1  2  2  0  0  0
  1  3  1  0  0  0
  3  5  1  0  0  0
  5  6  2  0  0  0
  6  7  1  0  0  0
  7  8  1  0  0  0
  8  9  2  0  0  0
  8 10  1  0  0  0
 10 11  2  0  0  0
 11 12  1  0  0  0
 12 13  2  0  0  0
 13 14  1  0  0  0
 13 15  1  0  0  0
 15 16  2  0  0  0
 15 17  1  0  0  0
 17 18  1  0  0  0
 17 19  1  0  0  0
 17 20  1  0  0  0
 22 23  1  0  0  0
 23 24  1  0  0  0
 24 25  2  0  0  0
 25 26  1  0  0  0
 26 27  1  0  0  0
 27 28  1  0  0  0
 27 29  1  0  0  0
 29 30  2  0  0  0
 29 31  1  0  0  0
 31 35  1  0  0  0
 35 36  1  0  0  0
 36 37  1  0  0  0
 36 38  2  0  0  0
 31 32  1  0  0  0
 32 33  2  0  0  0
 32 34  1  0  0  0
  9  5  1  0  0  0
 16 10  1  0  0  0
 34 23  1  0  0  0
 34 26  2  0  0  0
  3  4  1  0  0  0
M  END
> <minimizedAffinity>
-7.72240

> <CNNscore>
0.2797791958

> <CNNaffinity>
6.5531172752

> <CNN_VS>
1.8334258795

> <CNNaffinity_variance>
0.1644351780

$$$$
[H]c1nc(C([H])([H])[H])c(C(F)(F)F)c([H])c1-c1nc(N([H])C(=O)[C@@]([H])(n2c([H])nc3c2c(=O)n(C([H])([H])C(=O)C([H])([H])[H])c(=O)n3C([H])([H])[H])C([H])([H])[H])c([H])s1


 38 41  0  0  0  0  0  0  0  0999 V2000
  154.7505  138.0434  187.7124 C   0  0  0  0  0  0  0  0  0  0  0  0
  153.6385  138.6478  187.6924 O   0  0  0  0  0  0  0  0  0  0  0  0
  155.4681  137.9282  186.5057 N   0  0  0  0  0  0  0  0  0  0  0  0
  156.3747  137.4404  186.5070 H   0  0  0  0  0  0  0  0  0  0  0  0
  154.9412  138.4904  185.2651 C   0  0  0  0  0  0  0  0  0  0  0  0
  155.5006  139.6157  184.7080 C   0  0  0  0  0  0  0  0  0  0  0  0
  154.5301  139.8283  183.3203 S   0  0  0  0  0  0  0  0  0  0  0  0
  153.4844  138.4881  183.5316 C   0  0  0  0  0  0  0  0  0  0  0  0
  153.9385  137.9551  184.6525 N   0  0  0  0  0  0  0  0  0  0  0  0
  152.3702  138.0503  182.6796 C   0  0  0  0  0  0  0  0  0  0  0  0
  151.9521  136.7440  182.6880 C   0  0  0  0  0  0  0  0  0  0  0  0
  150.9166  136.3281  181.8983 N   0  0  0  0  0  0  0  0  0  0  0  0
  150.2581  137.1692  181.0783 C   0  0  0  0  0  0  0  0  0  0  0  0
  149.1320  136.7163  180.2175 C   0  0  0  0  0  0  0  0  0  0  0  0
  150.6623  138.4912  181.0532 C   0  0  0  0  0  0  0  0  0  0  0  0
  151.7227  138.9368  181.8563 C   0  0  0  0  0  0  0  0  0  0  0  0
  149.9563  139.4520  180.1584 C   0  0  0  0  0  0  0  0  0  0  0  0
  150.6635  140.6570  180.1740 F   0  0  0  0  0  0  0  0  0  0  0  0
  149.8622  139.0193  178.8679 F   0  0  0  0  0  0  0  0  0  0  0  0
  148.7068  139.7864  180.6997 F   0  0  0  0  0  0  0  0  0  0  0  0
  156.5891  138.0027  189.4291 C   0  0  0  0  0  0  0  0  0  0  0  0
  155.2682  137.4787  188.9682 C   0  0  0  0  0  0  0  0  0  0  0  0
  154.9504  136.1116  189.2275 N   0  0  0  0  0  0  0  0  0  0  0  0
  155.7048  135.0252  188.8466 C   0  0  0  0  0  0  0  0  0  0  0  0
  155.1815  133.8814  189.2154 N   0  0  0  0  0  0  0  0  0  0  0  0
  154.0558  134.1392  189.8594 C   0  0  0  0  0  0  0  0  0  0  0  0
  153.1101  133.3771  190.4571 N   0  0  0  0  0  0  0  0  0  0  0  0
  153.2826  131.9349  190.4346 C   0  0  0  0  0  0  0  0  0  0  0  0
  152.0455  133.9212  191.0530 C   0  0  0  0  0  0  0  0  0  0  0  0
  151.1970  133.1699  191.5928 O   0  0  0  0  0  0  0  0  0  0  0  0
  151.8592  135.2501  191.0896 N   0  0  0  0  0  0  0  0  0  0  0  0
  152.8015  136.0197  190.4933 C   0  0  0  0  0  0  0  0  0  0  0  0
  152.6103  137.2346  190.5399 O   0  0  0  0  0  0  0  0  0  0  0  0
  153.9124  135.5269  189.8670 C   0  0  0  0  0  0  0  0  0  0  0  0
  150.7285  135.8411  191.7226 C   0  0  0  0  0  0  0  0  0  0  0  0
  150.8242  135.9819  193.1708 C   0  0  0  0  0  0  0  0  0  0  0  0
  149.8519  135.3301  194.0764 C   0  0  0  0  0  0  0  0  0  0  0  0
  151.7096  136.6416  193.6673 O   0  0  0  0  0  0  0  0  0  0  0  0
 21 22  1  0  0  0
 22  1  1  0  0  0
  1  2  2  0  0  0
  1  3  1  0  0  0
  3  5  1  0  0  0
  5  6  2  0  0  0
  6  7  1  0  0  0
  7  8  1  0  0  0
  8  9  2  0  0  0
  8 10  1  0  0  0
 10 11  2  0  0  0
 11 12  1  0  0  0
 12 13  2  0  0  0
 13 14  1  0  0  0
 13 15  1  0  0  0
 15 16  2  0  0  0
 15 17  1  0  0  0
 17 18  1  0  0  0
 17 19  1  0  0  0
 17 20  1  0  0  0
 22 23  1  0  0  0
 23 24  1  0  0  0
 24 25  2  0  0  0
 25 26  1  0  0  0
 26 27  1  0  0  0
 27 28  1  0  0  0
 27 29  1  0  0  0
 29 30  2  0  0  0
 29 31  1  0  0  0
 31 35  1  0  0  0
 35 36  1  0  0  0
 36 37  1  0  0  0
 36 38  2  0  0  0
 31 32  1  0  0  0
 32 33  2  0  0  0
 32 34  1  0  0  0
  9  5  1  0  0  0
 16 10  1  0  0  0
 34 23  1  0  0  0
 34 26  2  0  0  0
  3  4  1  0  0  0
M  END
> <minimizedAffinity>
-6.68172

> <CNNscore>
0.2786038518

> <CNNaffinity>
5.8691115379

> <CNN_VS>
1.6351571083

> <CNNaffinity_variance>
0.1208562031

$$$$
[H]c1sc(N([H])C(=O)C([H])([H])c2nsc3c2c(=O)n(C([H])([H])[H])c(=O)n3C([H])([H])[H])nc1-c1c([H])c([H])c([H])c(C(F)(F)F)c1F


 34 37  0  0  0  0  0  0  0  0999 V2000
  153.2571  137.0640  186.4912 C   0  0  0  0  0  0  0  0  0  0  0  0
  152.4967  138.0219  186.7736 O   0  0  0  0  0  0  0  0  0  0  0  0
  153.9304  137.0211  185.2660 N   0  0  0  0  0  0  0  0  0  0  0  0
  154.5535  136.2463  185.0221 H   0  0  0  0  0  0  0  0  0  0  0  0
  153.7506  138.0773  184.3290 C   0  0  0  0  0  0  0  0  0  0  0  0
  152.8442  138.1707  183.3738 N   0  0  0  0  0  0  0  0  0  0  0  0
  152.8174  139.2090  182.5995 C   0  0  0  0  0  0  0  0  0  0  0  0
  153.7571  140.1856  182.8163 C   0  0  0  0  0  0  0  0  0  0  0  0
  154.6276  139.5375  184.1359 S   0  0  0  0  0  0  0  0  0  0  0  0
  151.7993  139.3390  181.5080 C   0  0  0  0  0  0  0  0  0  0  0  0
  152.1653  139.7762  180.2717 C   0  0  0  0  0  0  0  0  0  0  0  0
  151.2315  139.9034  179.2433 C   0  0  0  0  0  0  0  0  0  0  0  0
  149.9136  139.5811  179.4812 C   0  0  0  0  0  0  0  0  0  0  0  0
  149.5651  139.1427  180.7332 C   0  0  0  0  0  0  0  0  0  0  0  0
  150.4784  139.0169  181.7433 C   0  0  0  0  0  0  0  0  0  0  0  0
  150.1111  138.5851  182.9612 F   0  0  0  0  0  0  0  0  0  0  0  0
  148.1375  138.7812  181.0339 C   0  0  0  0  0  0  0  0  0  0  0  0
  148.0737  137.4420  181.3702 F   0  0  0  0  0  0  0  0  0  0  0  0
  147.6005  139.5753  182.0109 F   0  0  0  0  0  0  0  0  0  0  0  0
  147.4237  138.9876  179.8625 F   0  0  0  0  0  0  0  0  0  0  0  0
  153.4519  135.9616  187.4570 C   0  0  0  0  0  0  0  0  0  0  0  0
  152.1700  137.3664  193.2943 C   0  0  0  0  0  0  0  0  0  0  0  0
  151.7748  136.7631  192.0411 N   0  0  0  0  0  0  0  0  0  0  0  0
  152.6992  136.8426  191.0278 C   0  0  0  0  0  0  0  0  0  0  0  0
  154.2605  137.5191  190.9032 S   0  0  0  0  0  0  0  0  0  0  0  0
  154.5884  137.1311  189.3080 N   0  0  0  0  0  0  0  0  0  0  0  0
  153.4991  136.4870  188.8857 C   0  0  0  0  0  0  0  0  0  0  0  0
  152.4873  136.3248  189.7826 C   0  0  0  0  0  0  0  0  0  0  0  0
  151.2363  135.6963  189.6117 C   0  0  0  0  0  0  0  0  0  0  0  0
  150.9035  135.1725  188.5081 O   0  0  0  0  0  0  0  0  0  0  0  0
  150.3743  135.6449  190.6238 N   0  0  0  0  0  0  0  0  0  0  0  0
  149.0944  134.9929  190.4217 C   0  0  0  0  0  0  0  0  0  0  0  0
  150.6013  136.1609  191.8443 C   0  0  0  0  0  0  0  0  0  0  0  0
  149.7831  136.1061  192.7879 O   0  0  0  0  0  0  0  0  0  0  0  0
 22 23  1  0  0  0
 23 24  1  0  0  0
 24 25  1  0  0  0
 25 26  1  0  0  0
 26 27  2  0  0  0
 27 21  1  0  0  0
 21  1  1  0  0  0
  1  2  2  0  0  0
  1  3  1  0  0  0
  3  5  1  0  0  0
  5  6  2  0  0  0
  6  7  1  0  0  0
  7  8  2  0  0  0
  8  9  1  0  0  0
  7 10  1  0  0  0
 10 11  2  0  0  0
 11 12  1  0  0  0
 12 13  2  0  0  0
 13 14  1  0  0  0
 14 15  2  0  0  0
 15 16  1  0  0  0
 14 17  1  0  0  0
 17 18  1  0  0  0
 17 19  1  0  0  0
 17 20  1  0  0  0
 27 28  1  0  0  0
 28 29  1  0  0  0
 29 30  2  0  0  0
 29 31  1  0  0  0
 31 32  1  0  0  0
 31 33  1  0  0  0
 33 34  2  0  0  0
 33 23  1  0  0  0
 28 24  2  0  0  0
  9  5  1  0  0  0
 15 10  1  0  0  0
  3  4  1  0  0  0
M  END
> <minimizedAffinity>
-7.55348

> <CNNscore>
0.4944895208

> <CNNaffinity>
5.9029259682

> <CNN_VS>
2.9189350605

> <CNNaffinity_variance>
0.0778065175

$$$$
[H]c1sc(N([H])C(=O)C([H])([H])c2nsc3c2c(=O)n(C([H])([H])[H])c(=O)n3C([H])([H])[H])nc1-c1c([H])c([H])c([H])c(C(F)(F)F)c1F


 34 37  0  0  0  0  0  0  0  0999 V2000
  153.7514  137.3296  185.4128 C   0  0  0  0  0  0  0  0  0  0  0  0
  154.2583  136.7652  184.4129 O   0  0  0  0  0  0  0  0  0  0  0  0
  153.7718  138.7227  185.5359 N   0  0  0  0  0  0  0  0  0  0  0  0
  153.3624  139.1967  186.3458 H   0  0  0  0  0  0  0  0  0  0  0  0
  154.3746  139.5088  184.5140 C   0  0  0  0  0  0  0  0  0  0  0  0
  155.5821  140.0424  184.5048 N   0  0  0  0  0  0  0  0  0  0  0  0
  155.9804  140.7371  183.4865 C   0  0  0  0  0  0  0  0  0  0  0  0
  155.1045  140.8880  182.4406 C   0  0  0  0  0  0  0  0  0  0  0  0
  153.7494  140.0095  182.9984 S   0  0  0  0  0  0  0  0  0  0  0  0
  157.3456  141.3533  183.4516 C   0  0  0  0  0  0  0  0  0  0  0  0
  158.4202  140.6782  183.9447 C   0  0  0  0  0  0  0  0  0  0  0  0
  159.6985  141.2358  183.9205 C   0  0  0  0  0  0  0  0  0  0  0  0
  159.8792  142.4933  183.3881 C   0  0  0  0  0  0  0  0  0  0  0  0
  158.7842  143.1570  182.8966 C   0  0  0  0  0  0  0  0  0  0  0  0
  157.5297  142.6128  182.9189 C   0  0  0  0  0  0  0  0  0  0  0  0
  156.4734  143.2840  182.4308 F   0  0  0  0  0  0  0  0  0  0  0  0
  158.9387  144.5312  182.3075 C   0  0  0  0  0  0  0  0  0  0  0  0
  159.3261  144.4132  180.9859 F   0  0  0  0  0  0  0  0  0  0  0  0
  157.7986  145.2775  182.4369 F   0  0  0  0  0  0  0  0  0  0  0  0
  159.9515  145.1544  183.0217 F   0  0  0  0  0  0  0  0  0  0  0  0
  153.1220  136.5232  186.4804 C   0  0  0  0  0  0  0  0  0  0  0  0
  157.2216  134.5957  190.6238 C   0  0  0  0  0  0  0  0  0  0  0  0
  156.2965  135.6062  190.1614 N   0  0  0  0  0  0  0  0  0  0  0  0
  155.6382  135.3156  188.9910 C   0  0  0  0  0  0  0  0  0  0  0  0
  155.6671  133.9905  187.9168 S   0  0  0  0  0  0  0  0  0  0  0  0
  154.5503  134.5369  186.7956 N   0  0  0  0  0  0  0  0  0  0  0  0
  154.1657  135.7290  187.2545 C   0  0  0  0  0  0  0  0  0  0  0  0
  154.7315  136.1588  188.4162 C   0  0  0  0  0  0  0  0  0  0  0  0
  154.5189  137.3626  189.1198 C   0  0  0  0  0  0  0  0  0  0  0  0
  153.7058  138.2389  188.7024 O   0  0  0  0  0  0  0  0  0  0  0  0
  155.1808  137.5982  190.2495 N   0  0  0  0  0  0  0  0  0  0  0  0
  154.9439  138.8440  190.9536 C   0  0  0  0  0  0  0  0  0  0  0  0
  156.0707  136.7546  190.8007 C   0  0  0  0  0  0  0  0  0  0  0  0
  156.6867  136.9872  191.8634 O   0  0  0  0  0  0  0  0  0  0  0  0
 22 23  1  0  0  0
 23 24  1  0  0  0
 24 25  1  0  0  0
 25 26  1  0  0  0
 26 27  2  0  0  0
 27 21  1  0  0  0
 21  1  1  0  0  0
  1  2  2  0  0  0
  1  3  1  0  0  0
  3  5  1  0  0  0
  5  6  2  0  0  0
  6  7  1  0  0  0
  7  8  2  0  0  0
  8  9  1  0  0  0
  7 10  1  0  0  0
 10 11  2  0  0  0
 11 12  1  0  0  0
 12 13  2  0  0  0
 13 14  1  0  0  0
 14 15  2  0  0  0
 15 16  1  0  0  0
 14 17  1  0  0  0
 17 18  1  0  0  0
 17 19  1  0  0  0
 17 20  1  0  0  0
 27 28  1  0  0  0
 28 29  1  0  0  0
 29 30  2  0  0  0
 29 31  1  0  0  0
 31 32  1  0  0  0
 31 33  1  0  0  0
 33 34  2  0  0  0
 33 23  1  0  0  0
 28 24  2  0  0  0
  9  5  1  0  0  0
 15 10  1  0  0  0
  3  4  1  0  0  0
M  END
> <minimizedAffinity>
-8.17610

> <CNNscore>
0.4621592164

> <CNNaffinity>
6.5731186867

> <CNN_VS>
3.0378274918

> <CNNaffinity_variance>
0.1081092954

$$$$
[H]c1sc(N([H])C(=O)C([H])([H])c2nsc3c2c(=O)n(C([H])([H])[H])c(=O)n3C([H])([H])[H])nc1-c1c([H])c([H])c([H])c(C(F)(F)F)c1F


 34 37  0  0  0  0  0  0  0  0999 V2000
  155.3452  138.0382  188.9554 C   0  0  0  0  0  0  0  0  0  0  0  0
  154.3428  138.7898  188.8813 O   0  0  0  0  0  0  0  0  0  0  0  0
  155.9502  137.5350  187.7991 N   0  0  0  0  0  0  0  0  0  0  0  0
  156.7682  136.9210  187.8443 H   0  0  0  0  0  0  0  0  0  0  0  0
  155.4221  137.8807  186.5235 C   0  0  0  0  0  0  0  0  0  0  0  0
  155.7707  138.8886  185.7455 N   0  0  0  0  0  0  0  0  0  0  0  0
  155.1849  139.0639  184.6034 C   0  0  0  0  0  0  0  0  0  0  0  0
  154.2054  138.1699  184.2498 C   0  0  0  0  0  0  0  0  0  0  0  0
  154.1920  137.1234  185.6004 S   0  0  0  0  0  0  0  0  0  0  0  0
  155.5618  140.2000  183.7023 C   0  0  0  0  0  0  0  0  0  0  0  0
  154.6875  141.2181  183.4729 C   0  0  0  0  0  0  0  0  0  0  0  0
  155.0210  142.2840  182.6374 C   0  0  0  0  0  0  0  0  0  0  0  0
  156.2579  142.3089  182.0317 C   0  0  0  0  0  0  0  0  0  0  0  0
  157.1243  141.2738  182.2754 C   0  0  0  0  0  0  0  0  0  0  0  0
  156.8002  140.2276  183.0942 C   0  0  0  0  0  0  0  0  0  0  0  0
  157.6672  139.2259  183.3166 F   0  0  0  0  0  0  0  0  0  0  0  0
  158.4835  141.2630  181.6337 C   0  0  0  0  0  0  0  0  0  0  0  0
  159.4468  141.3794  182.6181 F   0  0  0  0  0  0  0  0  0  0  0  0
  158.6792  140.1496  180.8620 F   0  0  0  0  0  0  0  0  0  0  0  0
  158.5400  142.3790  180.8117 F   0  0  0  0  0  0  0  0  0  0  0  0
  155.9028  137.6729  190.2752 C   0  0  0  0  0  0  0  0  0  0  0  0
  153.7595  132.2730  192.2595 C   0  0  0  0  0  0  0  0  0  0  0  0
  153.6574  133.7145  192.2139 N   0  0  0  0  0  0  0  0  0  0  0  0
  154.6237  134.3537  191.4754 C   0  0  0  0  0  0  0  0  0  0  0  0
  155.9679  133.8176  190.5718 S   0  0  0  0  0  0  0  0  0  0  0  0
  156.5392  135.3006  190.0457 N   0  0  0  0  0  0  0  0  0  0  0  0
  155.6952  136.1926  190.5668 C   0  0  0  0  0  0  0  0  0  0  0  0
  154.6741  135.7099  191.3277 C   0  0  0  0  0  0  0  0  0  0  0  0
  153.6507  136.4132  191.9966 C   0  0  0  0  0  0  0  0  0  0  0  0
  153.5741  137.6761  191.9481 O   0  0  0  0  0  0  0  0  0  0  0  0
  152.7372  135.7487  192.6996 N   0  0  0  0  0  0  0  0  0  0  0  0
  151.6954  136.4959  193.3780 C   0  0  0  0  0  0  0  0  0  0  0  0
  152.7039  134.4115  192.8333 C   0  0  0  0  0  0  0  0  0  0  0  0
  151.8399  133.7982  193.4968 O   0  0  0  0  0  0  0  0  0  0  0  0
 22 23  1  0  0  0
 23 24  1  0  0  0
 24 25  1  0  0  0
 25 26  1  0  0  0
 26 27  2  0  0  0
 27 21  1  0  0  0
 21  1  1  0  0  0
  1  2  2  0  0  0
  1  3  1  0  0  0
  3  5  1  0  0  0
  5  6  2  0  0  0
  6  7  1  0  0  0
  7  8  2  0  0  0
  8  9  1  0  0  0
  7 10  1  0  0  0
 10 11  2  0  0  0
 11 12  1  0  0  0
 12 13  2  0  0  0
 13 14  1  0  0  0
 14 15  2  0  0  0
 15 16  1  0  0  0
 14 17  1  0  0  0
 17 18  1  0  0  0
 17 19  1  0  0  0
 17 20  1  0  0  0
 27 28  1  0  0  0
 28 29  1  0  0  0
 29 30  2  0  0  0
 29 31  1  0  0  0
 31 32  1  0  0  0
 31 33  1  0  0  0
 33 34  2  0  0  0
 33 23  1  0  0  0
 28 24  2  0  0  0
  9  5  1  0  0  0
 15 10  1  0  0  0
  3  4  1  0  0  0
M  END
> <minimizedAffinity>
-8.05341

> <CNNscore>
0.4034257531

> <CNNaffinity>
6.0724077225

> <CNN_VS>
2.4497656822

> <CNNaffinity_variance>
0.1050285697

$$$$
[H]c1sc(N([H])C(=O)C([H])([H])c2nsc3c2c(=O)n(C([H])([H])[H])c(=O)n3C([H])([H])[H])nc1-c1c([H])c([H])c([H])c(C(F)(F)F)c1F


 34 37  0  0  0  0  0  0  0  0999 V2000
  154.1041  138.1350  185.6333 C   0  0  0  0  0  0  0  0  0  0  0  0
  153.5944  139.1775  186.1116 O   0  0  0  0  0  0  0  0  0  0  0  0
  154.7930  138.1679  184.4165 N   0  0  0  0  0  0  0  0  0  0  0  0
  155.2138  137.3257  184.0143 H   0  0  0  0  0  0  0  0  0  0  0  0
  154.9173  139.3991  183.7133 C   0  0  0  0  0  0  0  0  0  0  0  0
  155.9522  140.2182  183.6853 N   0  0  0  0  0  0  0  0  0  0  0  0
  155.9019  141.3091  182.9883 C   0  0  0  0  0  0  0  0  0  0  0  0
  154.7451  141.5658  182.2959 C   0  0  0  0  0  0  0  0  0  0  0  0
  153.7947  140.2041  182.6982 S   0  0  0  0  0  0  0  0  0  0  0  0
  157.0625  142.2553  182.9401 C   0  0  0  0  0  0  0  0  0  0  0  0
  157.0290  143.3476  182.1281 C   0  0  0  0  0  0  0  0  0  0  0  0
  158.0999  144.2395  182.0702 C   0  0  0  0  0  0  0  0  0  0  0  0
  159.2135  144.0125  182.8485 C   0  0  0  0  0  0  0  0  0  0  0  0
  159.2279  142.9066  183.6597 C   0  0  0  0  0  0  0  0  0  0  0  0
  158.1794  142.0305  183.7186 C   0  0  0  0  0  0  0  0  0  0  0  0
  158.2185  140.9544  184.5218 F   0  0  0  0  0  0  0  0  0  0  0  0
  160.4242  142.6228  184.5244 C   0  0  0  0  0  0  0  0  0  0  0  0
  161.2974  143.6917  184.4492 F   0  0  0  0  0  0  0  0  0  0  0  0
  160.0704  142.3472  185.8176 F   0  0  0  0  0  0  0  0  0  0  0  0
  161.0382  141.4991  183.9910 F   0  0  0  0  0  0  0  0  0  0  0  0
  153.9819  136.8505  186.3551 C   0  0  0  0  0  0  0  0  0  0  0  0
  152.7676  136.9725  192.3719 C   0  0  0  0  0  0  0  0  0  0  0  0
  152.3599  136.6453  191.0238 N   0  0  0  0  0  0  0  0  0  0  0  0
  153.2704  136.9465  190.0400 C   0  0  0  0  0  0  0  0  0  0  0  0
  154.8256  137.6482  190.0440 S   0  0  0  0  0  0  0  0  0  0  0  0
  155.1349  137.6107  188.3991 N   0  0  0  0  0  0  0  0  0  0  0  0
  154.0444  137.0610  187.8622 C   0  0  0  0  0  0  0  0  0  0  0  0
  153.0455  136.7029  188.7157 C   0  0  0  0  0  0  0  0  0  0  0  0
  151.7964  136.1137  188.4296 C   0  0  0  0  0  0  0  0  0  0  0  0
  151.4526  135.8332  187.2437 O   0  0  0  0  0  0  0  0  0  0  0  0
  150.9481  135.8408  189.4175 N   0  0  0  0  0  0  0  0  0  0  0  0
  149.6700  135.2349  189.0961 C   0  0  0  0  0  0  0  0  0  0  0  0
  151.1878  136.0880  190.7170 C   0  0  0  0  0  0  0  0  0  0  0  0
  150.3824  135.8267  191.6367 O   0  0  0  0  0  0  0  0  0  0  0  0
 22 23  1  0  0  0
 23 24  1  0  0  0
 24 25  1  0  0  0
 25 26  1  0  0  0
 26 27  2  0  0  0
 27 21  1  0  0  0
 21  1  1  0  0  0
  1  2  2  0  0  0
  1  3  1  0  0  0
  3  5  1  0  0  0
  5  6  2  0  0  0
  6  7  1  0  0  0
  7  8  2  0  0  0
  8  9  1  0  0  0
  7 10  1  0  0  0
 10 11  2  0  0  0
 11 12  1  0  0  0
 12 13  2  0  0  0
 13 14  1  0  0  0
 14 15  2  0  0  0
 15 16  1  0  0  0
 14 17  1  0  0  0
 17 18  1  0  0  0
 17 19  1  0  0  0
 17 20  1  0  0  0
 27 28  1  0  0  0
 28 29  1  0  0  0
 29 30  2  0  0  0
 29 31  1  0  0  0
 31 32  1  0  0  0
 31 33  1  0  0  0
 33 34  2  0  0  0
 33 23  1  0  0  0
 28 24  2  0  0  0
  9  5  1  0  0  0
 15 10  1  0  0  0
  3  4  1  0  0  0
M  END
> <minimizedAffinity>
-8.16411

> <CNNscore>
0.3883153498

> <CNNaffinity>
6.3388018608

> <CNN_VS>
2.4614541531

> <CNNaffinity_variance>
0.1806382388

$$$$
[H]c1sc(N([H])C(=O)C([H])([H])c2nsc3c2c(=O)n(C([H])([H])[H])c(=O)n3C([H])([H])[H])nc1-c1c([H])c([H])c([H])c(C(F)(F)F)c1F


 34 37  0  0  0  0  0  0  0  0999 V2000
  154.5126  137.6768  186.5741 C   0  0  0  0  0  0  0  0  0  0  0  0
  153.7002  138.5798  186.8900 O   0  0  0  0  0  0  0  0  0  0  0  0
  155.0622  137.6254  185.2889 N   0  0  0  0  0  0  0  0  0  0  0  0
  155.7258  136.8948  185.0171 H   0  0  0  0  0  0  0  0  0  0  0  0
  154.6951  138.6098  184.3288 C   0  0  0  0  0  0  0  0  0  0  0  0
  155.3874  139.6648  183.9410 N   0  0  0  0  0  0  0  0  0  0  0  0
  154.9045  140.4697  183.0481 C   0  0  0  0  0  0  0  0  0  0  0  0
  153.6647  140.1781  182.5364 C   0  0  0  0  0  0  0  0  0  0  0  0
  153.2712  138.7478  183.3841 S   0  0  0  0  0  0  0  0  0  0  0  0
  155.6699  141.6739  182.5913 C   0  0  0  0  0  0  0  0  0  0  0  0
  155.1740  142.9252  182.7959 C   0  0  0  0  0  0  0  0  0  0  0  0
  155.8726  144.0578  182.3778 C   0  0  0  0  0  0  0  0  0  0  0  0
  157.0873  143.9096  181.7454 C   0  0  0  0  0  0  0  0  0  0  0  0
  157.5695  142.6407  181.5486 C   0  0  0  0  0  0  0  0  0  0  0  0
  156.8870  141.5285  181.9576 C   0  0  0  0  0  0  0  0  0  0  0  0
  157.3815  140.2964  181.7527 F   0  0  0  0  0  0  0  0  0  0  0  0
  158.8910  142.4358  180.8622 C   0  0  0  0  0  0  0  0  0  0  0  0
  159.7564  141.8005  181.7329 F   0  0  0  0  0  0  0  0  0  0  0  0
  158.7587  141.7475  179.6865 F   0  0  0  0  0  0  0  0  0  0  0  0
  159.3858  143.6994  180.5747 F   0  0  0  0  0  0  0  0  0  0  0  0
  154.9017  136.6492  187.5634 C   0  0  0  0  0  0  0  0  0  0  0  0
  152.1866  137.4912  193.0049 C   0  0  0  0  0  0  0  0  0  0  0  0
  152.1752  136.9060  191.6827 N   0  0  0  0  0  0  0  0  0  0  0  0
  153.2675  137.1906  190.8995 C   0  0  0  0  0  0  0  0  0  0  0  0
  154.6826  138.1138  191.1359 S   0  0  0  0  0  0  0  0  0  0  0  0
  155.4037  137.8761  189.6438 N   0  0  0  0  0  0  0  0  0  0  0  0
  154.5540  137.0918  188.9785 C   0  0  0  0  0  0  0  0  0  0  0  0
  153.4163  136.7185  189.6273 C   0  0  0  0  0  0  0  0  0  0  0  0
  152.3547  135.9092  189.1719 C   0  0  0  0  0  0  0  0  0  0  0  0
  152.3580  135.4037  188.0110 O   0  0  0  0  0  0  0  0  0  0  0  0
  151.3180  135.6623  189.9684 N   0  0  0  0  0  0  0  0  0  0  0  0
  150.2393  134.8270  189.4757 C   0  0  0  0  0  0  0  0  0  0  0  0
  151.1893  136.1365  191.2197 C   0  0  0  0  0  0  0  0  0  0  0  0
  150.2099  135.8972  191.9589 O   0  0  0  0  0  0  0  0  0  0  0  0
 22 23  1  0  0  0
 23 24  1  0  0  0
 24 25  1  0  0  0
 25 26  1  0  0  0
 26 27  2  0  0  0
 27 21  1  0  0  0
 21  1  1  0  0  0
  1  2  2  0  0  0
  1  3  1  0  0  0
  3  5  1  0  0  0
  5  6  2  0  0  0
  6  7  1  0  0  0
  7  8  2  0  0  0
  8  9  1  0  0  0
  7 10  1  0  0  0
 10 11  2  0  0  0
 11 12  1  0  0  0
 12 13  2  0  0  0
 13 14  1  0  0  0
 14 15  2  0  0  0
 15 16  1  0  0  0
 14 17  1  0  0  0
 17 18  1  0  0  0
 17 19  1  0  0  0
 17 20  1  0  0  0
 27 28  1  0  0  0
 28 29  1  0  0  0
 29 30  2  0  0  0
 29 31  1  0  0  0
 31 32  1  0  0  0
 31 33  1  0  0  0
 33 34  2  0  0  0
 33 23  1  0  0  0
 28 24  2  0  0  0
  9  5  1  0  0  0
 15 10  1  0  0  0
  3  4  1  0  0  0
M  END
> <minimizedAffinity>
-8.35211

> <CNNscore>
0.3773811460

> <CNNaffinity>
6.1319398880

> <CNN_VS>
2.3140785694

> <CNNaffinity_variance>
0.2136267722

$$$$
[H]c1sc(N([H])C(=O)C([H])([H])c2nsc3c2c(=O)n(C([H])([H])[H])c(=O)n3C([H])([H])[H])nc1-c1c([H])c([H])c([H])c(C(F)(F)F)c1F


 34 37  0  0  0  0  0  0  0  0999 V2000
  153.5913  138.9614  183.2085 C   0  0  0  0  0  0  0  0  0  0  0  0
  153.7812  139.3514  184.3863 O   0  0  0  0  0  0  0  0  0  0  0  0
  153.8748  139.7966  182.1230 N   0  0  0  0  0  0  0  0  0  0  0  0
  153.7249  139.4920  181.1571 H   0  0  0  0  0  0  0  0  0  0  0  0
  154.3851  141.1043  182.3581 C   0  0  0  0  0  0  0  0  0  0  0  0
  155.6462  141.4747  182.4808 N   0  0  0  0  0  0  0  0  0  0  0  0
  155.9431  142.7174  182.6948 C   0  0  0  0  0  0  0  0  0  0  0  0
  154.9048  143.6104  182.7858 C   0  0  0  0  0  0  0  0  0  0  0  0
  153.5536  142.5905  182.5545 S   0  0  0  0  0  0  0  0  0  0  0  0
  157.3662  143.1633  182.8382 C   0  0  0  0  0  0  0  0  0  0  0  0
  157.8044  144.2865  182.2056 C   0  0  0  0  0  0  0  0  0  0  0  0
  159.1255  144.7171  182.3276 C   0  0  0  0  0  0  0  0  0  0  0  0
  160.0052  143.9935  183.1021 C   0  0  0  0  0  0  0  0  0  0  0  0
  159.5444  142.8649  183.7309 C   0  0  0  0  0  0  0  0  0  0  0  0
  158.2498  142.4405  183.6133 C   0  0  0  0  0  0  0  0  0  0  0  0
  157.8235  141.3313  184.2399 F   0  0  0  0  0  0  0  0  0  0  0  0
  160.4724  142.0471  184.5849 C   0  0  0  0  0  0  0  0  0  0  0  0
  161.6962  142.6855  184.6583 F   0  0  0  0  0  0  0  0  0  0  0  0
  159.9506  141.8070  185.8274 F   0  0  0  0  0  0  0  0  0  0  0  0
  160.6349  140.8312  183.9374 F   0  0  0  0  0  0  0  0  0  0  0  0
  153.0622  137.6048  182.9522 C   0  0  0  0  0  0  0  0  0  0  0  0
  146.9283  137.7553  182.7455 C   0  0  0  0  0  0  0  0  0  0  0  0
  148.2034  137.9673  182.0977 N   0  0  0  0  0  0  0  0  0  0  0  0
  149.3101  137.6904  182.8634 C   0  0  0  0  0  0  0  0  0  0  0  0
  149.5327  137.1391  184.4626 S   0  0  0  0  0  0  0  0  0  0  0  0
  151.2061  137.1103  184.5000 N   0  0  0  0  0  0  0  0  0  0  0  0
  151.5788  137.5230  183.2874 C   0  0  0  0  0  0  0  0  0  0  0  0
  150.5883  137.8355  182.4066 C   0  0  0  0  0  0  0  0  0  0  0  0
  150.6895  138.2958  181.0773 C   0  0  0  0  0  0  0  0  0  0  0  0
  151.8134  138.4774  180.5230 O   0  0  0  0  0  0  0  0  0  0  0  0
  149.5879  138.5502  180.3761 N   0  0  0  0  0  0  0  0  0  0  0  0
  149.7197  139.0227  179.0110 C   0  0  0  0  0  0  0  0  0  0  0  0
  148.3363  138.4008  180.8435 C   0  0  0  0  0  0  0  0  0  0  0  0
  147.3084  138.6432  180.1746 O   0  0  0  0  0  0  0  0  0  0  0  0
 22 23  1  0  0  0
 23 24  1  0  0  0
 24 25  1  0  0  0
 25 26  1  0  0  0
 26 27  2  0  0  0
 27 21  1  0  0  0
 21  1  1  0  0  0
  1  2  2  0  0  0
  1  3  1  0  0  0
  3  5  1  0  0  0
  5  6  2  0  0  0
  6  7  1  0  0  0
  7  8  2  0  0  0
  8  9  1  0  0  0
  7 10  1  0  0  0
 10 11  2  0  0  0
 11 12  1  0  0  0
 12 13  2  0  0  0
 13 14  1  0  0  0
 14 15  2  0  0  0
 15 16  1  0  0  0
 14 17  1  0  0  0
 17 18  1  0  0  0
 17 19  1  0  0  0
 17 20  1  0  0  0
 27 28  1  0  0  0
 28 29  1  0  0  0
 29 30  2  0  0  0
 29 31  1  0  0  0
 31 32  1  0  0  0
 31 33  1  0  0  0
 33 34  2  0  0  0
 33 23  1  0  0  0
 28 24  2  0  0  0
  9  5  1  0  0  0
 15 10  1  0  0  0
  3  4  1  0  0  0
M  END
> <minimizedAffinity>
-7.92590

> <CNNscore>
0.3500472307

> <CNNaffinity>
6.4851303101

> <CNN_VS>
2.2701020241

> <CNNaffinity_variance>
0.0871594027

$$$$
[H]c1sc(N([H])C(=O)C([H])([H])c2nsc3c2c(=O)n(C([H])([H])[H])c(=O)n3C([H])([H])[H])nc1-c1c([H])c([H])c([H])c(C(F)(F)F)c1F


 34 37  0  0  0  0  0  0  0  0999 V2000
  153.8013  137.4775  185.1721 C   0  0  0  0  0  0  0  0  0  0  0  0
  154.3000  136.9054  184.1724 O   0  0  0  0  0  0  0  0  0  0  0  0
  153.7706  138.8732  185.2572 N   0  0  0  0  0  0  0  0  0  0  0  0
  153.3672  139.3535  186.0663 H   0  0  0  0  0  0  0  0  0  0  0  0
  154.3113  139.6531  184.1964 C   0  0  0  0  0  0  0  0  0  0  0  0
  155.5389  140.1240  184.0780 N   0  0  0  0  0  0  0  0  0  0  0  0
  155.8718  140.8231  183.0394 C   0  0  0  0  0  0  0  0  0  0  0  0
  154.9067  141.0454  182.0892 C   0  0  0  0  0  0  0  0  0  0  0  0
  153.5678  140.2237  182.7611 S   0  0  0  0  0  0  0  0  0  0  0  0
  157.2581  141.3690  182.8812 C   0  0  0  0  0  0  0  0  0  0  0  0
  158.3394  140.5492  182.9925 C   0  0  0  0  0  0  0  0  0  0  0  0
  159.6372  141.0396  182.8482 C   0  0  0  0  0  0  0  0  0  0  0  0
  159.8307  142.3783  182.5883 C   0  0  0  0  0  0  0  0  0  0  0  0
  158.7286  143.1876  182.4799 C   0  0  0  0  0  0  0  0  0  0  0  0
  157.4550  142.7097  182.6208 C   0  0  0  0  0  0  0  0  0  0  0  0
  156.3921  143.5237  182.5100 F   0  0  0  0  0  0  0  0  0  0  0  0
  158.8966  144.6543  182.1973 C   0  0  0  0  0  0  0  0  0  0  0  0
  157.6942  145.2970  182.4249 F   0  0  0  0  0  0  0  0  0  0  0  0
  159.9129  145.2062  182.9295 F   0  0  0  0  0  0  0  0  0  0  0  0
  159.2193  144.7620  180.8525 F   0  0  0  0  0  0  0  0  0  0  0  0
  153.2362  136.6776  186.2797 C   0  0  0  0  0  0  0  0  0  0  0  0
  156.4750  136.8776  191.4913 C   0  0  0  0  0  0  0  0  0  0  0  0
  156.0927  136.1750  190.2868 N   0  0  0  0  0  0  0  0  0  0  0  0
  155.1975  136.8312  189.4770 C   0  0  0  0  0  0  0  0  0  0  0  0
  154.4009  138.3369  189.5730 S   0  0  0  0  0  0  0  0  0  0  0  0
  153.5220  138.2602  188.1502 N   0  0  0  0  0  0  0  0  0  0  0  0
  153.8469  137.0824  187.6148 C   0  0  0  0  0  0  0  0  0  0  0  0
  154.7330  136.3109  188.3035 C   0  0  0  0  0  0  0  0  0  0  0  0
  155.2449  135.0368  187.9812 C   0  0  0  0  0  0  0  0  0  0  0  0
  154.9006  134.4330  186.9229 O   0  0  0  0  0  0  0  0  0  0  0  0
  156.1102  134.4418  188.7981 N   0  0  0  0  0  0  0  0  0  0  0  0
  156.6214  133.1315  188.4433 C   0  0  0  0  0  0  0  0  0  0  0  0
  156.5566  134.9707  189.9506 C   0  0  0  0  0  0  0  0  0  0  0  0
  157.3702  134.4017  190.7101 O   0  0  0  0  0  0  0  0  0  0  0  0
 22 23  1  0  0  0
 23 24  1  0  0  0
 24 25  1  0  0  0
 25 26  1  0  0  0
 26 27  2  0  0  0
 27 21  1  0  0  0
 21  1  1  0  0  0
  1  2  2  0  0  0
  1  3  1  0  0  0
  3  5  1  0  0  0
  5  6  2  0  0  0
  6  7  1  0  0  0
  7  8  2  0  0  0
  8  9  1  0  0  0
  7 10  1  0  0  0
 10 11  2  0  0  0
 11 12  1  0  0  0
 12 13  2  0  0  0
 13 14  1  0  0  0
 14 15  2  0  0  0
 15 16  1  0  0  0
 14 17  1  0  0  0
 17 18  1  0  0  0
 17 19  1  0  0  0
 17 20  1  0  0  0
 27 28  1  0  0  0
 28 29  1  0  0  0
 29 30  2  0  0  0
 29 31  1  0  0  0
 31 32  1  0  0  0
 31 33  1  0  0  0
 33 34  2  0  0  0
 33 23  1  0  0  0
 28 24  2  0  0  0
  9  5  1  0  0  0
 15 10  1  0  0  0
  3  4  1  0  0  0
M  END
> <minimizedAffinity>
-7.93388

> <CNNscore>
0.3441609144

> <CNNaffinity>
6.3897480965

> <CNN_VS>
2.1991014481

> <CNNaffinity_variance>
0.1898448914

$$$$
[H]c1sc(N([H])C(=O)C([H])([H])c2nsc3c2c(=O)n(C([H])([H])[H])c(=O)n3C([H])([H])[H])nc1-c1c([H])c([H])c([H])c(C(F)(F)F)c1F


 34 37  0  0  0  0  0  0  0  0999 V2000
  154.9181  140.7130  183.0569 C   0  0  0  0  0  0  0  0  0  0  0  0
  154.9102  141.8927  183.4854 O   0  0  0  0  0  0  0  0  0  0  0  0
  155.9651  140.2497  182.2536 N   0  0  0  0  0  0  0  0  0  0  0  0
  155.9849  139.2903  181.8970 H   0  0  0  0  0  0  0  0  0  0  0  0
  157.0343  141.1277  181.9189 C   0  0  0  0  0  0  0  0  0  0  0  0
  157.7715  141.8583  182.7346 N   0  0  0  0  0  0  0  0  0  0  0  0
  158.7143  142.6115  182.2632 C   0  0  0  0  0  0  0  0  0  0  0  0
  158.9047  142.6125  180.9040 C   0  0  0  0  0  0  0  0  0  0  0  0
  157.7000  141.5164  180.3878 S   0  0  0  0  0  0  0  0  0  0  0  0
  159.5648  143.4503  183.1675 C   0  0  0  0  0  0  0  0  0  0  0  0
  159.6627  144.7941  182.9720 C   0  0  0  0  0  0  0  0  0  0  0  0
  160.4494  145.5910  183.8037 C   0  0  0  0  0  0  0  0  0  0  0  0
  161.1413  145.0092  184.8430 C   0  0  0  0  0  0  0  0  0  0  0  0
  161.0297  143.6541  185.0231 C   0  0  0  0  0  0  0  0  0  0  0  0
  160.2591  142.8703  184.2094 C   0  0  0  0  0  0  0  0  0  0  0  0
  160.1666  141.5449  184.4073 F   0  0  0  0  0  0  0  0  0  0  0  0
  161.7688  142.9805  186.1453 C   0  0  0  0  0  0  0  0  0  0  0  0
  162.7677  142.1867  185.6135 F   0  0  0  0  0  0  0  0  0  0  0  0
  162.2642  143.8814  187.0488 F   0  0  0  0  0  0  0  0  0  0  0  0
  160.8472  142.1727  186.7951 F   0  0  0  0  0  0  0  0  0  0  0  0
  153.8131  139.7919  183.3987 C   0  0  0  0  0  0  0  0  0  0  0  0
  149.4095  137.8382  179.5932 C   0  0  0  0  0  0  0  0  0  0  0  0
  150.1022  137.7321  180.8579 N   0  0  0  0  0  0  0  0  0  0  0  0
  151.1350  138.6189  181.0439 C   0  0  0  0  0  0  0  0  0  0  0  0
  151.8154  139.8576  180.0880 S   0  0  0  0  0  0  0  0  0  0  0  0
  153.0134  140.3718  181.1383 N   0  0  0  0  0  0  0  0  0  0  0  0
  152.8811  139.5902  182.2112 C   0  0  0  0  0  0  0  0  0  0  0  0
  151.8916  138.6551  182.1796 C   0  0  0  0  0  0  0  0  0  0  0  0
  151.5311  137.7047  183.1574 C   0  0  0  0  0  0  0  0  0  0  0  0
  152.1473  137.6230  184.2605 O   0  0  0  0  0  0  0  0  0  0  0  0
  150.5229  136.8669  182.9304 N   0  0  0  0  0  0  0  0  0  0  0  0
  150.1725  135.8990  183.9524 C   0  0  0  0  0  0  0  0  0  0  0  0
  149.7884  136.8466  181.8046 C   0  0  0  0  0  0  0  0  0  0  0  0
  148.8428  136.0543  181.6028 O   0  0  0  0  0  0  0  0  0  0  0  0
 22 23  1  0  0  0
 23 24  1  0  0  0
 24 25  1  0  0  0
 25 26  1  0  0  0
 26 27  2  0  0  0
 27 21  1  0  0  0
 21  1  1  0  0  0
  1  2  2  0  0  0
  1  3  1  0  0  0
  3  5  1  0  0  0
  5  6  2  0  0  0
  6  7  1  0  0  0
  7  8  2  0  0  0
  8  9  1  0  0  0
  7 10  1  0  0  0
 10 11  2  0  0  0
 11 12  1  0  0  0
 12 13  2  0  0  0
 13 14  1  0  0  0
 14 15  2  0  0  0
 15 16  1  0  0  0
 14 17  1  0  0  0
 17 18  1  0  0  0
 17 19  1  0  0  0
 17 20  1  0  0  0
 27 28  1  0  0  0
 28 29  1  0  0  0
 29 30  2  0  0  0
 29 31  1  0  0  0
 31 32  1  0  0  0
 31 33  1  0  0  0
 33 34  2  0  0  0
 33 23  1  0  0  0
 28 24  2  0  0  0
  9  5  1  0  0  0
 15 10  1  0  0  0
  3  4  1  0  0  0
M  END
> <minimizedAffinity>
-9.51748

> <CNNscore>
0.3307145536

> <CNNaffinity>
6.7968459129

> <CNN_VS>
2.2478158474

> <CNNaffinity_variance>
0.1376028359

$$$$
[H]c1sc(N([H])C(=O)C([H])([H])c2nsc3c2c(=O)n(C([H])([H])[H])c(=O)n3C([H])([H])[H])nc1-c1c([H])c([H])c([H])c(C(F)(F)F)c1F


 34 37  0  0  0  0  0  0  0  0999 V2000
  154.1914  138.9334  184.8176 C   0  0  0  0  0  0  0  0  0  0  0  0
  153.6631  139.7770  185.5821 O   0  0  0  0  0  0  0  0  0  0  0  0
  154.7407  137.7516  185.3253 N   0  0  0  0  0  0  0  0  0  0  0  0
  155.1749  137.0547  184.7138 H   0  0  0  0  0  0  0  0  0  0  0  0
  154.6991  137.5036  186.7262 C   0  0  0  0  0  0  0  0  0  0  0  0
  153.6591  137.1498  187.4584 N   0  0  0  0  0  0  0  0  0  0  0  0
  153.7927  136.9619  188.7332 C   0  0  0  0  0  0  0  0  0  0  0  0
  155.0411  137.1448  189.2734 C   0  0  0  0  0  0  0  0  0  0  0  0
  155.9513  137.5803  187.8945 S   0  0  0  0  0  0  0  0  0  0  0  0
  152.6283  136.5604  189.5862 C   0  0  0  0  0  0  0  0  0  0  0  0
  151.5633  135.9121  189.0393 C   0  0  0  0  0  0  0  0  0  0  0  0
  150.4707  135.5305  189.8178 C   0  0  0  0  0  0  0  0  0  0  0  0
  150.4671  135.8140  191.1657 C   0  0  0  0  0  0  0  0  0  0  0  0
  151.5492  136.4678  191.6975 C   0  0  0  0  0  0  0  0  0  0  0  0
  152.6219  136.8431  190.9368 C   0  0  0  0  0  0  0  0  0  0  0  0
  153.6698  137.4825  191.4823 F   0  0  0  0  0  0  0  0  0  0  0  0
  151.5842  136.7961  193.1639 C   0  0  0  0  0  0  0  0  0  0  0  0
  152.5802  136.0519  193.7679 F   0  0  0  0  0  0  0  0  0  0  0  0
  151.7470  138.1367  193.3872 F   0  0  0  0  0  0  0  0  0  0  0  0
  150.3560  136.4133  193.6828 F   0  0  0  0  0  0  0  0  0  0  0  0
  154.2398  139.1801  183.3605 C   0  0  0  0  0  0  0  0  0  0  0  0
  157.0806  144.5279  182.3497 C   0  0  0  0  0  0  0  0  0  0  0  0
  157.1492  143.1235  182.6869 N   0  0  0  0  0  0  0  0  0  0  0  0
  155.9431  142.4679  182.7420 C   0  0  0  0  0  0  0  0  0  0  0  0
  154.3243  142.9495  182.5004 S   0  0  0  0  0  0  0  0  0  0  0  0
  153.5686  141.4830  182.7850 N   0  0  0  0  0  0  0  0  0  0  0  0
  154.5631  140.6382  183.0623 C   0  0  0  0  0  0  0  0  0  0  0  0
  155.8282  141.1418  183.0449 C   0  0  0  0  0  0  0  0  0  0  0  0
  157.0518  140.4883  183.3000 C   0  0  0  0  0  0  0  0  0  0  0  0
  157.0966  139.2577  183.5948 O   0  0  0  0  0  0  0  0  0  0  0  0
  158.1943  141.1668  183.2343 N   0  0  0  0  0  0  0  0  0  0  0  0
  159.4388  140.4711  183.5013 C   0  0  0  0  0  0  0  0  0  0  0  0
  158.2875  142.4739  182.9338 C   0  0  0  0  0  0  0  0  0  0  0  0
  159.3674  143.1008  182.8749 O   0  0  0  0  0  0  0  0  0  0  0  0
 22 23  1  0  0  0
 23 24  1  0  0  0
 24 25  1  0  0  0
 25 26  1  0  0  0
 26 27  2  0  0  0
 27 21  1  0  0  0
 21  1  1  0  0  0
  1  2  2  0  0  0
  1  3  1  0  0  0
  3  5  1  0  0  0
  5  6  2  0  0  0
  6  7  1  0  0  0
  7  8  2  0  0  0
  8  9  1  0  0  0
  7 10  1  0  0  0
 10 11  2  0  0  0
 11 12  1  0  0  0
 12 13  2  0  0  0
 13 14  1  0  0  0
 14 15  2  0  0  0
 15 16  1  0  0  0
 14 17  1  0  0  0
 17 18  1  0  0  0
 17 19  1  0  0  0
 17 20  1  0  0  0
 27 28  1  0  0  0
 28 29  1  0  0  0
 29 30  2  0  0  0
 29 31  1  0  0  0
 31 32  1  0  0  0
 31 33  1  0  0  0
 33 34  2  0  0  0
 33 23  1  0  0  0
 28 24  2  0  0  0
  9  5  1  0  0  0
 15 10  1  0  0  0
  3  4  1  0  0  0
M  END
> <minimizedAffinity>
-7.91043

> <CNNscore>
0.3242347240

> <CNNaffinity>
6.1836853027

> <CNN_VS>
2.0049655437

> <CNNaffinity_variance>
0.1830609143

$$$$
[H]c1c(C([H])([H])n2c(=O)c3c(nc([H])n3[C@]([H])(C(=O)N([H])c3nc(-c4c([H])c([H])c(C(F)(F)F)c([H])c4[H])c([H])c([H])c3[H])C([H])([H])[H])n(C([H])([H])[H])c2=O)noc1C([H])([H])[H]


 41 45  0  0  0  0  0  0  0  0999 V2000
  151.9367  135.4446  182.2267 C   0  0  0  0  0  0  0  0  0  0  0  0
  151.0927  136.6986  182.4242 C   0  0  0  0  0  0  0  0  0  0  0  0
  151.8396  137.9117  182.3620 N   0  0  0  0  0  0  0  0  0  0  0  0
  151.7887  139.0244  181.6418 C   0  0  0  0  0  0  0  0  0  0  0  0
  152.7485  139.8967  181.9888 N   0  0  0  0  0  0  0  0  0  0  0  0
  153.4599  139.3503  182.9699 C   0  0  0  0  0  0  0  0  0  0  0  0
  154.5161  139.8002  183.6823 N   0  0  0  0  0  0  0  0  0  0  0  0
  155.0840  141.0896  183.4097 C   0  0  0  0  0  0  0  0  0  0  0  0
  155.0283  139.0204  184.6471 C   0  0  0  0  0  0  0  0  0  0  0  0
  156.0122  139.4487  185.3084 O   0  0  0  0  0  0  0  0  0  0  0  0
  154.5412  137.8107  184.9365 N   0  0  0  0  0  0  0  0  0  0  0  0
  153.4737  137.3559  184.2160 C   0  0  0  0  0  0  0  0  0  0  0  0
  153.0101  136.2255  184.4832 O   0  0  0  0  0  0  0  0  0  0  0  0
  152.9061  138.1111  183.2177 C   0  0  0  0  0  0  0  0  0  0  0  0
  155.0413  136.9369  185.9965 C   0  0  0  0  0  0  0  0  0  0  0  0
  154.7179  137.5881  187.3013 C   0  0  0  0  0  0  0  0  0  0  0  0
  155.5145  137.6233  188.4242 C   0  0  0  0  0  0  0  0  0  0  0  0
  154.8075  138.3352  189.3628 C   0  0  0  0  0  0  0  0  0  0  0  0
  155.2258  138.6665  190.7657 C   0  0  0  0  0  0  0  0  0  0  0  0
  153.6708  138.6925  188.8232 O   0  0  0  0  0  0  0  0  0  0  0  0
  153.6023  138.2528  187.5888 N   0  0  0  0  0  0  0  0  0  0  0  0
  150.3153  136.5338  183.6614 C   0  0  0  0  0  0  0  0  0  0  0  0
  149.6165  137.5658  184.0049 O   0  0  0  0  0  0  0  0  0  0  0  0
  150.2498  135.4232  184.5007 N   0  0  0  0  0  0  0  0  0  0  0  0
  150.7809  134.5455  184.2696 H   0  0  0  0  0  0  0  0  0  0  0  0
  149.5602  135.4785  185.7404 C   0  0  0  0  0  0  0  0  0  0  0  0
  148.1869  135.2628  185.8033 C   0  0  0  0  0  0  0  0  0  0  0  0
  147.5546  135.2068  187.0163 C   0  0  0  0  0  0  0  0  0  0  0  0
  148.3032  135.3681  188.1797 C   0  0  0  0  0  0  0  0  0  0  0  0
  149.6611  135.5810  188.0878 C   0  0  0  0  0  0  0  0  0  0  0  0
  150.2411  135.6305  186.8757 N   0  0  0  0  0  0  0  0  0  0  0  0
  150.4738  135.7141  189.2962 C   0  0  0  0  0  0  0  0  0  0  0  0
  151.8428  135.6285  189.3125 C   0  0  0  0  0  0  0  0  0  0  0  0
  152.5894  135.7788  190.4851 C   0  0  0  0  0  0  0  0  0  0  0  0
  151.9699  136.0186  191.6834 C   0  0  0  0  0  0  0  0  0  0  0  0
  150.5870  136.1041  191.6689 C   0  0  0  0  0  0  0  0  0  0  0  0
  149.8445  135.9577  190.5097 C   0  0  0  0  0  0  0  0  0  0  0  0
  152.7444  136.1951  192.9225 C   0  0  0  0  0  0  0  0  0  0  0  0
  152.3646  135.2822  193.8881 F   0  0  0  0  0  0  0  0  0  0  0  0
  152.4169  137.4635  193.4260 F   0  0  0  0  0  0  0  0  0  0  0  0
  154.0837  136.1527  192.6796 F   0  0  0  0  0  0  0  0  0  0  0  0
  1  2  1  0  0  0
  2 22  1  0  0  0
 22 23  2  0  0  0
 22 24  1  0  0  0
 24 26  1  0  0  0
 26 27  2  0  0  0
 27 28  1  0  0  0
 28 29  2  0  0  0
 29 30  1  0  0  0
 30 31  2  0  0  0
 30 32  1  0  0  0
 32 33  2  0  0  0
 33 34  1  0  0  0
 34 35  2  0  0  0
 35 36  1  0  0  0
 36 37  2  0  0  0
 35 38  1  0  0  0
 38 39  1  0  0  0
 38 40  1  0  0  0
 38 41  1  0  0  0
  2  3  1  0  0  0
  3  4  1  0  0  0
  4  5  2  0  0  0
  5  6  1  0  0  0
  6  7  1  0  0  0
  7  8  1  0  0  0
  7  9  1  0  0  0
  9 10  2  0  0  0
  9 11  1  0  0  0
 11 15  1  0  0  0
 15 16  1  0  0  0
 16 17  1  0  0  0
 17 18  2  0  0  0
 18 19  1  0  0  0
 18 20  1  0  0  0
 20 21  1  0  0  0
 11 12  1  0  0  0
 12 13  2  0  0  0
 12 14  1  0  0  0
 31 26  1  0  0  0
 37 32  1  0  0  0
 14  3  1  0  0  0
 14  6  2  0  0  0
 21 16  2  0  0  0
 24 25  1  0  0  0
M  END
> <minimizedAffinity>
-6.92728

> <CNNscore>
0.3795247376

> <CNNaffinity>
6.2985334396

> <CNN_VS>
2.3904492855

> <CNNaffinity_variance>
0.3231172562

$$$$
[H]c1c(C([H])([H])n2c(=O)c3c(nc([H])n3[C@]([H])(C(=O)N([H])c3nc(-c4c([H])c([H])c(C(F)(F)F)c([H])c4[H])c([H])c([H])c3[H])C([H])([H])[H])n(C([H])([H])[H])c2=O)noc1C([H])([H])[H]


 41 45  0  0  0  0  0  0  0  0999 V2000
  156.5980  137.8385  190.7259 C   0  0  0  0  0  0  0  0  0  0  0  0
  155.1440  138.1132  190.3595 C   0  0  0  0  0  0  0  0  0  0  0  0
  154.2037  137.3947  191.1550 N   0  0  0  0  0  0  0  0  0  0  0  0
  153.2269  137.7136  191.9938 C   0  0  0  0  0  0  0  0  0  0  0  0
  152.6149  136.6287  192.4946 N   0  0  0  0  0  0  0  0  0  0  0  0
  153.1997  135.5545  191.9737 C   0  0  0  0  0  0  0  0  0  0  0  0
  152.9673  134.2323  192.1270 N   0  0  0  0  0  0  0  0  0  0  0  0
  151.9332  133.7707  193.0082 C   0  0  0  0  0  0  0  0  0  0  0  0
  153.7216  133.3570  191.4442 C   0  0  0  0  0  0  0  0  0  0  0  0
  153.4967  132.1255  191.5913 O   0  0  0  0  0  0  0  0  0  0  0  0
  154.7000  133.7339  190.6166 N   0  0  0  0  0  0  0  0  0  0  0  0
  154.9350  135.0705  190.4621 C   0  0  0  0  0  0  0  0  0  0  0  0
  155.8473  135.4313  189.6864 O   0  0  0  0  0  0  0  0  0  0  0  0
  154.1933  136.0131  191.1335 C   0  0  0  0  0  0  0  0  0  0  0  0
  155.5277  132.8237  189.8269 C   0  0  0  0  0  0  0  0  0  0  0  0
  156.7695  132.5550  190.6123 C   0  0  0  0  0  0  0  0  0  0  0  0
  156.8778  131.7719  191.7400 C   0  0  0  0  0  0  0  0  0  0  0  0
  158.2029  131.8153  192.1004 C   0  0  0  0  0  0  0  0  0  0  0  0
  158.8572  131.1298  193.2643 C   0  0  0  0  0  0  0  0  0  0  0  0
  158.8284  132.5753  191.2390 O   0  0  0  0  0  0  0  0  0  0  0  0
  157.9838  133.0256  190.3416 N   0  0  0  0  0  0  0  0  0  0  0  0
  154.9920  137.9033  188.9120 C   0  0  0  0  0  0  0  0  0  0  0  0
  156.0989  137.9046  188.2442 O   0  0  0  0  0  0  0  0  0  0  0  0
  153.8187  137.7175  188.1832 N   0  0  0  0  0  0  0  0  0  0  0  0
  152.8861  137.6892  188.6682 H   0  0  0  0  0  0  0  0  0  0  0  0
  153.8344  137.6728  186.7644 C   0  0  0  0  0  0  0  0  0  0  0  0
  153.1914  136.6488  186.0755 C   0  0  0  0  0  0  0  0  0  0  0  0
  153.1180  136.6800  184.7088 C   0  0  0  0  0  0  0  0  0  0  0  0
  153.6936  137.7467  184.0226 C   0  0  0  0  0  0  0  0  0  0  0  0
  154.3243  138.7464  184.7301 C   0  0  0  0  0  0  0  0  0  0  0  0
  154.3746  138.6749  186.0718 N   0  0  0  0  0  0  0  0  0  0  0  0
  154.9016  139.8957  184.0343 C   0  0  0  0  0  0  0  0  0  0  0  0
  154.2076  140.6871  183.1547 C   0  0  0  0  0  0  0  0  0  0  0  0
  154.7873  141.7901  182.5204 C   0  0  0  0  0  0  0  0  0  0  0  0
  156.0947  142.1257  182.7560 C   0  0  0  0  0  0  0  0  0  0  0  0
  156.7976  141.3266  183.6433 C   0  0  0  0  0  0  0  0  0  0  0  0
  156.2265  140.2349  184.2745 C   0  0  0  0  0  0  0  0  0  0  0  0
  156.7128  143.2937  182.1078 C   0  0  0  0  0  0  0  0  0  0  0  0
  157.7398  143.8104  182.8748 F   0  0  0  0  0  0  0  0  0  0  0  0
  155.7259  144.2895  182.0446 F   0  0  0  0  0  0  0  0  0  0  0  0
  157.1200  142.9997  180.8420 F   0  0  0  0  0  0  0  0  0  0  0  0
  1  2  1  0  0  0
  2 22  1  0  0  0
 22 23  2  0  0  0
 22 24  1  0  0  0
 24 26  1  0  0  0
 26 27  2  0  0  0
 27 28  1  0  0  0
 28 29  2  0  0  0
 29 30  1  0  0  0
 30 31  2  0  0  0
 30 32  1  0  0  0
 32 33  2  0  0  0
 33 34  1  0  0  0
 34 35  2  0  0  0
 35 36  1  0  0  0
 36 37  2  0  0  0
 35 38  1  0  0  0
 38 39  1  0  0  0
 38 40  1  0  0  0
 38 41  1  0  0  0
  2  3  1  0  0  0
  3  4  1  0  0  0
  4  5  2  0  0  0
  5  6  1  0  0  0
  6  7  1  0  0  0
  7  8  1  0  0  0
  7  9  1  0  0  0
  9 10  2  0  0  0
  9 11  1  0  0  0
 11 15  1  0  0  0
 15 16  1  0  0  0
 16 17  1  0  0  0
 17 18  2  0  0  0
 18 19  1  0  0  0
 18 20  1  0  0  0
 20 21  1  0  0  0
 11 12  1  0  0  0
 12 13  2  0  0  0
 12 14  1  0  0  0
 31 26  1  0  0  0
 37 32  1  0  0  0
 14  3  1  0  0  0
 14  6  2  0  0  0
 21 16  2  0  0  0
 24 25  1  0  0  0
M  END
> <minimizedAffinity>
-7.76647

> <CNNscore>
0.3134972155

> <CNNaffinity>
6.2372045517

> <CNN_VS>
1.9553462267

> <CNNaffinity_variance>
0.2491966188

$$$$
[H]c1c(C([H])([H])n2c(=O)c3c(nc([H])n3[C@]([H])(C(=O)N([H])c3nc(-c4c([H])c([H])c(C(F)(F)F)c([H])c4[H])c([H])c([H])c3[H])C([H])([H])[H])n(C([H])([H])[H])c2=O)noc1C([H])([H])[H]


 41 45  0  0  0  0  0  0  0  0999 V2000
  156.0226  137.7997  189.2396 C   0  0  0  0  0  0  0  0  0  0  0  0
  154.8935  136.8003  189.0155 C   0  0  0  0  0  0  0  0  0  0  0  0
  154.9189  135.6916  189.9118 N   0  0  0  0  0  0  0  0  0  0  0  0
  155.8322  134.8226  190.3245 C   0  0  0  0  0  0  0  0  0  0  0  0
  155.3334  133.9464  191.2111 N   0  0  0  0  0  0  0  0  0  0  0  0
  154.0502  134.2402  191.3962 C   0  0  0  0  0  0  0  0  0  0  0  0
  153.0993  133.6908  192.1832 N   0  0  0  0  0  0  0  0  0  0  0  0
  153.4011  132.5563  193.0084 C   0  0  0  0  0  0  0  0  0  0  0  0
  151.8663  134.2210  192.1784 C   0  0  0  0  0  0  0  0  0  0  0  0
  150.9857  133.7038  192.9173 O   0  0  0  0  0  0  0  0  0  0  0  0
  151.5320  135.2721  191.4249 N   0  0  0  0  0  0  0  0  0  0  0  0
  152.4933  135.8271  190.6291 C   0  0  0  0  0  0  0  0  0  0  0  0
  152.1887  136.8134  189.9230 O   0  0  0  0  0  0  0  0  0  0  0  0
  153.7736  135.3283  190.5941 C   0  0  0  0  0  0  0  0  0  0  0  0
  150.2148  135.9061  191.4070 C   0  0  0  0  0  0  0  0  0  0  0  0
  149.4187  135.2505  190.3265 C   0  0  0  0  0  0  0  0  0  0  0  0
  148.8604  135.8636  189.2270 C   0  0  0  0  0  0  0  0  0  0  0  0
  148.2377  134.8654  188.5173 C   0  0  0  0  0  0  0  0  0  0  0  0
  147.4750  134.9964  187.2313 C   0  0  0  0  0  0  0  0  0  0  0  0
  148.4200  133.7416  189.1612 O   0  0  0  0  0  0  0  0  0  0  0  0
  149.1256  133.9555  190.2466 N   0  0  0  0  0  0  0  0  0  0  0  0
  154.8937  136.4247  187.5938 C   0  0  0  0  0  0  0  0  0  0  0  0
  155.7594  137.0519  186.8669 O   0  0  0  0  0  0  0  0  0  0  0  0
  154.0804  135.4985  186.9435 N   0  0  0  0  0  0  0  0  0  0  0  0
  153.3674  134.9424  187.4802 H   0  0  0  0  0  0  0  0  0  0  0  0
  154.1108  135.3578  185.5312 C   0  0  0  0  0  0  0  0  0  0  0  0
  154.7533  134.2767  184.9354 C   0  0  0  0  0  0  0  0  0  0  0  0
  154.6777  134.0933  183.5807 C   0  0  0  0  0  0  0  0  0  0  0  0
  153.9516  135.0006  182.8128 C   0  0  0  0  0  0  0  0  0  0  0  0
  153.3261  136.0620  183.4290 C   0  0  0  0  0  0  0  0  0  0  0  0
  153.4281  136.2051  184.7620 N   0  0  0  0  0  0  0  0  0  0  0  0
  152.5260  137.0051  182.6487 C   0  0  0  0  0  0  0  0  0  0  0  0
  152.7035  138.3651  182.6740 C   0  0  0  0  0  0  0  0  0  0  0  0
  151.9309  139.2365  181.9002 C   0  0  0  0  0  0  0  0  0  0  0  0
  150.9481  138.7558  181.0754 C   0  0  0  0  0  0  0  0  0  0  0  0
  150.7666  137.3824  181.0496 C   0  0  0  0  0  0  0  0  0  0  0  0
  151.5308  136.5164  181.8129 C   0  0  0  0  0  0  0  0  0  0  0  0
  150.1385  139.6604  180.2432 C   0  0  0  0  0  0  0  0  0  0  0  0
  148.9668  140.0191  180.8824 F   0  0  0  0  0  0  0  0  0  0  0  0
  149.7613  138.9319  179.1044 F   0  0  0  0  0  0  0  0  0  0  0  0
  150.8577  140.7475  179.8493 F   0  0  0  0  0  0  0  0  0  0  0  0
  1  2  1  0  0  0
  2 22  1  0  0  0
 22 23  2  0  0  0
 22 24  1  0  0  0
 24 26  1  0  0  0
 26 27  2  0  0  0
 27 28  1  0  0  0
 28 29  2  0  0  0
 29 30  1  0  0  0
 30 31  2  0  0  0
 30 32  1  0  0  0
 32 33  2  0  0  0
 33 34  1  0  0  0
 34 35  2  0  0  0
 35 36  1  0  0  0
 36 37  2  0  0  0
 35 38  1  0  0  0
 38 39  1  0  0  0
 38 40  1  0  0  0
 38 41  1  0  0  0
  2  3  1  0  0  0
  3  4  1  0  0  0
  4  5  2  0  0  0
  5  6  1  0  0  0
  6  7  1  0  0  0
  7  8  1  0  0  0
  7  9  1  0  0  0
  9 10  2  0  0  0
  9 11  1  0  0  0
 11 15  1  0  0  0
 15 16  1  0  0  0
 16 17  1  0  0  0
 17 18  2  0  0  0
 18 19  1  0  0  0
 18 20  1  0  0  0
 20 21  1  0  0  0
 11 12  1  0  0  0
 12 13  2  0  0  0
 12 14  1  0  0  0
 31 26  1  0  0  0
 37 32  1  0  0  0
 14  3  1  0  0  0
 14  6  2  0  0  0
 21 16  2  0  0  0
 24 25  1  0  0  0
M  END
> <minimizedAffinity>
-6.27511

> <CNNscore>
0.2852136493

> <CNNaffinity>
6.0778193474

> <CNN_VS>
1.7334769964

> <CNNaffinity_variance>
0.0952417850

$$$$
[H]c1c(C([H])([H])n2c(=O)c3c(nc([H])n3[C@]([H])(C(=O)N([H])c3nc(-c4c([H])c([H])c(C(F)(F)F)c([H])c4[H])c([H])c([H])c3[H])C([H])([H])[H])n(C([H])([H])[H])c2=O)noc1C([H])([H])[H]


 41 45  0  0  0  0  0  0  0  0999 V2000
  151.4724  139.7221  180.1287 C   0  0  0  0  0  0  0  0  0  0  0  0
  151.5269  138.5932  181.1516 C   0  0  0  0  0  0  0  0  0  0  0  0
  150.2523  138.2312  181.6787 N   0  0  0  0  0  0  0  0  0  0  0  0
  149.1413  138.8762  182.0091 C   0  0  0  0  0  0  0  0  0  0  0  0
  148.1916  138.0462  182.4691 N   0  0  0  0  0  0  0  0  0  0  0  0
  148.6829  136.8113  182.4438 C   0  0  0  0  0  0  0  0  0  0  0  0
  148.1489  135.6166  182.7802 N   0  0  0  0  0  0  0  0  0  0  0  0
  146.8121  135.5340  183.2952 C   0  0  0  0  0  0  0  0  0  0  0  0
  148.8902  134.5081  182.6283 C   0  0  0  0  0  0  0  0  0  0  0  0
  148.3837  133.3974  182.9425 O   0  0  0  0  0  0  0  0  0  0  0  0
  150.1407  134.5307  182.1594 N   0  0  0  0  0  0  0  0  0  0  0  0
  150.6805  135.7386  181.8198 C   0  0  0  0  0  0  0  0  0  0  0  0
  151.8498  135.7675  181.3770 O   0  0  0  0  0  0  0  0  0  0  0  0
  149.9683  136.9068  181.9516 C   0  0  0  0  0  0  0  0  0  0  0  0
  150.9776  133.3513  181.9453 C   0  0  0  0  0  0  0  0  0  0  0  0
  150.9262  133.0262  180.4883 C   0  0  0  0  0  0  0  0  0  0  0  0
  151.9942  132.7216  179.6740 C   0  0  0  0  0  0  0  0  0  0  0  0
  151.4617  132.4883  178.4292 C   0  0  0  0  0  0  0  0  0  0  0  0
  152.1969  132.1162  177.1747 C   0  0  0  0  0  0  0  0  0  0  0  0
  150.1659  132.6469  178.5109 O   0  0  0  0  0  0  0  0  0  0  0  0
  149.8297  132.9690  179.7376 N   0  0  0  0  0  0  0  0  0  0  0  0
  152.5205  138.9530  182.1741 C   0  0  0  0  0  0  0  0  0  0  0  0
  152.8709  140.1974  182.1761 O   0  0  0  0  0  0  0  0  0  0  0  0
  153.1286  138.1276  183.1180 N   0  0  0  0  0  0  0  0  0  0  0  0
  152.8755  137.1089  183.1805 H   0  0  0  0  0  0  0  0  0  0  0  0
  154.1803  138.6054  183.9432 C   0  0  0  0  0  0  0  0  0  0  0  0
  154.5375  137.9304  185.1065 C   0  0  0  0  0  0  0  0  0  0  0  0
  155.6254  138.3376  185.8311 C   0  0  0  0  0  0  0  0  0  0  0  0
  156.3648  139.4317  185.3881 C   0  0  0  0  0  0  0  0  0  0  0  0
  155.9880  140.0815  184.2334 C   0  0  0  0  0  0  0  0  0  0  0  0
  154.9116  139.6490  183.5536 N   0  0  0  0  0  0  0  0  0  0  0  0
  156.7715  141.2080  183.7277 C   0  0  0  0  0  0  0  0  0  0  0  0
  158.1253  141.3408  183.9044 C   0  0  0  0  0  0  0  0  0  0  0  0
  158.8457  142.4235  183.3909 C   0  0  0  0  0  0  0  0  0  0  0  0
  158.2142  143.4114  182.6819 C   0  0  0  0  0  0  0  0  0  0  0  0
  156.8465  143.2794  182.5036 C   0  0  0  0  0  0  0  0  0  0  0  0
  156.1301  142.2079  183.0089 C   0  0  0  0  0  0  0  0  0  0  0  0
  158.9628  144.5481  182.1218 C   0  0  0  0  0  0  0  0  0  0  0  0
  159.9396  144.9873  182.9954 F   0  0  0  0  0  0  0  0  0  0  0  0
  158.0494  145.6049  181.9853 F   0  0  0  0  0  0  0  0  0  0  0  0
  159.4730  144.2490  180.8952 F   0  0  0  0  0  0  0  0  0  0  0  0
  1  2  1  0  0  0
  2 22  1  0  0  0
 22 23  2  0  0  0
 22 24  1  0  0  0
 24 26  1  0  0  0
 26 27  2  0  0  0
 27 28  1  0  0  0
 28 29  2  0  0  0
 29 30  1  0  0  0
 30 31  2  0  0  0
 30 32  1  0  0  0
 32 33  2  0  0  0
 33 34  1  0  0  0
 34 35  2  0  0  0
 35 36  1  0  0  0
 36 37  2  0  0  0
 35 38  1  0  0  0
 38 39  1  0  0  0
 38 40  1  0  0  0
 38 41  1  0  0  0
  2  3  1  0  0  0
  3  4  1  0  0  0
  4  5  2  0  0  0
  5  6  1  0  0  0
  6  7  1  0  0  0
  7  8  1  0  0  0
  7  9  1  0  0  0
  9 10  2  0  0  0
  9 11  1  0  0  0
 11 15  1  0  0  0
 15 16  1  0  0  0
 16 17  1  0  0  0
 17 18  2  0  0  0
 18 19  1  0  0  0
 18 20  1  0  0  0
 20 21  1  0  0  0
 11 12  1  0  0  0
 12 13  2  0  0  0
 12 14  1  0  0  0
 31 26  1  0  0  0
 37 32  1  0  0  0
 14  3  1  0  0  0
 14  6  2  0  0  0
 21 16  2  0  0  0
 24 25  1  0  0  0
M  END
> <minimizedAffinity>
-7.36181

> <CNNscore>
0.2833578289

> <CNNaffinity>
6.4718461037

> <CNN_VS>
1.8338482380

> <CNNaffinity_variance>
0.0573749915

$$$$
[H]c1c(C([H])([H])n2c(=O)c3c(nc([H])n3[C@]([H])(C(=O)N([H])c3nc(-c4c([H])c([H])c(C(F)(F)F)c([H])c4[H])c([H])c([H])c3[H])C([H])([H])[H])n(C([H])([H])[H])c2=O)noc1C([H])([H])[H]


 41 45  0  0  0  0  0  0  0  0999 V2000
  156.4425  138.2417  190.6926 C   0  0  0  0  0  0  0  0  0  0  0  0
  155.2021  137.4426  190.3097 C   0  0  0  0  0  0  0  0  0  0  0  0
  155.2985  136.0513  190.6069 N   0  0  0  0  0  0  0  0  0  0  0  0
  156.2184  135.1077  190.4559 C   0  0  0  0  0  0  0  0  0  0  0  0
  155.8055  133.9185  190.9227 N   0  0  0  0  0  0  0  0  0  0  0  0
  154.5746  134.0736  191.4001 C   0  0  0  0  0  0  0  0  0  0  0  0
  153.7158  133.2123  191.9884 N   0  0  0  0  0  0  0  0  0  0  0  0
  154.0748  131.8351  192.1717 C   0  0  0  0  0  0  0  0  0  0  0  0
  152.5196  133.6645  192.3956 C   0  0  0  0  0  0  0  0  0  0  0  0
  151.7252  132.8549  192.9455 O   0  0  0  0  0  0  0  0  0  0  0  0
  152.1343  134.9344  192.2433 N   0  0  0  0  0  0  0  0  0  0  0  0
  153.0025  135.8049  191.6482 C   0  0  0  0  0  0  0  0  0  0  0  0
  152.6502  136.9963  191.5049 O   0  0  0  0  0  0  0  0  0  0  0  0
  154.2416  135.3994  191.2130 C   0  0  0  0  0  0  0  0  0  0  0  0
  150.8578  135.4838  192.6970 C   0  0  0  0  0  0  0  0  0  0  0  0
  149.8258  135.1102  191.6838 C   0  0  0  0  0  0  0  0  0  0  0  0
  149.6604  135.6638  190.4337 C   0  0  0  0  0  0  0  0  0  0  0  0
  148.6006  134.9984  189.8666 C   0  0  0  0  0  0  0  0  0  0  0  0
  148.0068  135.2155  188.5053 C   0  0  0  0  0  0  0  0  0  0  0  0
  148.1740  134.1133  190.7300 O   0  0  0  0  0  0  0  0  0  0  0  0
  148.8976  134.1678  191.8232 N   0  0  0  0  0  0  0  0  0  0  0  0
  154.8870  137.7370  188.9039 C   0  0  0  0  0  0  0  0  0  0  0  0
  153.9097  138.5650  188.7286 O   0  0  0  0  0  0  0  0  0  0  0  0
  155.4960  137.2319  187.7566 N   0  0  0  0  0  0  0  0  0  0  0  0
  156.3075  136.5672  187.8298 H   0  0  0  0  0  0  0  0  0  0  0  0
  154.9742  137.5080  186.4655 C   0  0  0  0  0  0  0  0  0  0  0  0
  153.9420  136.7409  185.9340 C   0  0  0  0  0  0  0  0  0  0  0  0
  153.3728  137.0882  184.7382 C   0  0  0  0  0  0  0  0  0  0  0  0
  153.8405  138.2149  184.0660 C   0  0  0  0  0  0  0  0  0  0  0  0
  154.8640  138.9555  184.6153 C   0  0  0  0  0  0  0  0  0  0  0  0
  155.3953  138.5773  185.7911 N   0  0  0  0  0  0  0  0  0  0  0  0
  155.3451  140.1642  183.9474 C   0  0  0  0  0  0  0  0  0  0  0  0
  154.5351  141.2038  183.5671 C   0  0  0  0  0  0  0  0  0  0  0  0
  155.0326  142.3534  182.9460 C   0  0  0  0  0  0  0  0  0  0  0  0
  156.3716  142.4853  182.6869 C   0  0  0  0  0  0  0  0  0  0  0  0
  157.1911  141.4355  183.0694 C   0  0  0  0  0  0  0  0  0  0  0  0
  156.7024  140.2965  183.6862 C   0  0  0  0  0  0  0  0  0  0  0  0
  156.9110  143.6969  182.0486 C   0  0  0  0  0  0  0  0  0  0  0  0
  155.9232  144.6425  181.8479 F   0  0  0  0  0  0  0  0  0  0  0  0
  157.3597  143.3162  180.7745 F   0  0  0  0  0  0  0  0  0  0  0  0
  157.9632  144.2001  182.7514 F   0  0  0  0  0  0  0  0  0  0  0  0
  1  2  1  0  0  0
  2 22  1  0  0  0
 22 23  2  0  0  0
 22 24  1  0  0  0
 24 26  1  0  0  0
 26 27  2  0  0  0
 27 28  1  0  0  0
 28 29  2  0  0  0
 29 30  1  0  0  0
 30 31  2  0  0  0
 30 32  1  0  0  0
 32 33  2  0  0  0
 33 34  1  0  0  0
 34 35  2  0  0  0
 35 36  1  0  0  0
 36 37  2  0  0  0
 35 38  1  0  0  0
 38 39  1  0  0  0
 38 40  1  0  0  0
 38 41  1  0  0  0
  2  3  1  0  0  0
  3  4  1  0  0  0
  4  5  2  0  0  0
  5  6  1  0  0  0
  6  7  1  0  0  0
  7  8  1  0  0  0
  7  9  1  0  0  0
  9 10  2  0  0  0
  9 11  1  0  0  0
 11 15  1  0  0  0
 15 16  1  0  0  0
 16 17  1  0  0  0
 17 18  2  0  0  0
 18 19  1  0  0  0
 18 20  1  0  0  0
 20 21  1  0  0  0
 11 12  1  0  0  0
 12 13  2  0  0  0
 12 14  1  0  0  0
 31 26  1  0  0  0
 37 32  1  0  0  0
 14  3  1  0  0  0
 14  6  2  0  0  0
 21 16  2  0  0  0
 24 25  1  0  0  0
M  END
> <minimizedAffinity>
-8.17456

> <CNNscore>
0.2644305527

> <CNNaffinity>
6.2002935410

> <CNN_VS>
1.6395469904

> <CNNaffinity_variance>
0.1452044547

$$$$
[H]c1c(C([H])([H])n2c(=O)c3c(nc([H])n3[C@]([H])(C(=O)N([H])c3nc(-c4c([H])c([H])c(C(F)(F)F)c([H])c4[H])c([H])c([H])c3[H])C([H])([H])[H])n(C([H])([H])[H])c2=O)noc1C([H])([H])[H]


 41 45  0  0  0  0  0  0  0  0999 V2000
  155.5844  135.9195  188.2983 C   0  0  0  0  0  0  0  0  0  0  0  0
  154.5510  136.9872  187.9580 C   0  0  0  0  0  0  0  0  0  0  0  0
  153.2188  136.4886  187.8578 N   0  0  0  0  0  0  0  0  0  0  0  0
  152.4353  136.0582  186.8779 C   0  0  0  0  0  0  0  0  0  0  0  0
  151.2276  135.6783  187.3248 N   0  0  0  0  0  0  0  0  0  0  0  0
  151.2052  135.8595  188.6415 C   0  0  0  0  0  0  0  0  0  0  0  0
  150.2532  135.6279  189.5719 N   0  0  0  0  0  0  0  0  0  0  0  0
  148.9715  135.1078  189.1904 C   0  0  0  0  0  0  0  0  0  0  0  0
  150.5243  135.8955  190.8589 C   0  0  0  0  0  0  0  0  0  0  0  0
  149.6314  135.6745  191.7207 O   0  0  0  0  0  0  0  0  0  0  0  0
  151.6983  136.3859  191.2658 N   0  0  0  0  0  0  0  0  0  0  0  0
  152.6603  136.6203  190.3250 C   0  0  0  0  0  0  0  0  0  0  0  0
  153.7632  137.0765  190.6987 O   0  0  0  0  0  0  0  0  0  0  0  0
  152.4407  136.3635  188.9927 C   0  0  0  0  0  0  0  0  0  0  0  0
  152.0544  136.6640  192.6561 C   0  0  0  0  0  0  0  0  0  0  0  0
  152.0833  135.3573  193.3793 C   0  0  0  0  0  0  0  0  0  0  0  0
  152.7605  134.2201  192.9990 C   0  0  0  0  0  0  0  0  0  0  0  0
  152.4994  133.2857  193.9718 C   0  0  0  0  0  0  0  0  0  0  0  0
  152.9982  131.8717  194.0395 C   0  0  0  0  0  0  0  0  0  0  0  0
  151.7194  133.8412  194.8628 O   0  0  0  0  0  0  0  0  0  0  0  0
  151.4614  135.0818  194.5223 N   0  0  0  0  0  0  0  0  0  0  0  0
  155.0158  137.7059  186.7623 C   0  0  0  0  0  0  0  0  0  0  0  0
  156.2883  137.6334  186.5461 O   0  0  0  0  0  0  0  0  0  0  0  0
  154.2660  138.4524  185.8554 N   0  0  0  0  0  0  0  0  0  0  0  0
  153.2235  138.5372  185.9646 H   0  0  0  0  0  0  0  0  0  0  0  0
  154.8927  139.2070  184.8291 C   0  0  0  0  0  0  0  0  0  0  0  0
  154.1946  139.5674  183.6806 C   0  0  0  0  0  0  0  0  0  0  0  0
  154.7752  140.3898  182.7528 C   0  0  0  0  0  0  0  0  0  0  0  0
  156.0683  140.8573  182.9752 C   0  0  0  0  0  0  0  0  0  0  0  0
  156.7362  140.4838  184.1207 C   0  0  0  0  0  0  0  0  0  0  0  0
  156.1288  139.6729  185.0045 N   0  0  0  0  0  0  0  0  0  0  0  0
  158.0793  140.9932  184.3947 C   0  0  0  0  0  0  0  0  0  0  0  0
  159.0583  141.1245  183.4429 C   0  0  0  0  0  0  0  0  0  0  0  0
  160.3271  141.6327  183.7376 C   0  0  0  0  0  0  0  0  0  0  0  0
  160.6463  142.0228  185.0117 C   0  0  0  0  0  0  0  0  0  0  0  0
  159.6589  141.8896  185.9747 C   0  0  0  0  0  0  0  0  0  0  0  0
  158.4010  141.3886  185.6863 C   0  0  0  0  0  0  0  0  0  0  0  0
  161.9725  142.5746  185.3325 C   0  0  0  0  0  0  0  0  0  0  0  0
  162.3350  142.2891  186.6353 F   0  0  0  0  0  0  0  0  0  0  0  0
  161.8593  143.9711  185.2500 F   0  0  0  0  0  0  0  0  0  0  0  0
  162.9117  142.1578  184.4390 F   0  0  0  0  0  0  0  0  0  0  0  0
  1  2  1  0  0  0
  2 22  1  0  0  0
 22 23  2  0  0  0
 22 24  1  0  0  0
 24 26  1  0  0  0
 26 27  2  0  0  0
 27 28  1  0  0  0
 28 29  2  0  0  0
 29 30  1  0  0  0
 30 31  2  0  0  0
 30 32  1  0  0  0
 32 33  2  0  0  0
 33 34  1  0  0  0
 34 35  2  0  0  0
 35 36  1  0  0  0
 36 37  2  0  0  0
 35 38  1  0  0  0
 38 39  1  0  0  0
 38 40  1  0  0  0
 38 41  1  0  0  0
  2  3  1  0  0  0
  3  4  1  0  0  0
  4  5  2  0  0  0
  5  6  1  0  0  0
  6  7  1  0  0  0
  7  8  1  0  0  0
  7  9  1  0  0  0
  9 10  2  0  0  0
  9 11  1  0  0  0
 11 15  1  0  0  0
 15 16  1  0  0  0
 16 17  1  0  0  0
 17 18  2  0  0  0
 18 19  1  0  0  0
 18 20  1  0  0  0
 20 21  1  0  0  0
 11 12  1  0  0  0
 12 13  2  0  0  0
 12 14  1  0  0  0
 31 26  1  0  0  0
 37 32  1  0  0  0
 14  3  1  0  0  0
 14  6  2  0  0  0
 21 16  2  0  0  0
 24 25  1  0  0  0
M  END
> <minimizedAffinity>
-9.10191

> <CNNscore>
0.2610232532

> <CNNaffinity>
6.3493237495

> <CNN_VS>
1.6573210955

> <CNNaffinity_variance>
0.1071401611

$$$$
[H]c1c(C([H])([H])n2c(=O)c3c(nc([H])n3[C@]([H])(C(=O)N([H])c3nc(-c4c([H])c([H])c(C(F)(F)F)c([H])c4[H])c([H])c([H])c3[H])C([H])([H])[H])n(C([H])([H])[H])c2=O)noc1C([H])([H])[H]


 41 45  0  0  0  0  0  0  0  0999 V2000
  154.1803  137.7219  182.8232 C   0  0  0  0  0  0  0  0  0  0  0  0
  153.5450  138.8481  183.6306 C   0  0  0  0  0  0  0  0  0  0  0  0
  153.8305  140.1508  183.1261 N   0  0  0  0  0  0  0  0  0  0  0  0
  153.1158  141.1835  182.6992 C   0  0  0  0  0  0  0  0  0  0  0  0
  153.8895  142.2144  182.3237 N   0  0  0  0  0  0  0  0  0  0  0  0
  155.1575  141.8596  182.5065 C   0  0  0  0  0  0  0  0  0  0  0  0
  156.3205  142.5173  182.3054 N   0  0  0  0  0  0  0  0  0  0  0  0
  156.3221  143.8519  181.7782 C   0  0  0  0  0  0  0  0  0  0  0  0
  157.4750  141.9012  182.6034 C   0  0  0  0  0  0  0  0  0  0  0  0
  158.5552  142.5227  182.4149 O   0  0  0  0  0  0  0  0  0  0  0  0
  157.5289  140.6585  183.0904 N   0  0  0  0  0  0  0  0  0  0  0  0
  156.3532  139.9936  183.2932 C   0  0  0  0  0  0  0  0  0  0  0  0
  156.3954  138.8308  183.7519 O   0  0  0  0  0  0  0  0  0  0  0  0
  155.1404  140.5745  183.0085 C   0  0  0  0  0  0  0  0  0  0  0  0
  158.7560  139.9553  183.4605 C   0  0  0  0  0  0  0  0  0  0  0  0
  159.5617  140.8815  184.3114 C   0  0  0  0  0  0  0  0  0  0  0  0
  159.1900  141.4205  185.5230 C   0  0  0  0  0  0  0  0  0  0  0  0
  160.2490  142.1960  185.9288 C   0  0  0  0  0  0  0  0  0  0  0  0
  160.3605  143.0056  187.1877 C   0  0  0  0  0  0  0  0  0  0  0  0
  161.1794  142.1157  185.0130 O   0  0  0  0  0  0  0  0  0  0  0  0
  160.7830  141.3321  184.0381 N   0  0  0  0  0  0  0  0  0  0  0  0
  153.9084  138.6568  185.0425 C   0  0  0  0  0  0  0  0  0  0  0  0
  153.6914  139.6801  185.8022 O   0  0  0  0  0  0  0  0  0  0  0  0
  154.4595  137.5297  185.6492 N   0  0  0  0  0  0  0  0  0  0  0  0
  154.6450  136.6581  185.0909 H   0  0  0  0  0  0  0  0  0  0  0  0
  154.8878  137.5588  187.0023 C   0  0  0  0  0  0  0  0  0  0  0  0
  156.1206  138.1033  187.3491 C   0  0  0  0  0  0  0  0  0  0  0  0
  156.4711  138.2278  188.6667 C   0  0  0  0  0  0  0  0  0  0  0  0
  155.5794  137.8033  189.6490 C   0  0  0  0  0  0  0  0  0  0  0  0
  154.3661  137.2675  189.2769 C   0  0  0  0  0  0  0  0  0  0  0  0
  154.0633  137.1622  187.9711 N   0  0  0  0  0  0  0  0  0  0  0  0
  153.3978  136.8512  190.2906 C   0  0  0  0  0  0  0  0  0  0  0  0
  152.1700  136.3117  190.0021 C   0  0  0  0  0  0  0  0  0  0  0  0
  151.2758  135.9079  190.9981 C   0  0  0  0  0  0  0  0  0  0  0  0
  151.5973  136.0411  192.3234 C   0  0  0  0  0  0  0  0  0  0  0  0
  152.8367  136.5870  192.6166 C   0  0  0  0  0  0  0  0  0  0  0  0
  153.7254  136.9863  191.6332 C   0  0  0  0  0  0  0  0  0  0  0  0
  150.6723  135.6050  193.3820 C   0  0  0  0  0  0  0  0  0  0  0  0
  150.8486  136.3402  194.5389 F   0  0  0  0  0  0  0  0  0  0  0  0
  151.0154  134.2813  193.6977 F   0  0  0  0  0  0  0  0  0  0  0  0
  149.3803  135.6322  192.9526 F   0  0  0  0  0  0  0  0  0  0  0  0
  1  2  1  0  0  0
  2 22  1  0  0  0
 22 23  2  0  0  0
 22 24  1  0  0  0
 24 26  1  0  0  0
 26 27  2  0  0  0
 27 28  1  0  0  0
 28 29  2  0  0  0
 29 30  1  0  0  0
 30 31  2  0  0  0
 30 32  1  0  0  0
 32 33  2  0  0  0
 33 34  1  0  0  0
 34 35  2  0  0  0
 35 36  1  0  0  0
 36 37  2  0  0  0
 35 38  1  0  0  0
 38 39  1  0  0  0
 38 40  1  0  0  0
 38 41  1  0  0  0
  2  3  1  0  0  0
  3  4  1  0  0  0
  4  5  2  0  0  0
  5  6  1  0  0  0
  6  7  1  0  0  0
  7  8  1  0  0  0
  7  9  1  0  0  0
  9 10  2  0  0  0
  9 11  1  0  0  0
 11 15  1  0  0  0
 15 16  1  0  0  0
 16 17  1  0  0  0
 17 18  2  0  0  0
 18 19  1  0  0  0
 18 20  1  0  0  0
 20 21  1  0  0  0
 11 12  1  0  0  0
 12 13  2  0  0  0
 12 14  1  0  0  0
 31 26  1  0  0  0
 37 32  1  0  0  0
 14  3  1  0  0  0
 14  6  2  0  0  0
 21 16  2  0  0  0
 24 25  1  0  0  0
M  END
> <minimizedAffinity>
-7.86608

> <CNNscore>
0.2525665760

> <CNNaffinity>
6.5450692177

> <CNN_VS>
1.6530656815

> <CNNaffinity_variance>
0.1897299588

$$$$
[H]c1c(C([H])([H])n2c(=O)c3c(nc([H])n3[C@]([H])(C(=O)N([H])c3nc(-c4c([H])c([H])c(C(F)(F)F)c([H])c4[H])c([H])c([H])c3[H])C([H])([H])[H])n(C([H])([H])[H])c2=O)noc1C([H])([H])[H]


 41 45  0  0  0  0  0  0  0  0999 V2000
  156.5157  139.4408  184.7269 C   0  0  0  0  0  0  0  0  0  0  0  0
  155.3127  138.5045  184.7183 C   0  0  0  0  0  0  0  0  0  0  0  0
  154.2621  138.9242  183.8504 N   0  0  0  0  0  0  0  0  0  0  0  0
  153.8225  140.0840  183.3802 C   0  0  0  0  0  0  0  0  0  0  0  0
  152.7686  139.9324  182.5624 N   0  0  0  0  0  0  0  0  0  0  0  0
  152.4980  138.6333  182.4837 C   0  0  0  0  0  0  0  0  0  0  0  0
  151.5615  137.9428  181.7968 N   0  0  0  0  0  0  0  0  0  0  0  0
  150.6051  138.6290  180.9760 C   0  0  0  0  0  0  0  0  0  0  0  0
  151.5376  136.6047  181.8969 C   0  0  0  0  0  0  0  0  0  0  0  0
  150.6621  135.9681  181.2510 O   0  0  0  0  0  0  0  0  0  0  0  0
  152.4006  135.9186  182.6511 N   0  0  0  0  0  0  0  0  0  0  0  0
  153.3470  136.6167  183.3458 C   0  0  0  0  0  0  0  0  0  0  0  0
  154.1605  135.9811  184.0517 O   0  0  0  0  0  0  0  0  0  0  0  0
  153.4212  137.9876  183.2803 C   0  0  0  0  0  0  0  0  0  0  0  0
  152.4374  134.4619  182.7692 C   0  0  0  0  0  0  0  0  0  0  0  0
  153.0925  133.9307  181.5364 C   0  0  0  0  0  0  0  0  0  0  0  0
  152.5056  133.1571  180.5597 C   0  0  0  0  0  0  0  0  0  0  0  0
  153.4872  132.9225  179.6274 C   0  0  0  0  0  0  0  0  0  0  0  0
  153.3726  132.1297  178.3582 C   0  0  0  0  0  0  0  0  0  0  0  0
  154.5775  133.5202  180.0336 O   0  0  0  0  0  0  0  0  0  0  0  0
  154.3572  134.1284  181.1751 N   0  0  0  0  0  0  0  0  0  0  0  0
  154.8929  138.2901  186.1111 C   0  0  0  0  0  0  0  0  0  0  0  0
  153.8539  138.9678  186.4752 O   0  0  0  0  0  0  0  0  0  0  0  0
  155.4754  137.4677  187.0736 N   0  0  0  0  0  0  0  0  0  0  0  0
  156.3128  136.8772  186.8372 H   0  0  0  0  0  0  0  0  0  0  0  0
  155.0303  137.4847  188.4216 C   0  0  0  0  0  0  0  0  0  0  0  0
  155.6263  138.3225  189.3594 C   0  0  0  0  0  0  0  0  0  0  0  0
  155.1136  138.4116  190.6257 C   0  0  0  0  0  0  0  0  0  0  0  0
  153.9926  137.6549  190.9587 C   0  0  0  0  0  0  0  0  0  0  0  0
  153.4235  136.8334  190.0105 C   0  0  0  0  0  0  0  0  0  0  0  0
  153.9607  136.7751  188.7793 N   0  0  0  0  0  0  0  0  0  0  0  0
  152.2232  136.0595  190.3250 C   0  0  0  0  0  0  0  0  0  0  0  0
  151.8467  134.9231  189.6553 C   0  0  0  0  0  0  0  0  0  0  0  0
  150.7008  134.1976  189.9951 C   0  0  0  0  0  0  0  0  0  0  0  0
  149.8954  134.6037  191.0264 C   0  0  0  0  0  0  0  0  0  0  0  0
  150.2737  135.7522  191.7032 C   0  0  0  0  0  0  0  0  0  0  0  0
  151.4084  136.4721  191.3708 C   0  0  0  0  0  0  0  0  0  0  0  0
  148.6953  133.8405  191.4053 C   0  0  0  0  0  0  0  0  0  0  0  0
  147.5961  134.2293  190.6632 F   0  0  0  0  0  0  0  0  0  0  0  0
  148.4103  134.1724  192.7389 F   0  0  0  0  0  0  0  0  0  0  0  0
  148.9158  132.4991  191.3253 F   0  0  0  0  0  0  0  0  0  0  0  0
  1  2  1  0  0  0
  2 22  1  0  0  0
 22 23  2  0  0  0
 22 24  1  0  0  0
 24 26  1  0  0  0
 26 27  2  0  0  0
 27 28  1  0  0  0
 28 29  2  0  0  0
 29 30  1  0  0  0
 30 31  2  0  0  0
 30 32  1  0  0  0
 32 33  2  0  0  0
 33 34  1  0  0  0
 34 35  2  0  0  0
 35 36  1  0  0  0
 36 37  2  0  0  0
 35 38  1  0  0  0
 38 39  1  0  0  0
 38 40  1  0  0  0
 38 41  1  0  0  0
  2  3  1  0  0  0
  3  4  1  0  0  0
  4  5  2  0  0  0
  5  6  1  0  0  0
  6  7  1  0  0  0
  7  8  1  0  0  0
  7  9  1  0  0  0
  9 10  2  0  0  0
  9 11  1  0  0  0
 11 15  1  0  0  0
 15 16  1  0  0  0
 16 17  1  0  0  0
 17 18  2  0  0  0
 18 19  1  0  0  0
 18 20  1  0  0  0
 20 21  1  0  0  0
 11 12  1  0  0  0
 12 13  2  0  0  0
 12 14  1  0  0  0
 31 26  1  0  0  0
 37 32  1  0  0  0
 14  3  1  0  0  0
 14  6  2  0  0  0
 21 16  2  0  0  0
 24 25  1  0  0  0
M  END
> <minimizedAffinity>
-6.56708

> <CNNscore>
0.2490969002

> <CNNaffinity>
6.0532155037

> <CNN_VS>
1.5078371763

> <CNNaffinity_variance>
0.0586631000

$$$$
[H]c1c(C([H])([H])n2c(=O)c3c(nc([H])n3[C@]([H])(C(=O)N([H])c3nc(-c4c([H])c([H])c(C(F)(F)F)c([H])c4[H])c([H])c([H])c3[H])C([H])([H])[H])n(C([H])([H])[H])c2=O)noc1C([H])([H])[H]


 41 45  0  0  0  0  0  0  0  0999 V2000
  153.6239  135.4563  185.0971 C   0  0  0  0  0  0  0  0  0  0  0  0
  153.0260  136.6497  185.8334 C   0  0  0  0  0  0  0  0  0  0  0  0
  151.6002  136.6600  185.8518 N   0  0  0  0  0  0  0  0  0  0  0  0
  150.6413  137.0817  185.0381 C   0  0  0  0  0  0  0  0  0  0  0  0
  149.4161  136.8421  185.5322 N   0  0  0  0  0  0  0  0  0  0  0  0
  149.5620  136.2420  186.7093 C   0  0  0  0  0  0  0  0  0  0  0  0
  148.6652  135.7781  187.6071 N   0  0  0  0  0  0  0  0  0  0  0  0
  147.2568  135.9182  187.3707 C   0  0  0  0  0  0  0  0  0  0  0  0
  149.1126  135.1868  188.7258 C   0  0  0  0  0  0  0  0  0  0  0  0
  148.2693  134.7548  189.5571 O   0  0  0  0  0  0  0  0  0  0  0  0
  150.4120  135.0367  188.9966 N   0  0  0  0  0  0  0  0  0  0  0  0
  151.3185  135.5061  188.0891 C   0  0  0  0  0  0  0  0  0  0  0  0
  152.5369  135.3665  188.3342 O   0  0  0  0  0  0  0  0  0  0  0  0
  150.9191  136.1184  186.9251 C   0  0  0  0  0  0  0  0  0  0  0  0
  150.9503  134.3731  190.1828 C   0  0  0  0  0  0  0  0  0  0  0  0
  150.9251  135.3652  191.2992 C   0  0  0  0  0  0  0  0  0  0  0  0
  151.8800  136.3181  191.5763 C   0  0  0  0  0  0  0  0  0  0  0  0
  151.4229  136.9966  192.6801 C   0  0  0  0  0  0  0  0  0  0  0  0
  152.0880  138.1379  193.3927 C   0  0  0  0  0  0  0  0  0  0  0  0
  150.2750  136.4734  193.0259 O   0  0  0  0  0  0  0  0  0  0  0  0
  149.9631  135.4955  192.2085 N   0  0  0  0  0  0  0  0  0  0  0  0
  153.6294  137.8727  185.2834 C   0  0  0  0  0  0  0  0  0  0  0  0
  153.6595  138.8764  186.0976 O   0  0  0  0  0  0  0  0  0  0  0  0
  154.1537  138.0813  184.0092 N   0  0  0  0  0  0  0  0  0  0  0  0
  154.1749  137.3009  183.3047 H   0  0  0  0  0  0  0  0  0  0  0  0
  154.5697  139.3716  183.5880 C   0  0  0  0  0  0  0  0  0  0  0  0
  153.6982  140.2150  182.9055 C   0  0  0  0  0  0  0  0  0  0  0  0
  154.0752  141.4966  182.6060 C   0  0  0  0  0  0  0  0  0  0  0  0
  155.3375  141.9405  182.9930 C   0  0  0  0  0  0  0  0  0  0  0  0
  156.1799  141.0839  183.6669 C   0  0  0  0  0  0  0  0  0  0  0  0
  155.7697  139.8327  183.9389 N   0  0  0  0  0  0  0  0  0  0  0  0
  157.4943  141.5396  184.1176 C   0  0  0  0  0  0  0  0  0  0  0  0
  158.0518  141.1984  185.3236 C   0  0  0  0  0  0  0  0  0  0  0  0
  159.3200  141.6385  185.7146 C   0  0  0  0  0  0  0  0  0  0  0  0
  160.0653  142.4438  184.8939 C   0  0  0  0  0  0  0  0  0  0  0  0
  159.5031  142.7904  183.6758 C   0  0  0  0  0  0  0  0  0  0  0  0
  158.2486  142.3551  183.2845 C   0  0  0  0  0  0  0  0  0  0  0  0
  161.4083  142.9009  185.2858 C   0  0  0  0  0  0  0  0  0  0  0  0
  161.5866  142.8251  186.6542 F   0  0  0  0  0  0  0  0  0  0  0  0
  161.4852  144.2618  184.9512 F   0  0  0  0  0  0  0  0  0  0  0  0
  162.3781  142.2276  184.6073 F   0  0  0  0  0  0  0  0  0  0  0  0
  1  2  1  0  0  0
  2 22  1  0  0  0
 22 23  2  0  0  0
 22 24  1  0  0  0
 24 26  1  0  0  0
 26 27  2  0  0  0
 27 28  1  0  0  0
 28 29  2  0  0  0
 29 30  1  0  0  0
 30 31  2  0  0  0
 30 32  1  0  0  0
 32 33  2  0  0  0
 33 34  1  0  0  0
 34 35  2  0  0  0
 35 36  1  0  0  0
 36 37  2  0  0  0
 35 38  1  0  0  0
 38 39  1  0  0  0
 38 40  1  0  0  0
 38 41  1  0  0  0
  2  3  1  0  0  0
  3  4  1  0  0  0
  4  5  2  0  0  0
  5  6  1  0  0  0
  6  7  1  0  0  0
  7  8  1  0  0  0
  7  9  1  0  0  0
  9 10  2  0  0  0
  9 11  1  0  0  0
 11 15  1  0  0  0
 15 16  1  0  0  0
 16 17  1  0  0  0
 17 18  2  0  0  0
 18 19  1  0  0  0
 18 20  1  0  0  0
 20 21  1  0  0  0
 11 12  1  0  0  0
 12 13  2  0  0  0
 12 14  1  0  0  0
 31 26  1  0  0  0
 37 32  1  0  0  0
 14  3  1  0  0  0
 14  6  2  0  0  0
 21 16  2  0  0  0
 24 25  1  0  0  0
M  END
> <minimizedAffinity>
-9.21973

> <CNNscore>
0.2223032117

> <CNNaffinity>
6.2258305550

> <CNN_VS>
1.3840221167

> <CNNaffinity_variance>
0.1170228273

$$$$
[H]c1sc(N([H])C(=O)C([H])([H])n2nc([H])c3c2c(=O)n(C([H])([H])[H])c(=O)n3C([H])([H])[H])nc1-c1c([H])c(Cl)c(OC([H])([H])C(C([H])([H])[H])(C([H])([H])[H])C([H])([H])[H])c(Cl)c1[H]


 37 40  0  0  0  0  0  0  0  0999 V2000
  152.1839  136.9269  184.1043 C   0  0  0  0  0  0  0  0  0  0  0  0
  153.1107  137.8432  184.0891 N   0  0  0  0  0  0  0  0  0  0  0  0
  153.1535  138.7826  183.2005 C   0  0  0  0  0  0  0  0  0  0  0  0
  152.1606  138.7789  182.2490 C   0  0  0  0  0  0  0  0  0  0  0  0
  151.2450  137.4184  182.7147 S   0  0  0  0  0  0  0  0  0  0  0  0
  154.2399  139.8113  183.2275 C   0  0  0  0  0  0  0  0  0  0  0  0
  153.9634  141.0737  182.7998 C   0  0  0  0  0  0  0  0  0  0  0  0
  154.9538  142.0573  182.8115 C   0  0  0  0  0  0  0  0  0  0  0  0
  154.4203  143.6611  182.3253 Cl  0  0  0  0  0  0  0  0  0  0  0  0
  156.2125  141.8147  183.2357 C   0  0  0  0  0  0  0  0  0  0  0  0
  156.4623  140.4860  183.6759 C   0  0  0  0  0  0  0  0  0  0  0  0
  158.0900  140.1638  184.2332 Cl  0  0  0  0  0  0  0  0  0  0  0  0
  155.4941  139.5222  183.6663 C   0  0  0  0  0  0  0  0  0  0  0  0
  157.2273  142.7167  183.2646 O   0  0  0  0  0  0  0  0  0  0  0  0
  157.8313  143.3164  182.2120 C   0  0  0  0  0  0  0  0  0  0  0  0
  158.6174  142.6446  181.1714 C   0  0  0  0  0  0  0  0  0  0  0  0
  159.2545  143.7980  180.3327 C   0  0  0  0  0  0  0  0  0  0  0  0
  157.8344  141.8445  180.1544 C   0  0  0  0  0  0  0  0  0  0  0  0
  159.7306  141.8281  181.7313 C   0  0  0  0  0  0  0  0  0  0  0  0
  152.7458  135.2456  185.8475 C   0  0  0  0  0  0  0  0  0  0  0  0
  152.2993  134.2165  186.4827 O   0  0  0  0  0  0  0  0  0  0  0  0
  151.8860  135.8045  184.9295 N   0  0  0  0  0  0  0  0  0  0  0  0
  150.9110  135.3716  184.7924 H   0  0  0  0  0  0  0  0  0  0  0  0
  154.0929  135.6784  186.1829 C   0  0  0  0  0  0  0  0  0  0  0  0
  155.0476  138.8461  191.2160 C   0  0  0  0  0  0  0  0  0  0  0  0
  155.3057  137.6537  190.4068 N   0  0  0  0  0  0  0  0  0  0  0  0
  154.6896  137.5797  189.2195 C   0  0  0  0  0  0  0  0  0  0  0  0
  153.8277  138.4008  188.5211 C   0  0  0  0  0  0  0  0  0  0  0  0
  153.5450  137.8001  187.3605 N   0  0  0  0  0  0  0  0  0  0  0  0
  154.1815  136.6300  187.2739 N   0  0  0  0  0  0  0  0  0  0  0  0
  154.8955  136.4672  188.4035 C   0  0  0  0  0  0  0  0  0  0  0  0
  155.7503  135.5057  188.9121 C   0  0  0  0  0  0  0  0  0  0  0  0
  155.9975  134.4736  188.2462 O   0  0  0  0  0  0  0  0  0  0  0  0
  156.3662  135.5884  190.1086 N   0  0  0  0  0  0  0  0  0  0  0  0
  157.2547  134.5390  190.5870 C   0  0  0  0  0  0  0  0  0  0  0  0
  156.1303  136.6810  190.8516 C   0  0  0  0  0  0  0  0  0  0  0  0
  156.6731  136.8359  191.9940 O   0  0  0  0  0  0  0  0  0  0  0  0
 25 26  1  0  0  0
 26 27  1  0  0  0
 27 28  1  0  0  0
 28 29  2  0  0  0
 29 30  1  0  0  0
 30 24  1  0  0  0
 24 20  1  0  0  0
 20 21  2  0  0  0
 20 22  1  0  0  0
 22  1  1  0  0  0
  1  2  2  0  0  0
  2  3  1  0  0  0
  3  4  2  0  0  0
  4  5  1  0  0  0
  3  6  1  0  0  0
  6  7  2  0  0  0
  7  8  1  0  0  0
  8  9  1  0  0  0
  8 10  2  0  0  0
 10 14  1  0  0  0
 14 15  1  0  0  0
 15 16  1  0  0  0
 16 17  1  0  0  0
 16 18  1  0  0  0
 16 19  1  0  0  0
 10 11  1  0  0  0
 11 12  1  0  0  0
 11 13  2  0  0  0
 30 31  1  0  0  0
 31 32  1  0  0  0
 32 33  2  0  0  0
 32 34  1  0  0  0
 34 35  1  0  0  0
 34 36  1  0  0  0
 36 37  2  0  0  0
 36 26  1  0  0  0
 31 27  2  0  0  0
  5  1  1  0  0  0
 13  6  1  0  0  0
 22 23  1  0  0  0
M  END
> <minimizedAffinity>
-8.07080

> <CNNscore>
0.5939394236

> <CNNaffinity>
7.2161726952

> <CNN_VS>
4.2859692574

> <CNNaffinity_variance>
0.1924163103

$$$$
[H]c1sc(N([H])C(=O)C([H])([H])n2nc([H])c3c2c(=O)n(C([H])([H])[H])c(=O)n3C([H])([H])[H])nc1-c1c([H])c(Cl)c(OC([H])([H])C(C([H])([H])[H])(C([H])([H])[H])C([H])([H])[H])c(Cl)c1[H]


 37 40  0  0  0  0  0  0  0  0999 V2000
  152.6444  138.0695  183.5245 C   0  0  0  0  0  0  0  0  0  0  0  0
  153.7252  138.7922  183.6144 N   0  0  0  0  0  0  0  0  0  0  0  0
  153.9571  139.8058  182.8443 C   0  0  0  0  0  0  0  0  0  0  0  0
  152.9974  140.0998  181.9043 C   0  0  0  0  0  0  0  0  0  0  0  0
  151.8373  138.8883  182.2084 S   0  0  0  0  0  0  0  0  0  0  0  0
  155.2149  140.6034  182.9888 C   0  0  0  0  0  0  0  0  0  0  0  0
  156.3008  140.0228  183.5690 C   0  0  0  0  0  0  0  0  0  0  0  0
  157.4898  140.7385  183.7195 C   0  0  0  0  0  0  0  0  0  0  0  0
  158.8324  139.8244  184.3939 Cl  0  0  0  0  0  0  0  0  0  0  0  0
  157.6234  142.0180  183.3094 C   0  0  0  0  0  0  0  0  0  0  0  0
  156.4689  142.5892  182.7073 C   0  0  0  0  0  0  0  0  0  0  0  0
  156.6347  144.2459  182.1671 Cl  0  0  0  0  0  0  0  0  0  0  0  0
  155.3047  141.8900  182.5580 C   0  0  0  0  0  0  0  0  0  0  0  0
  158.7422  142.7777  183.4331 O   0  0  0  0  0  0  0  0  0  0  0  0
  159.9867  142.3683  183.7737 C   0  0  0  0  0  0  0  0  0  0  0  0
  160.8022  142.9066  184.8680 C   0  0  0  0  0  0  0  0  0  0  0  0
  162.1846  142.1915  184.7366 C   0  0  0  0  0  0  0  0  0  0  0  0
  160.3479  142.5661  186.2699 C   0  0  0  0  0  0  0  0  0  0  0  0
  161.0398  144.3715  184.7389 C   0  0  0  0  0  0  0  0  0  0  0  0
  152.8129  136.1991  185.1540 C   0  0  0  0  0  0  0  0  0  0  0  0
  152.1823  135.1881  185.6461 O   0  0  0  0  0  0  0  0  0  0  0  0
  152.1291  136.9324  184.2110 N   0  0  0  0  0  0  0  0  0  0  0  0
  151.1305  136.6384  183.9405 H   0  0  0  0  0  0  0  0  0  0  0  0
  154.1573  136.4306  185.6574 C   0  0  0  0  0  0  0  0  0  0  0  0
  155.0614  138.8187  191.1124 C   0  0  0  0  0  0  0  0  0  0  0  0
  155.3320  137.7614  190.1365 N   0  0  0  0  0  0  0  0  0  0  0  0
  154.7236  137.8617  188.9471 C   0  0  0  0  0  0  0  0  0  0  0  0
  153.8607  138.7730  188.3728 C   0  0  0  0  0  0  0  0  0  0  0  0
  153.5889  138.3503  187.1339 N   0  0  0  0  0  0  0  0  0  0  0  0
  154.2333  137.2096  186.8784 N   0  0  0  0  0  0  0  0  0  0  0  0
  154.9415  136.8842  187.9761 C   0  0  0  0  0  0  0  0  0  0  0  0
  155.7992  135.8624  188.3418 C   0  0  0  0  0  0  0  0  0  0  0  0
  156.0570  134.9423  187.5315 O   0  0  0  0  0  0  0  0  0  0  0  0
  156.4074  135.7693  189.5415 N   0  0  0  0  0  0  0  0  0  0  0  0
  157.2997  134.6652  189.8645 C   0  0  0  0  0  0  0  0  0  0  0  0
  156.1601  136.7377  190.4372 C   0  0  0  0  0  0  0  0  0  0  0  0
  156.6950  136.7238  191.5937 O   0  0  0  0  0  0  0  0  0  0  0  0
 25 26  1  0  0  0
 26 27  1  0  0  0
 27 28  1  0  0  0
 28 29  2  0  0  0
 29 30  1  0  0  0
 30 24  1  0  0  0
 24 20  1  0  0  0
 20 21  2  0  0  0
 20 22  1  0  0  0
 22  1  1  0  0  0
  1  2  2  0  0  0
  2  3  1  0  0  0
  3  4  2  0  0  0
  4  5  1  0  0  0
  3  6  1  0  0  0
  6  7  2  0  0  0
  7  8  1  0  0  0
  8  9  1  0  0  0
  8 10  2  0  0  0
 10 14  1  0  0  0
 14 15  1  0  0  0
 15 16  1  0  0  0
 16 17  1  0  0  0
 16 18  1  0  0  0
 16 19  1  0  0  0
 10 11  1  0  0  0
 11 12  1  0  0  0
 11 13  2  0  0  0
 30 31  1  0  0  0
 31 32  1  0  0  0
 32 33  2  0  0  0
 32 34  1  0  0  0
 34 35  1  0  0  0
 34 36  1  0  0  0
 36 37  2  0  0  0
 36 26  1  0  0  0
 31 27  2  0  0  0
  5  1  1  0  0  0
 13  6  1  0  0  0
 22 23  1  0  0  0
M  END
> <minimizedAffinity>
-8.78160

> <CNNscore>
0.5828219056

> <CNNaffinity>
7.3647856712

> <CNN_VS>
4.2923583984

> <CNNaffinity_variance>
0.2679213881

$$$$
[H]c1sc(N([H])C(=O)C([H])([H])n2nc([H])c3c2c(=O)n(C([H])([H])[H])c(=O)n3C([H])([H])[H])nc1-c1c([H])c(Cl)c(OC([H])([H])C(C([H])([H])[H])(C([H])([H])[H])C([H])([H])[H])c(Cl)c1[H]


 37 40  0  0  0  0  0  0  0  0999 V2000
  152.8103  137.5053  186.9261 C   0  0  0  0  0  0  0  0  0  0  0  0
  153.2969  138.2900  186.0062 N   0  0  0  0  0  0  0  0  0  0  0  0
  154.5655  138.3983  185.7761 C   0  0  0  0  0  0  0  0  0  0  0  0
  155.4024  137.6361  186.5571 C   0  0  0  0  0  0  0  0  0  0  0  0
  154.2892  136.8244  187.5610 S   0  0  0  0  0  0  0  0  0  0  0  0
  155.0729  139.3145  184.7074 C   0  0  0  0  0  0  0  0  0  0  0  0
  156.3609  139.1861  184.2856 C   0  0  0  0  0  0  0  0  0  0  0  0
  156.8663  140.0246  183.2906 C   0  0  0  0  0  0  0  0  0  0  0  0
  158.5125  139.6727  182.7815 Cl  0  0  0  0  0  0  0  0  0  0  0  0
  156.1225  140.9888  182.7074 C   0  0  0  0  0  0  0  0  0  0  0  0
  154.7829  141.0911  183.1728 C   0  0  0  0  0  0  0  0  0  0  0  0
  153.8093  142.3347  182.4181 Cl  0  0  0  0  0  0  0  0  0  0  0  0
  154.2860  140.2707  184.1457 C   0  0  0  0  0  0  0  0  0  0  0  0
  156.5493  141.8461  181.7445 O   0  0  0  0  0  0  0  0  0  0  0  0
  157.1583  143.0432  181.9133 C   0  0  0  0  0  0  0  0  0  0  0  0
  158.5752  143.3322  181.6662 C   0  0  0  0  0  0  0  0  0  0  0  0
  159.3044  142.9677  182.9985 C   0  0  0  0  0  0  0  0  0  0  0  0
  158.9315  144.7850  181.4418 C   0  0  0  0  0  0  0  0  0  0  0  0
  159.1545  142.4815  180.5893 C   0  0  0  0  0  0  0  0  0  0  0  0
  150.5072  136.6149  186.6355 C   0  0  0  0  0  0  0  0  0  0  0  0
  149.3819  136.4248  187.2352 O   0  0  0  0  0  0  0  0  0  0  0  0
  151.5031  137.1864  187.3943 N   0  0  0  0  0  0  0  0  0  0  0  0
  151.3027  137.4363  188.4211 H   0  0  0  0  0  0  0  0  0  0  0  0
  150.5757  136.2026  185.2428 C   0  0  0  0  0  0  0  0  0  0  0  0
  147.6580  139.4070  181.0598 C   0  0  0  0  0  0  0  0  0  0  0  0
  148.9141  138.8870  181.6031 N   0  0  0  0  0  0  0  0  0  0  0  0
  148.8325  138.1295  182.7051 C   0  0  0  0  0  0  0  0  0  0  0  0
  147.7966  137.6810  183.4992 C   0  0  0  0  0  0  0  0  0  0  0  0
  148.3259  136.9364  184.4755 N   0  0  0  0  0  0  0  0  0  0  0  0
  149.6539  136.8816  184.3523 N   0  0  0  0  0  0  0  0  0  0  0  0
  149.9954  137.6059  183.2702 C   0  0  0  0  0  0  0  0  0  0  0  0
  151.1717  137.9267  182.6165 C   0  0  0  0  0  0  0  0  0  0  0  0
  152.2655  137.4967  183.0506 O   0  0  0  0  0  0  0  0  0  0  0  0
  151.2446  138.6901  181.5076 N   0  0  0  0  0  0  0  0  0  0  0  0
  152.5170  138.9920  180.8676 C   0  0  0  0  0  0  0  0  0  0  0  0
  150.0938  139.1676  181.0085 C   0  0  0  0  0  0  0  0  0  0  0  0
  150.0761  139.8969  179.9637 O   0  0  0  0  0  0  0  0  0  0  0  0
 25 26  1  0  0  0
 26 27  1  0  0  0
 27 28  1  0  0  0
 28 29  2  0  0  0
 29 30  1  0  0  0
 30 24  1  0  0  0
 24 20  1  0  0  0
 20 21  2  0  0  0
 20 22  1  0  0  0
 22  1  1  0  0  0
  1  2  2  0  0  0
  2  3  1  0  0  0
  3  4  2  0  0  0
  4  5  1  0  0  0
  3  6  1  0  0  0
  6  7  2  0  0  0
  7  8  1  0  0  0
  8  9  1  0  0  0
  8 10  2  0  0  0
 10 14  1  0  0  0
 14 15  1  0  0  0
 15 16  1  0  0  0
 16 17  1  0  0  0
 16 18  1  0  0  0
 16 19  1  0  0  0
 10 11  1  0  0  0
 11 12  1  0  0  0
 11 13  2  0  0  0
 30 31  1  0  0  0
 31 32  1  0  0  0
 32 33  2  0  0  0
 32 34  1  0  0  0
 34 35  1  0  0  0
 34 36  1  0  0  0
 36 37  2  0  0  0
 36 26  1  0  0  0
 31 27  2  0  0  0
  5  1  1  0  0  0
 13  6  1  0  0  0
 22 23  1  0  0  0
M  END
> <minimizedAffinity>
-7.74851

> <CNNscore>
0.4924708605

> <CNNaffinity>
7.0802736282

> <CNN_VS>
3.4868283272

> <CNNaffinity_variance>
0.2783132195

$$$$
[H]c1sc(N([H])C(=O)C([H])([H])n2nc([H])c3c2c(=O)n(C([H])([H])[H])c(=O)n3C([H])([H])[H])nc1-c1c([H])c(Cl)c(OC([H])([H])C(C([H])([H])[H])(C([H])([H])[H])C([H])([H])[H])c(Cl)c1[H]


 37 40  0  0  0  0  0  0  0  0999 V2000
  152.2907  136.6435  184.0552 C   0  0  0  0  0  0  0  0  0  0  0  0
  153.1863  137.5901  184.0792 N   0  0  0  0  0  0  0  0  0  0  0  0
  153.1399  138.6195  183.2967 C   0  0  0  0  0  0  0  0  0  0  0  0
  152.0846  138.6797  182.4169 C   0  0  0  0  0  0  0  0  0  0  0  0
  151.2445  137.2443  182.7909 S   0  0  0  0  0  0  0  0  0  0  0  0
  154.1941  139.6792  183.3645 C   0  0  0  0  0  0  0  0  0  0  0  0
  153.9110  140.9224  182.8875 C   0  0  0  0  0  0  0  0  0  0  0  0
  154.8717  141.9340  182.9352 C   0  0  0  0  0  0  0  0  0  0  0  0
  154.3266  143.5095  182.3749 Cl  0  0  0  0  0  0  0  0  0  0  0  0
  156.1072  141.7381  183.4432 C   0  0  0  0  0  0  0  0  0  0  0  0
  156.3647  140.4283  183.9327 C   0  0  0  0  0  0  0  0  0  0  0  0
  157.9622  140.1665  184.5986 Cl  0  0  0  0  0  0  0  0  0  0  0  0
  155.4255  139.4371  183.8880 C   0  0  0  0  0  0  0  0  0  0  0  0
  157.0934  142.6692  183.5116 O   0  0  0  0  0  0  0  0  0  0  0  0
  157.7402  143.2663  182.4832 C   0  0  0  0  0  0  0  0  0  0  0  0
  158.5106  142.5849  181.4372 C   0  0  0  0  0  0  0  0  0  0  0  0
  159.1176  143.7304  180.5658 C   0  0  0  0  0  0  0  0  0  0  0  0
  157.7141  141.7600  180.4508 C   0  0  0  0  0  0  0  0  0  0  0  0
  159.6440  141.7891  181.9862 C   0  0  0  0  0  0  0  0  0  0  0  0
  151.5992  135.3405  186.0565 C   0  0  0  0  0  0  0  0  0  0  0  0
  151.5054  134.1496  186.5412 O   0  0  0  0  0  0  0  0  0  0  0  0
  152.0841  135.4295  184.7714 N   0  0  0  0  0  0  0  0  0  0  0  0
  152.3500  134.5288  184.2473 H   0  0  0  0  0  0  0  0  0  0  0  0
  151.1826  136.4279  186.9273 C   0  0  0  0  0  0  0  0  0  0  0  0
  153.3869  135.9744  192.5142 C   0  0  0  0  0  0  0  0  0  0  0  0
  153.5544  136.3920  191.1210 N   0  0  0  0  0  0  0  0  0  0  0  0
  152.5243  136.1733  190.2928 C   0  0  0  0  0  0  0  0  0  0  0  0
  151.2641  135.6288  190.4350 C   0  0  0  0  0  0  0  0  0  0  0  0
  150.6612  135.6828  189.2428 N   0  0  0  0  0  0  0  0  0  0  0  0
  151.4699  136.2351  188.3359 N   0  0  0  0  0  0  0  0  0  0  0  0
  152.6245  136.5488  188.9531 C   0  0  0  0  0  0  0  0  0  0  0  0
  153.8222  137.1364  188.5872 C   0  0  0  0  0  0  0  0  0  0  0  0
  154.0001  137.5096  187.4046 O   0  0  0  0  0  0  0  0  0  0  0  0
  154.8540  137.3526  189.4277 N   0  0  0  0  0  0  0  0  0  0  0  0
  156.0907  137.9757  188.9782 C   0  0  0  0  0  0  0  0  0  0  0  0
  154.7020  136.9701  190.7052 C   0  0  0  0  0  0  0  0  0  0  0  0
  155.6293  137.1386  191.5628 O   0  0  0  0  0  0  0  0  0  0  0  0
 25 26  1  0  0  0
 26 27  1  0  0  0
 27 28  1  0  0  0
 28 29  2  0  0  0
 29 30  1  0  0  0
 30 24  1  0  0  0
 24 20  1  0  0  0
 20 21  2  0  0  0
 20 22  1  0  0  0
 22  1  1  0  0  0
  1  2  2  0  0  0
  2  3  1  0  0  0
  3  4  2  0  0  0
  4  5  1  0  0  0
  3  6  1  0  0  0
  6  7  2  0  0  0
  7  8  1  0  0  0
  8  9  1  0  0  0
  8 10  2  0  0  0
 10 14  1  0  0  0
 14 15  1  0  0  0
 15 16  1  0  0  0
 16 17  1  0  0  0
 16 18  1  0  0  0
 16 19  1  0  0  0
 10 11  1  0  0  0
 11 12  1  0  0  0
 11 13  2  0  0  0
 30 31  1  0  0  0
 31 32  1  0  0  0
 32 33  2  0  0  0
 32 34  1  0  0  0
 34 35  1  0  0  0
 34 36  1  0  0  0
 36 37  2  0  0  0
 36 26  1  0  0  0
 31 27  2  0  0  0
  5  1  1  0  0  0
 13  6  1  0  0  0
 22 23  1  0  0  0
M  END
> <minimizedAffinity>
-7.69811

> <CNNscore>
0.4835173190

> <CNNaffinity>
6.9635848999

> <CNN_VS>
3.3670139313

> <CNNaffinity_variance>
0.2785429955

$$$$
[H]c1sc(N([H])C(=O)C([H])([H])n2nc([H])c3c2c(=O)n(C([H])([H])[H])c(=O)n3C([H])([H])[H])nc1-c1c([H])c(Cl)c(OC([H])([H])C(C([H])([H])[H])(C([H])([H])[H])C([H])([H])[H])c(Cl)c1[H]


 37 40  0  0  0  0  0  0  0  0999 V2000
  153.0124  136.2580  184.9853 C   0  0  0  0  0  0  0  0  0  0  0  0
  153.7966  137.2919  184.8634 N   0  0  0  0  0  0  0  0  0  0  0  0
  153.5961  138.2251  183.9899 C   0  0  0  0  0  0  0  0  0  0  0  0
  152.4980  138.0825  183.1745 C   0  0  0  0  0  0  0  0  0  0  0  0
  151.8434  136.6118  183.7354 S   0  0  0  0  0  0  0  0  0  0  0  0
  154.5274  139.3921  183.8909 C   0  0  0  0  0  0  0  0  0  0  0  0
  154.0896  140.5365  183.2977 C   0  0  0  0  0  0  0  0  0  0  0  0
  154.9325  141.6438  183.1885 C   0  0  0  0  0  0  0  0  0  0  0  0
  154.1945  143.0792  182.4898 Cl  0  0  0  0  0  0  0  0  0  0  0  0
  156.2005  141.6392  183.6527 C   0  0  0  0  0  0  0  0  0  0  0  0
  156.6207  140.4276  184.2668 C   0  0  0  0  0  0  0  0  0  0  0  0
  158.2613  140.4143  184.8769 Cl  0  0  0  0  0  0  0  0  0  0  0  0
  155.7969  139.3431  184.3757 C   0  0  0  0  0  0  0  0  0  0  0  0
  157.0784  142.6720  183.5716 O   0  0  0  0  0  0  0  0  0  0  0  0
  157.6036  143.2255  182.4534 C   0  0  0  0  0  0  0  0  0  0  0  0
  158.4381  142.5386  181.4615 C   0  0  0  0  0  0  0  0  0  0  0  0
  159.0535  143.6773  180.5872 C   0  0  0  0  0  0  0  0  0  0  0  0
  157.7088  141.6670  180.4634 C   0  0  0  0  0  0  0  0  0  0  0  0
  159.5659  141.7886  182.0816 C   0  0  0  0  0  0  0  0  0  0  0  0
  152.3631  135.0439  187.0555 C   0  0  0  0  0  0  0  0  0  0  0  0
  152.4638  133.9187  187.6766 O   0  0  0  0  0  0  0  0  0  0  0  0
  152.9789  135.1086  185.8262 N   0  0  0  0  0  0  0  0  0  0  0  0
  153.4959  134.2429  185.4520 H   0  0  0  0  0  0  0  0  0  0  0  0
  151.6159  136.0918  187.7323 C   0  0  0  0  0  0  0  0  0  0  0  0
  151.9923  136.3588  193.7377 C   0  0  0  0  0  0  0  0  0  0  0  0
  151.2985  135.8925  192.5358 N   0  0  0  0  0  0  0  0  0  0  0  0
  151.8327  136.2323  191.3551 C   0  0  0  0  0  0  0  0  0  0  0  0
  152.9468  136.9471  190.9643 C   0  0  0  0  0  0  0  0  0  0  0  0
  152.9792  136.9506  189.6277 N   0  0  0  0  0  0  0  0  0  0  0  0
  151.9400  136.2735  189.1343 N   0  0  0  0  0  0  0  0  0  0  0  0
  151.2166  135.8180  190.1742 C   0  0  0  0  0  0  0  0  0  0  0  0
  150.0676  135.0644  190.3347 C   0  0  0  0  0  0  0  0  0  0  0  0
  149.4493  134.6452  189.3289 O   0  0  0  0  0  0  0  0  0  0  0  0
  149.5368  134.7271  191.5273 N   0  0  0  0  0  0  0  0  0  0  0  0
  148.3219  133.9311  191.6275 C   0  0  0  0  0  0  0  0  0  0  0  0
  150.1717  135.1540  192.6300 C   0  0  0  0  0  0  0  0  0  0  0  0
  149.7352  134.8786  193.7951 O   0  0  0  0  0  0  0  0  0  0  0  0
 25 26  1  0  0  0
 26 27  1  0  0  0
 27 28  1  0  0  0
 28 29  2  0  0  0
 29 30  1  0  0  0
 30 24  1  0  0  0
 24 20  1  0  0  0
 20 21  2  0  0  0
 20 22  1  0  0  0
 22  1  1  0  0  0
  1  2  2  0  0  0
  2  3  1  0  0  0
  3  4  2  0  0  0
  4  5  1  0  0  0
  3  6  1  0  0  0
  6  7  2  0  0  0
  7  8  1  0  0  0
  8  9  1  0  0  0
  8 10  2  0  0  0
 10 14  1  0  0  0
 14 15  1  0  0  0
 15 16  1  0  0  0
 16 17  1  0  0  0
 16 18  1  0  0  0
 16 19  1  0  0  0
 10 11  1  0  0  0
 11 12  1  0  0  0
 11 13  2  0  0  0
 30 31  1  0  0  0
 31 32  1  0  0  0
 32 33  2  0  0  0
 32 34  1  0  0  0
 34 35  1  0  0  0
 34 36  1  0  0  0
 36 37  2  0  0  0
 36 26  1  0  0  0
 31 27  2  0  0  0
  5  1  1  0  0  0
 13  6  1  0  0  0
 22 23  1  0  0  0
M  END
> <minimizedAffinity>
-7.63006

> <CNNscore>
0.4683249295

> <CNNaffinity>
6.7905282974

> <CNN_VS>
3.1801736355

> <CNNaffinity_variance>
0.3876179755

$$$$
[H]c1sc(N([H])C(=O)C([H])([H])n2nc([H])c3c2c(=O)n(C([H])([H])[H])c(=O)n3C([H])([H])[H])nc1-c1c([H])c(Cl)c(OC([H])([H])C(C([H])([H])[H])(C([H])([H])[H])C([H])([H])[H])c(Cl)c1[H]


 37 40  0  0  0  0  0  0  0  0999 V2000
  152.6862  137.7173  183.6006 C   0  0  0  0  0  0  0  0  0  0  0  0
  153.7414  138.4778  183.6834 N   0  0  0  0  0  0  0  0  0  0  0  0
  153.8950  139.5444  182.9672 C   0  0  0  0  0  0  0  0  0  0  0  0
  152.8788  139.8538  182.0939 C   0  0  0  0  0  0  0  0  0  0  0  0
  151.7832  138.5790  182.3776 S   0  0  0  0  0  0  0  0  0  0  0  0
  155.1266  140.3837  183.1006 C   0  0  0  0  0  0  0  0  0  0  0  0
  156.2427  139.8337  183.6528 C   0  0  0  0  0  0  0  0  0  0  0  0
  157.4085  140.5886  183.7923 C   0  0  0  0  0  0  0  0  0  0  0  0
  158.7944  139.7130  184.4292 Cl  0  0  0  0  0  0  0  0  0  0  0  0
  157.4898  141.8776  183.3985 C   0  0  0  0  0  0  0  0  0  0  0  0
  156.3051  142.4161  182.8255 C   0  0  0  0  0  0  0  0  0  0  0  0
  156.4030  144.0849  182.3065 Cl  0  0  0  0  0  0  0  0  0  0  0  0
  155.1635  141.6785  182.6870 C   0  0  0  0  0  0  0  0  0  0  0  0
  158.5835  142.6744  183.5131 O   0  0  0  0  0  0  0  0  0  0  0  0
  159.8673  142.2937  183.7114 C   0  0  0  0  0  0  0  0  0  0  0  0
  160.7398  142.7392  184.8033 C   0  0  0  0  0  0  0  0  0  0  0  0
  160.8886  144.2812  184.6035 C   0  0  0  0  0  0  0  0  0  0  0  0
  162.1633  142.2289  184.7717 C   0  0  0  0  0  0  0  0  0  0  0  0
  160.1363  142.5162  186.1469 C   0  0  0  0  0  0  0  0  0  0  0  0
  151.8828  136.4171  185.5617 C   0  0  0  0  0  0  0  0  0  0  0  0
  151.5394  135.2399  185.9595 O   0  0  0  0  0  0  0  0  0  0  0  0
  152.2504  136.5207  184.2393 N   0  0  0  0  0  0  0  0  0  0  0  0
  152.2309  135.6424  183.6188 H   0  0  0  0  0  0  0  0  0  0  0  0
  151.8368  137.4755  186.5577 C   0  0  0  0  0  0  0  0  0  0  0  0
  155.9794  137.3374  190.9277 C   0  0  0  0  0  0  0  0  0  0  0  0
  154.6469  136.9776  190.4396 N   0  0  0  0  0  0  0  0  0  0  0  0
  154.3265  137.3721  189.2000 C   0  0  0  0  0  0  0  0  0  0  0  0
  154.9818  138.0665  188.2034 C   0  0  0  0  0  0  0  0  0  0  0  0
  154.1533  138.1555  187.1578 N   0  0  0  0  0  0  0  0  0  0  0  0
  152.9935  137.5531  187.4293 N   0  0  0  0  0  0  0  0  0  0  0  0
  153.0706  137.0598  188.6795 C   0  0  0  0  0  0  0  0  0  0  0  0
  152.2388  136.3430  189.5209 C   0  0  0  0  0  0  0  0  0  0  0  0
  151.0927  136.0144  189.1360 O   0  0  0  0  0  0  0  0  0  0  0  0
  152.5695  135.9500  190.7675 N   0  0  0  0  0  0  0  0  0  0  0  0
  151.6456  135.1974  191.6040 C   0  0  0  0  0  0  0  0  0  0  0  0
  153.7908  136.2793  191.2164 C   0  0  0  0  0  0  0  0  0  0  0  0
  154.1806  135.9461  192.3829 O   0  0  0  0  0  0  0  0  0  0  0  0
 25 26  1  0  0  0
 26 27  1  0  0  0
 27 28  1  0  0  0
 28 29  2  0  0  0
 29 30  1  0  0  0
 30 24  1  0  0  0
 24 20  1  0  0  0
 20 21  2  0  0  0
 20 22  1  0  0  0
 22  1  1  0  0  0
  1  2  2  0  0  0
  2  3  1  0  0  0
  3  4  2  0  0  0
  4  5  1  0  0  0
  3  6  1  0  0  0
  6  7  2  0  0  0
  7  8  1  0  0  0
  8  9  1  0  0  0
  8 10  2  0  0  0
 10 14  1  0  0  0
 14 15  1  0  0  0
 15 16  1  0  0  0
 16 17  1  0  0  0
 16 18  1  0  0  0
 16 19  1  0  0  0
 10 11  1  0  0  0
 11 12  1  0  0  0
 11 13  2  0  0  0
 30 31  1  0  0  0
 31 32  1  0  0  0
 32 33  2  0  0  0
 32 34  1  0  0  0
 34 35  1  0  0  0
 34 36  1  0  0  0
 36 37  2  0  0  0
 36 26  1  0  0  0
 31 27  2  0  0  0
  5  1  1  0  0  0
 13  6  1  0  0  0
 22 23  1  0  0  0
M  END
> <minimizedAffinity>
-8.52781

> <CNNscore>
0.4635797143

> <CNNaffinity>
7.0564012527

> <CNN_VS>
3.2712044716

> <CNNaffinity_variance>
0.1647664309

$$$$
[H]c1sc(N([H])C(=O)C([H])([H])n2nc([H])c3c2c(=O)n(C([H])([H])[H])c(=O)n3C([H])([H])[H])nc1-c1c([H])c(Cl)c(OC([H])([H])C(C([H])([H])[H])(C([H])([H])[H])C([H])([H])[H])c(Cl)c1[H]


 37 40  0  0  0  0  0  0  0  0999 V2000
  152.1467  136.9546  185.9751 C   0  0  0  0  0  0  0  0  0  0  0  0
  152.8429  137.9118  185.4295 N   0  0  0  0  0  0  0  0  0  0  0  0
  154.1304  137.9886  185.5319 C   0  0  0  0  0  0  0  0  0  0  0  0
  154.7528  136.9986  186.2554 C   0  0  0  0  0  0  0  0  0  0  0  0
  153.4279  136.0364  186.7297 S   0  0  0  0  0  0  0  0  0  0  0  0
  154.8829  139.1091  184.8859 C   0  0  0  0  0  0  0  0  0  0  0  0
  154.2150  139.9646  184.0644 C   0  0  0  0  0  0  0  0  0  0  0  0
  154.8866  141.0203  183.4455 C   0  0  0  0  0  0  0  0  0  0  0  0
  153.8718  142.0975  182.4953 Cl  0  0  0  0  0  0  0  0  0  0  0  0
  156.2065  141.2436  183.6221 C   0  0  0  0  0  0  0  0  0  0  0  0
  156.8690  140.3306  184.4875 C   0  0  0  0  0  0  0  0  0  0  0  0
  158.5794  140.6157  184.7271 Cl  0  0  0  0  0  0  0  0  0  0  0  0
  156.2133  139.2974  185.0951 C   0  0  0  0  0  0  0  0  0  0  0  0
  156.9263  142.2404  183.0455 O   0  0  0  0  0  0  0  0  0  0  0  0
  157.1233  142.4612  181.7246 C   0  0  0  0  0  0  0  0  0  0  0  0
  158.4224  142.6098  181.0595 C   0  0  0  0  0  0  0  0  0  0  0  0
  158.8477  144.0898  181.3209 C   0  0  0  0  0  0  0  0  0  0  0  0
  158.4184  142.4929  179.5515 C   0  0  0  0  0  0  0  0  0  0  0  0
  159.4713  141.7302  181.6472 C   0  0  0  0  0  0  0  0  0  0  0  0
  150.0697  135.9505  185.0479 C   0  0  0  0  0  0  0  0  0  0  0  0
  148.8155  135.7584  185.2758 O   0  0  0  0  0  0  0  0  0  0  0  0
  150.7638  136.6169  186.0321 N   0  0  0  0  0  0  0  0  0  0  0  0
  150.2437  136.9328  186.9190 H   0  0  0  0  0  0  0  0  0  0  0  0
  150.5836  135.4406  183.7869 C   0  0  0  0  0  0  0  0  0  0  0  0
  147.9352  137.6228  178.8370 C   0  0  0  0  0  0  0  0  0  0  0  0
  149.0298  137.6697  179.8082 N   0  0  0  0  0  0  0  0  0  0  0  0
  149.0071  136.7627  180.7939 C   0  0  0  0  0  0  0  0  0  0  0  0
  148.1642  135.7256  181.1385 C   0  0  0  0  0  0  0  0  0  0  0  0
  148.6602  135.1466  182.2369 N   0  0  0  0  0  0  0  0  0  0  0  0
  149.7826  135.7588  182.6203 N   0  0  0  0  0  0  0  0  0  0  0  0
  150.0226  136.7576  181.7502 C   0  0  0  0  0  0  0  0  0  0  0  0
  150.9986  137.7244  181.5876 C   0  0  0  0  0  0  0  0  0  0  0  0
  151.9523  137.7925  182.3972 O   0  0  0  0  0  0  0  0  0  0  0  0
  151.0135  138.6337  180.5922 N   0  0  0  0  0  0  0  0  0  0  0  0
  152.0712  139.6276  180.4781 C   0  0  0  0  0  0  0  0  0  0  0  0
  150.0106  138.5921  179.7012 C   0  0  0  0  0  0  0  0  0  0  0  0
  149.9507  139.4160  178.7310 O   0  0  0  0  0  0  0  0  0  0  0  0
 25 26  1  0  0  0
 26 27  1  0  0  0
 27 28  1  0  0  0
 28 29  2  0  0  0
 29 30  1  0  0  0
 30 24  1  0  0  0
 24 20  1  0  0  0
 20 21  2  0  0  0
 20 22  1  0  0  0
 22  1  1  0  0  0
  1  2  2  0  0  0
  2  3  1  0  0  0
  3  4  2  0  0  0
  4  5  1  0  0  0
  3  6  1  0  0  0
  6  7  2  0  0  0
  7  8  1  0  0  0
  8  9  1  0  0  0
  8 10  2  0  0  0
 10 14  1  0  0  0
 14 15  1  0  0  0
 15 16  1  0  0  0
 16 17  1  0  0  0
 16 18  1  0  0  0
 16 19  1  0  0  0
 10 11  1  0  0  0
 11 12  1  0  0  0
 11 13  2  0  0  0
 30 31  1  0  0  0
 31 32  1  0  0  0
 32 33  2  0  0  0
 32 34  1  0  0  0
 34 35  1  0  0  0
 34 36  1  0  0  0
 36 37  2  0  0  0
 36 26  1  0  0  0
 31 27  2  0  0  0
  5  1  1  0  0  0
 13  6  1  0  0  0
 22 23  1  0  0  0
M  END
> <minimizedAffinity>
-7.48772

> <CNNscore>
0.4387907982

> <CNNaffinity>
7.0138411522

> <CNN_VS>
3.0776090622

> <CNNaffinity_variance>
0.2375004739

$$$$
[H]c1sc(N([H])C(=O)C([H])([H])n2nc([H])c3c2c(=O)n(C([H])([H])[H])c(=O)n3C([H])([H])[H])nc1-c1c([H])c(Cl)c(OC([H])([H])C(C([H])([H])[H])(C([H])([H])[H])C([H])([H])[H])c(Cl)c1[H]


 37 40  0  0  0  0  0  0  0  0999 V2000
  149.9195  139.1779  181.4630 C   0  0  0  0  0  0  0  0  0  0  0  0
  150.9870  139.5894  182.0873 N   0  0  0  0  0  0  0  0  0  0  0  0
  152.1382  139.7035  181.5076 C   0  0  0  0  0  0  0  0  0  0  0  0
  152.1953  139.3662  180.1757 C   0  0  0  0  0  0  0  0  0  0  0  0
  150.5815  138.9114  179.8679 S   0  0  0  0  0  0  0  0  0  0  0  0
  153.3338  140.1810  182.2701 C   0  0  0  0  0  0  0  0  0  0  0  0
  153.8547  141.4050  181.9807 C   0  0  0  0  0  0  0  0  0  0  0  0
  154.9697  141.8809  182.6727 C   0  0  0  0  0  0  0  0  0  0  0  0
  155.4650  143.5166  182.2578 Cl  0  0  0  0  0  0  0  0  0  0  0  0
  155.5802  141.1678  183.6432 C   0  0  0  0  0  0  0  0  0  0  0  0
  155.0067  139.8960  183.9180 C   0  0  0  0  0  0  0  0  0  0  0  0
  155.7881  138.9668  185.1789 Cl  0  0  0  0  0  0  0  0  0  0  0  0
  153.9148  139.4289  183.2427 C   0  0  0  0  0  0  0  0  0  0  0  0
  156.6720  141.5609  184.3485 O   0  0  0  0  0  0  0  0  0  0  0  0
  157.9289  141.7578  183.8859 C   0  0  0  0  0  0  0  0  0  0  0  0
  158.7643  140.7607  183.2078 C   0  0  0  0  0  0  0  0  0  0  0  0
  160.1385  141.4670  182.9793 C   0  0  0  0  0  0  0  0  0  0  0  0
  158.3268  140.3567  181.8174 C   0  0  0  0  0  0  0  0  0  0  0  0
  159.0126  139.5549  184.0466 C   0  0  0  0  0  0  0  0  0  0  0  0
  148.0818  137.8424  182.4734 C   0  0  0  0  0  0  0  0  0  0  0  0
  146.8115  137.8191  182.6923 O   0  0  0  0  0  0  0  0  0  0  0  0
  148.5590  138.9584  181.8245 N   0  0  0  0  0  0  0  0  0  0  0  0
  147.8713  139.7359  181.5427 H   0  0  0  0  0  0  0  0  0  0  0  0
  148.8395  136.6919  182.9386 C   0  0  0  0  0  0  0  0  0  0  0  0
  152.3224  136.9130  187.8476 C   0  0  0  0  0  0  0  0  0  0  0  0
  152.1767  136.6562  186.4137 N   0  0  0  0  0  0  0  0  0  0  0  0
  150.9578  136.8305  185.8857 C   0  0  0  0  0  0  0  0  0  0  0  0
  149.7325  137.2252  186.3834 C   0  0  0  0  0  0  0  0  0  0  0  0
  148.8624  137.2252  185.3683 N   0  0  0  0  0  0  0  0  0  0  0  0
  149.4645  136.8491  184.2380 N   0  0  0  0  0  0  0  0  0  0  0  0
  150.7561  136.6005  184.5247 C   0  0  0  0  0  0  0  0  0  0  0  0
  151.8748  136.1999  183.8163 C   0  0  0  0  0  0  0  0  0  0  0  0
  151.7887  135.9744  182.5869 O   0  0  0  0  0  0  0  0  0  0  0  0
  153.0981  136.0268  184.3561 N   0  0  0  0  0  0  0  0  0  0  0  0
  154.2362  135.6013  183.5539 C   0  0  0  0  0  0  0  0  0  0  0  0
  153.2332  136.2617  185.6706 C   0  0  0  0  0  0  0  0  0  0  0  0
  154.3555  136.1213  186.2574 O   0  0  0  0  0  0  0  0  0  0  0  0
 25 26  1  0  0  0
 26 27  1  0  0  0
 27 28  1  0  0  0
 28 29  2  0  0  0
 29 30  1  0  0  0
 30 24  1  0  0  0
 24 20  1  0  0  0
 20 21  2  0  0  0
 20 22  1  0  0  0
 22  1  1  0  0  0
  1  2  2  0  0  0
  2  3  1  0  0  0
  3  4  2  0  0  0
  4  5  1  0  0  0
  3  6  1  0  0  0
  6  7  2  0  0  0
  7  8  1  0  0  0
  8  9  1  0  0  0
  8 10  2  0  0  0
 10 14  1  0  0  0
 14 15  1  0  0  0
 15 16  1  0  0  0
 16 17  1  0  0  0
 16 18  1  0  0  0
 16 19  1  0  0  0
 10 11  1  0  0  0
 11 12  1  0  0  0
 11 13  2  0  0  0
 30 31  1  0  0  0
 31 32  1  0  0  0
 32 33  2  0  0  0
 32 34  1  0  0  0
 34 35  1  0  0  0
 34 36  1  0  0  0
 36 37  2  0  0  0
 36 26  1  0  0  0
 31 27  2  0  0  0
  5  1  1  0  0  0
 13  6  1  0  0  0
 22 23  1  0  0  0
M  END
> <minimizedAffinity>
-7.52417

> <CNNscore>
0.4380478859

> <CNNaffinity>
6.8235473633

> <CNN_VS>
2.9890406132

> <CNNaffinity_variance>
0.5786494017

$$$$
[H]c1sc(N([H])C(=O)C([H])([H])n2nc([H])c3c2c(=O)n(C([H])([H])[H])c(=O)n3C([H])([H])[H])nc1-c1c([H])c(Cl)c(OC([H])([H])C(C([H])([H])[H])(C([H])([H])[H])C([H])([H])[H])c(Cl)c1[H]


 37 40  0  0  0  0  0  0  0  0999 V2000
  152.5427  136.1706  184.7943 C   0  0  0  0  0  0  0  0  0  0  0  0
  153.3831  137.1623  184.6996 N   0  0  0  0  0  0  0  0  0  0  0  0
  153.2570  138.1072  183.8247 C   0  0  0  0  0  0  0  0  0  0  0  0
  152.1770  138.0246  182.9774 C   0  0  0  0  0  0  0  0  0  0  0  0
  151.4305  136.5886  183.5128 S   0  0  0  0  0  0  0  0  0  0  0  0
  154.2505  139.2242  183.7577 C   0  0  0  0  0  0  0  0  0  0  0  0
  153.8660  140.4176  183.2276 C   0  0  0  0  0  0  0  0  0  0  0  0
  154.7676  141.4804  183.1497 C   0  0  0  0  0  0  0  0  0  0  0  0
  154.0975  142.9857  182.5347 Cl  0  0  0  0  0  0  0  0  0  0  0  0
  156.0425  141.3837  183.5838 C   0  0  0  0  0  0  0  0  0  0  0  0
  156.4062  140.1232  184.1319 C   0  0  0  0  0  0  0  0  0  0  0  0
  158.0556  139.9903  184.7026 Cl  0  0  0  0  0  0  0  0  0  0  0  0
  155.5249  139.0821  184.2101 C   0  0  0  0  0  0  0  0  0  0  0  0
  156.9756  142.3689  183.5296 O   0  0  0  0  0  0  0  0  0  0  0  0
  157.5341  142.9196  182.4264 C   0  0  0  0  0  0  0  0  0  0  0  0
  158.5965  142.3237  181.6088 C   0  0  0  0  0  0  0  0  0  0  0  0
  159.0274  143.4498  180.6158 C   0  0  0  0  0  0  0  0  0  0  0  0
  158.1845  141.1813  180.7072 C   0  0  0  0  0  0  0  0  0  0  0  0
  159.7947  141.9485  182.4104 C   0  0  0  0  0  0  0  0  0  0  0  0
  151.6229  134.9319  186.7440 C   0  0  0  0  0  0  0  0  0  0  0  0
  151.6717  133.8133  187.3830 O   0  0  0  0  0  0  0  0  0  0  0  0
  152.4249  135.0221  185.6290 N   0  0  0  0  0  0  0  0  0  0  0  0
  153.0327  134.1797  185.3502 H   0  0  0  0  0  0  0  0  0  0  0  0
  150.7315  135.9464  187.2829 C   0  0  0  0  0  0  0  0  0  0  0  0
  149.9274  135.3518  193.2224 C   0  0  0  0  0  0  0  0  0  0  0  0
  150.7546  135.7946  192.0985 N   0  0  0  0  0  0  0  0  0  0  0  0
  150.2593  135.6066  190.8680 C   0  0  0  0  0  0  0  0  0  0  0  0
  149.0887  135.0768  190.3641 C   0  0  0  0  0  0  0  0  0  0  0  0
  149.1445  135.1627  189.0310 N   0  0  0  0  0  0  0  0  0  0  0  0
  150.2943  135.7218  188.6475 N   0  0  0  0  0  0  0  0  0  0  0  0
  151.0014  136.0072  189.7569 C   0  0  0  0  0  0  0  0  0  0  0  0
  152.2268  136.5854  190.0363 C   0  0  0  0  0  0  0  0  0  0  0  0
  152.9601  136.9795  189.1001 O   0  0  0  0  0  0  0  0  0  0  0  0
  152.7176  136.7706  191.2783 N   0  0  0  0  0  0  0  0  0  0  0  0
  154.0178  137.3855  191.5044 C   0  0  0  0  0  0  0  0  0  0  0  0
  151.9604  136.3650  192.3096 C   0  0  0  0  0  0  0  0  0  0  0  0
  152.3516  136.5037  193.5144 O   0  0  0  0  0  0  0  0  0  0  0  0
 25 26  1  0  0  0
 26 27  1  0  0  0
 27 28  1  0  0  0
 28 29  2  0  0  0
 29 30  1  0  0  0
 30 24  1  0  0  0
 24 20  1  0  0  0
 20 21  2  0  0  0
 20 22  1  0  0  0
 22  1  1  0  0  0
  1  2  2  0  0  0
  2  3  1  0  0  0
  3  4  2  0  0  0
  4  5  1  0  0  0
  3  6  1  0  0  0
  6  7  2  0  0  0
  7  8  1  0  0  0
  8  9  1  0  0  0
  8 10  2  0  0  0
 10 14  1  0  0  0
 14 15  1  0  0  0
 15 16  1  0  0  0
 16 17  1  0  0  0
 16 18  1  0  0  0
 16 19  1  0  0  0
 10 11  1  0  0  0
 11 12  1  0  0  0
 11 13  2  0  0  0
 30 31  1  0  0  0
 31 32  1  0  0  0
 32 33  2  0  0  0
 32 34  1  0  0  0
 34 35  1  0  0  0
 34 36  1  0  0  0
 36 37  2  0  0  0
 36 26  1  0  0  0
 31 27  2  0  0  0
  5  1  1  0  0  0
 13  6  1  0  0  0
 22 23  1  0  0  0
M  END
> <minimizedAffinity>
-7.67816

> <CNNscore>
0.4365744889

> <CNNaffinity>
6.7959465981

> <CNN_VS>
2.9669368267

> <CNNaffinity_variance>
0.3290956616

$$$$
[H]c1sc(N([H])C(=O)C([H])([H])c2c(C([H])([H])[H])oc3c2c(=O)n(C([H])([H])[H])c(=O)n3C([H])([H])[H])nc1-c1c([H])c([H])c(OC([H])([H])C(F)(F)F)c(Cl)c1[H]


 37 40  0  0  0  0  0  0  0  0999 V2000
  151.6041  139.7370  180.5990 C   0  0  0  0  0  0  0  0  0  0  0  0
  151.2139  139.8248  179.2750 O   0  0  0  0  0  0  0  0  0  0  0  0
  152.7926  140.3391  180.7617 N   0  0  0  0  0  0  0  0  0  0  0  0
  153.2316  140.7820  179.8436 H   0  0  0  0  0  0  0  0  0  0  0  0
  153.6619  140.5689  181.8620 C   0  0  0  0  0  0  0  0  0  0  0  0
  153.7617  139.7747  182.9427 N   0  0  0  0  0  0  0  0  0  0  0  0
  154.5809  140.0612  183.8883 C   0  0  0  0  0  0  0  0  0  0  0  0
  155.3436  141.1922  183.7598 C   0  0  0  0  0  0  0  0  0  0  0  0
  154.8037  141.7629  182.2516 S   0  0  0  0  0  0  0  0  0  0  0  0
  154.6920  139.1947  185.0975 C   0  0  0  0  0  0  0  0  0  0  0  0
  155.9184  138.8859  185.6148 C   0  0  0  0  0  0  0  0  0  0  0  0
  156.0228  138.0797  186.7554 C   0  0  0  0  0  0  0  0  0  0  0  0
  154.9261  137.5753  187.3887 C   0  0  0  0  0  0  0  0  0  0  0  0
  153.6890  137.8829  186.8690 C   0  0  0  0  0  0  0  0  0  0  0  0
  152.2504  137.2471  187.6633 Cl  0  0  0  0  0  0  0  0  0  0  0  0
  153.5843  138.6819  185.7392 C   0  0  0  0  0  0  0  0  0  0  0  0
  154.9801  136.7742  188.5182 O   0  0  0  0  0  0  0  0  0  0  0  0
  155.8416  136.9665  189.6109 C   0  0  0  0  0  0  0  0  0  0  0  0
  155.0930  137.9222  190.5543 C   0  0  0  0  0  0  0  0  0  0  0  0
  154.6359  139.0153  189.8734 F   0  0  0  0  0  0  0  0  0  0  0  0
  154.1000  137.1748  191.1599 F   0  0  0  0  0  0  0  0  0  0  0  0
  156.0411  138.2487  191.5293 F   0  0  0  0  0  0  0  0  0  0  0  0
  150.5724  139.0230  181.3019 C   0  0  0  0  0  0  0  0  0  0  0  0
  148.0165  138.4500  179.5123 C   0  0  0  0  0  0  0  0  0  0  0  0
  148.9422  137.4665  180.1542 C   0  0  0  0  0  0  0  0  0  0  0  0
  148.8246  136.1817  180.0928 O   0  0  0  0  0  0  0  0  0  0  0  0
  149.7651  135.5393  180.7410 C   0  0  0  0  0  0  0  0  0  0  0  0
  150.0578  134.2408  180.9594 N   0  0  0  0  0  0  0  0  0  0  0  0
  149.1983  133.2417  180.3620 C   0  0  0  0  0  0  0  0  0  0  0  0
  151.1188  133.8566  181.6911 C   0  0  0  0  0  0  0  0  0  0  0  0
  151.3236  132.6072  181.8486 O   0  0  0  0  0  0  0  0  0  0  0  0
  151.9363  134.7627  182.2374 N   0  0  0  0  0  0  0  0  0  0  0  0
  153.0632  134.3256  183.0338 C   0  0  0  0  0  0  0  0  0  0  0  0
  151.6714  136.0749  182.0356 C   0  0  0  0  0  0  0  0  0  0  0  0
  152.4315  136.9065  182.5424 O   0  0  0  0  0  0  0  0  0  0  0  0
  150.5981  136.5043  181.2945 C   0  0  0  0  0  0  0  0  0  0  0  0
  150.0637  137.7364  180.9118 C   0  0  0  0  0  0  0  0  0  0  0  0
 24 25  1  0  0  0
 25 26  1  0  0  0
 26 27  1  0  0  0
 27 28  1  0  0  0
 28 29  1  0  0  0
 28 30  1  0  0  0
 30 31  2  0  0  0
 30 32  1  0  0  0
 32 33  1  0  0  0
 32 34  1  0  0  0
 34 35  2  0  0  0
 34 36  1  0  0  0
 36 37  1  0  0  0
 37 23  1  0  0  0
 23  1  1  0  0  0
  1  2  2  0  0  0
  1  3  1  0  0  0
  3  5  1  0  0  0
  5  6  2  0  0  0
  6  7  1  0  0  0
  7  8  2  0  0  0
  8  9  1  0  0  0
  7 10  1  0  0  0
 10 11  2  0  0  0
 11 12  1  0  0  0
 12 13  2  0  0  0
 13 17  1  0  0  0
 17 18  1  0  0  0
 18 19  1  0  0  0
 19 20  1  0  0  0
 19 21  1  0  0  0
 19 22  1  0  0  0
 13 14  1  0  0  0
 14 15  1  0  0  0
 14 16  2  0  0  0
 37 25  2  0  0  0
  9  5  1  0  0  0
 16 10  1  0  0  0
 36 27  2  0  0  0
  3  4  1  0  0  0
M  END
> <minimizedAffinity>
-7.06477

> <CNNscore>
0.3995606899

> <CNNaffinity>
6.1978249550

> <CNN_VS>
2.4764072895

> <CNNaffinity_variance>
0.4314490855

$$$$
[H]c1sc(N([H])C(=O)C([H])([H])c2c(C([H])([H])[H])oc3c2c(=O)n(C([H])([H])[H])c(=O)n3C([H])([H])[H])nc1-c1c([H])c([H])c(OC([H])([H])C(F)(F)F)c(Cl)c1[H]


 37 40  0  0  0  0  0  0  0  0999 V2000
  152.7621  137.1493  185.3118 C   0  0  0  0  0  0  0  0  0  0  0  0
  152.5266  135.7865  185.3048 O   0  0  0  0  0  0  0  0  0  0  0  0
  153.3780  137.5084  184.1746 N   0  0  0  0  0  0  0  0  0  0  0  0
  153.5796  136.6825  183.4610 H   0  0  0  0  0  0  0  0  0  0  0  0
  153.8486  138.7329  183.6285 C   0  0  0  0  0  0  0  0  0  0  0  0
  155.0418  139.2894  183.9024 N   0  0  0  0  0  0  0  0  0  0  0  0
  155.3836  140.3994  183.3563 C   0  0  0  0  0  0  0  0  0  0  0  0
  154.5005  140.9917  182.4923 C   0  0  0  0  0  0  0  0  0  0  0  0
  153.2200  139.8738  182.5402 S   0  0  0  0  0  0  0  0  0  0  0  0
  156.6995  141.0327  183.6613 C   0  0  0  0  0  0  0  0  0  0  0  0
  157.4707  140.5621  184.6864 C   0  0  0  0  0  0  0  0  0  0  0  0
  158.7102  141.1507  184.9674 C   0  0  0  0  0  0  0  0  0  0  0  0
  159.1938  142.2007  184.2452 C   0  0  0  0  0  0  0  0  0  0  0  0
  158.4184  142.6786  183.2128 C   0  0  0  0  0  0  0  0  0  0  0  0
  159.0140  144.0351  182.2589 Cl  0  0  0  0  0  0  0  0  0  0  0  0
  157.1904  142.0960  182.9332 C   0  0  0  0  0  0  0  0  0  0  0  0
  160.4126  142.8147  184.4860 O   0  0  0  0  0  0  0  0  0  0  0  0
  161.5517  142.1826  185.0114 C   0  0  0  0  0  0  0  0  0  0  0  0
  161.8358  142.8989  186.3418 C   0  0  0  0  0  0  0  0  0  0  0  0
  163.0944  142.6095  186.7885 F   0  0  0  0  0  0  0  0  0  0  0  0
  161.6086  144.2440  186.1174 F   0  0  0  0  0  0  0  0  0  0  0  0
  160.8354  142.4307  187.1998 F   0  0  0  0  0  0  0  0  0  0  0  0
  152.2504  137.6647  186.5531 C   0  0  0  0  0  0  0  0  0  0  0  0
  149.9095  135.8758  187.7294 C   0  0  0  0  0  0  0  0  0  0  0  0
  151.2419  136.1807  188.3359 C   0  0  0  0  0  0  0  0  0  0  0  0
  151.6505  135.7623  189.4875 O   0  0  0  0  0  0  0  0  0  0  0  0
  152.8581  136.1693  189.7930 C   0  0  0  0  0  0  0  0  0  0  0  0
  153.6844  136.0011  190.8459 N   0  0  0  0  0  0  0  0  0  0  0  0
  153.2267  135.1754  191.9426 C   0  0  0  0  0  0  0  0  0  0  0  0
  154.9081  136.5568  190.8950 C   0  0  0  0  0  0  0  0  0  0  0  0
  155.6259  136.3472  191.9286 O   0  0  0  0  0  0  0  0  0  0  0  0
  155.3581  137.3086  189.8849 N   0  0  0  0  0  0  0  0  0  0  0  0
  156.6726  137.9092  189.9669 C   0  0  0  0  0  0  0  0  0  0  0  0
  154.5538  137.4956  188.8121 C   0  0  0  0  0  0  0  0  0  0  0  0
  154.9766  138.1904  187.8822 O   0  0  0  0  0  0  0  0  0  0  0  0
  153.2992  136.9440  188.7269 C   0  0  0  0  0  0  0  0  0  0  0  0
  152.2573  136.9443  187.7971 C   0  0  0  0  0  0  0  0  0  0  0  0
 24 25  1  0  0  0
 25 26  1  0  0  0
 26 27  1  0  0  0
 27 28  1  0  0  0
 28 29  1  0  0  0
 28 30  1  0  0  0
 30 31  2  0  0  0
 30 32  1  0  0  0
 32 33  1  0  0  0
 32 34  1  0  0  0
 34 35  2  0  0  0
 34 36  1  0  0  0
 36 37  1  0  0  0
 37 23  1  0  0  0
 23  1  1  0  0  0
  1  2  2  0  0  0
  1  3  1  0  0  0
  3  5  1  0  0  0
  5  6  2  0  0  0
  6  7  1  0  0  0
  7  8  2  0  0  0
  8  9  1  0  0  0
  7 10  1  0  0  0
 10 11  2  0  0  0
 11 12  1  0  0  0
 12 13  2  0  0  0
 13 17  1  0  0  0
 17 18  1  0  0  0
 18 19  1  0  0  0
 19 20  1  0  0  0
 19 21  1  0  0  0
 19 22  1  0  0  0
 13 14  1  0  0  0
 14 15  1  0  0  0
 14 16  2  0  0  0
 37 25  2  0  0  0
  9  5  1  0  0  0
 16 10  1  0  0  0
 36 27  2  0  0  0
  3  4  1  0  0  0
M  END
> <minimizedAffinity>
-8.83432

> <CNNscore>
0.3931967020

> <CNNaffinity>
6.7105903625

> <CNN_VS>
2.6385819912

> <CNNaffinity_variance>
0.1711606234

$$$$
[H]c1sc(N([H])C(=O)C([H])([H])c2c(C([H])([H])[H])oc3c2c(=O)n(C([H])([H])[H])c(=O)n3C([H])([H])[H])nc1-c1c([H])c([H])c(OC([H])([H])C(F)(F)F)c(Cl)c1[H]


 37 40  0  0  0  0  0  0  0  0999 V2000
  153.1788  137.4490  185.6795 C   0  0  0  0  0  0  0  0  0  0  0  0
  152.7094  136.1489  185.7293 O   0  0  0  0  0  0  0  0  0  0  0  0
  153.5060  137.7644  184.4166 N   0  0  0  0  0  0  0  0  0  0  0  0
  153.3476  136.9598  183.6686 H   0  0  0  0  0  0  0  0  0  0  0  0
  154.0174  138.9209  183.7685 C   0  0  0  0  0  0  0  0  0  0  0  0
  155.2291  139.4580  183.9961 N   0  0  0  0  0  0  0  0  0  0  0  0
  155.6080  140.5049  183.3575 C   0  0  0  0  0  0  0  0  0  0  0  0
  154.7446  141.0506  182.4443 C   0  0  0  0  0  0  0  0  0  0  0  0
  153.4268  139.9851  182.5853 S   0  0  0  0  0  0  0  0  0  0  0  0
  156.9449  141.1169  183.6097 C   0  0  0  0  0  0  0  0  0  0  0  0
  157.8331  140.5112  184.4529 C   0  0  0  0  0  0  0  0  0  0  0  0
  159.0918  141.0808  184.6831 C   0  0  0  0  0  0  0  0  0  0  0  0
  159.4801  142.2441  184.0881 C   0  0  0  0  0  0  0  0  0  0  0  0
  158.5868  142.8581  183.2393 C   0  0  0  0  0  0  0  0  0  0  0  0
  159.0569  144.3635  182.4535 Cl  0  0  0  0  0  0  0  0  0  0  0  0
  157.3396  142.2944  183.0102 C   0  0  0  0  0  0  0  0  0  0  0  0
  160.7134  142.8447  184.2852 O   0  0  0  0  0  0  0  0  0  0  0  0
  161.8235  142.2401  184.8978 C   0  0  0  0  0  0  0  0  0  0  0  0
  161.9290  142.8963  186.2842 C   0  0  0  0  0  0  0  0  0  0  0  0
  163.1531  142.6555  186.8420 F   0  0  0  0  0  0  0  0  0  0  0  0
  161.6408  144.2365  186.1048 F   0  0  0  0  0  0  0  0  0  0  0  0
  160.8802  142.3241  187.0113 F   0  0  0  0  0  0  0  0  0  0  0  0
  153.1366  137.9698  187.0194 C   0  0  0  0  0  0  0  0  0  0  0  0
  156.2863  138.3318  186.9091 C   0  0  0  0  0  0  0  0  0  0  0  0
  155.4533  137.7645  188.0137 C   0  0  0  0  0  0  0  0  0  0  0  0
  155.9101  137.2968  189.1276 O   0  0  0  0  0  0  0  0  0  0  0  0
  154.9744  136.8559  189.9322 C   0  0  0  0  0  0  0  0  0  0  0  0
  154.9562  136.2972  191.1599 N   0  0  0  0  0  0  0  0  0  0  0  0
  156.2196  136.1163  191.8418 C   0  0  0  0  0  0  0  0  0  0  0  0
  153.8132  135.9258  191.7635 C   0  0  0  0  0  0  0  0  0  0  0  0
  153.8854  135.4046  192.9257 O   0  0  0  0  0  0  0  0  0  0  0  0
  152.6333  136.1002  191.1590 N   0  0  0  0  0  0  0  0  0  0  0  0
  151.4176  135.6786  191.8219 C   0  0  0  0  0  0  0  0  0  0  0  0
  152.6167  136.6602  189.9266 C   0  0  0  0  0  0  0  0  0  0  0  0
  151.5230  136.8192  189.3746 O   0  0  0  0  0  0  0  0  0  0  0  0
  153.7630  137.0518  189.2798 C   0  0  0  0  0  0  0  0  0  0  0  0
  154.0798  137.6360  188.0516 C   0  0  0  0  0  0  0  0  0  0  0  0
 24 25  1  0  0  0
 25 26  1  0  0  0
 26 27  1  0  0  0
 27 28  1  0  0  0
 28 29  1  0  0  0
 28 30  1  0  0  0
 30 31  2  0  0  0
 30 32  1  0  0  0
 32 33  1  0  0  0
 32 34  1  0  0  0
 34 35  2  0  0  0
 34 36  1  0  0  0
 36 37  1  0  0  0
 37 23  1  0  0  0
 23  1  1  0  0  0
  1  2  2  0  0  0
  1  3  1  0  0  0
  3  5  1  0  0  0
  5  6  2  0  0  0
  6  7  1  0  0  0
  7  8  2  0  0  0
  8  9  1  0  0  0
  7 10  1  0  0  0
 10 11  2  0  0  0
 11 12  1  0  0  0
 12 13  2  0  0  0
 13 17  1  0  0  0
 17 18  1  0  0  0
 18 19  1  0  0  0
 19 20  1  0  0  0
 19 21  1  0  0  0
 19 22  1  0  0  0
 13 14  1  0  0  0
 14 15  1  0  0  0
 14 16  2  0  0  0
 37 25  2  0  0  0
  9  5  1  0  0  0
 16 10  1  0  0  0
 36 27  2  0  0  0
  3  4  1  0  0  0
M  END
> <minimizedAffinity>
-8.90442

> <CNNscore>
0.3524520397

> <CNNaffinity>
6.7378263474

> <CNN_VS>
2.3747606277

> <CNNaffinity_variance>
0.1779491454

$$$$
[H]c1sc(N([H])C(=O)C([H])([H])c2c(C([H])([H])[H])oc3c2c(=O)n(C([H])([H])[H])c(=O)n3C([H])([H])[H])nc1-c1c([H])c([H])c(OC([H])([H])C(F)(F)F)c(Cl)c1[H]


 37 40  0  0  0  0  0  0  0  0999 V2000
  151.4320  139.1386  180.4946 C   0  0  0  0  0  0  0  0  0  0  0  0
  150.9561  139.5006  179.2475 O   0  0  0  0  0  0  0  0  0  0  0  0
  152.4145  139.9747  180.8647 N   0  0  0  0  0  0  0  0  0  0  0  0
  152.6593  140.7744  180.1350 H   0  0  0  0  0  0  0  0  0  0  0  0
  153.2488  140.1037  182.0078 C   0  0  0  0  0  0  0  0  0  0  0  0
  153.1783  139.3269  183.1033 N   0  0  0  0  0  0  0  0  0  0  0  0
  153.9792  139.5157  184.0883 C   0  0  0  0  0  0  0  0  0  0  0  0
  154.9001  140.5250  183.9860 C   0  0  0  0  0  0  0  0  0  0  0  0
  154.5263  141.1332  182.4427 S   0  0  0  0  0  0  0  0  0  0  0  0
  153.9029  138.6686  185.3139 C   0  0  0  0  0  0  0  0  0  0  0  0
  153.2079  139.0995  186.4085 C   0  0  0  0  0  0  0  0  0  0  0  0
  153.1286  138.3005  187.5561 C   0  0  0  0  0  0  0  0  0  0  0  0
  153.7307  137.0799  187.6320 C   0  0  0  0  0  0  0  0  0  0  0  0
  154.4334  136.6435  186.5315 C   0  0  0  0  0  0  0  0  0  0  0  0
  155.2239  135.0700  186.5959 Cl  0  0  0  0  0  0  0  0  0  0  0  0
  154.5123  137.4341  185.3937 C   0  0  0  0  0  0  0  0  0  0  0  0
  153.6800  136.2554  188.7447 O   0  0  0  0  0  0  0  0  0  0  0  0
  154.6253  136.2324  189.7834 C   0  0  0  0  0  0  0  0  0  0  0  0
  154.0063  137.0709  190.9137 C   0  0  0  0  0  0  0  0  0  0  0  0
  154.4066  136.6074  192.1354 F   0  0  0  0  0  0  0  0  0  0  0  0
  154.3569  138.3844  190.6624 F   0  0  0  0  0  0  0  0  0  0  0  0
  152.6279  136.9472  190.7124 F   0  0  0  0  0  0  0  0  0  0  0  0
  150.6813  137.9883  180.9207 C   0  0  0  0  0  0  0  0  0  0  0  0
  152.8091  135.9120  182.0277 C   0  0  0  0  0  0  0  0  0  0  0  0
  151.6350  136.5080  182.7365 C   0  0  0  0  0  0  0  0  0  0  0  0
  151.2818  136.2408  183.9498 O   0  0  0  0  0  0  0  0  0  0  0  0
  150.2150  136.8944  184.3395 C   0  0  0  0  0  0  0  0  0  0  0  0
  149.4906  136.9484  185.4762 N   0  0  0  0  0  0  0  0  0  0  0  0
  149.9253  136.1425  186.5967 C   0  0  0  0  0  0  0  0  0  0  0  0
  148.4038  137.7308  185.5992 C   0  0  0  0  0  0  0  0  0  0  0  0
  147.7757  137.7224  186.7096 O   0  0  0  0  0  0  0  0  0  0  0  0
  147.9948  138.4971  184.5825 N   0  0  0  0  0  0  0  0  0  0  0  0
  146.8132  139.3194  184.7331 C   0  0  0  0  0  0  0  0  0  0  0  0
  148.7012  138.4674  183.4280 C   0  0  0  0  0  0  0  0  0  0  0  0
  148.3182  139.1787  182.4933 O   0  0  0  0  0  0  0  0  0  0  0  0
  149.8155  137.6815  183.2661 C   0  0  0  0  0  0  0  0  0  0  0  0
  150.7324  137.4284  182.2437 C   0  0  0  0  0  0  0  0  0  0  0  0
 24 25  1  0  0  0
 25 26  1  0  0  0
 26 27  1  0  0  0
 27 28  1  0  0  0
 28 29  1  0  0  0
 28 30  1  0  0  0
 30 31  2  0  0  0
 30 32  1  0  0  0
 32 33  1  0  0  0
 32 34  1  0  0  0
 34 35  2  0  0  0
 34 36  1  0  0  0
 36 37  1  0  0  0
 37 23  1  0  0  0
 23  1  1  0  0  0
  1  2  2  0  0  0
  1  3  1  0  0  0
  3  5  1  0  0  0
  5  6  2  0  0  0
  6  7  1  0  0  0
  7  8  2  0  0  0
  8  9  1  0  0  0
  7 10  1  0  0  0
 10 11  2  0  0  0
 11 12  1  0  0  0
 12 13  2  0  0  0
 13 17  1  0  0  0
 17 18  1  0  0  0
 18 19  1  0  0  0
 19 20  1  0  0  0
 19 21  1  0  0  0
 19 22  1  0  0  0
 13 14  1  0  0  0
 14 15  1  0  0  0
 14 16  2  0  0  0
 37 25  2  0  0  0
  9  5  1  0  0  0
 16 10  1  0  0  0
 36 27  2  0  0  0
  3  4  1  0  0  0
M  END
> <minimizedAffinity>
-6.58104

> <CNNscore>
0.3312090635

> <CNNaffinity>
6.2576541901

> <CNN_VS>
2.0725917816

> <CNNaffinity_variance>
0.3302270770

$$$$
[H]c1sc(N([H])C(=O)C([H])([H])c2c(C([H])([H])[H])oc3c2c(=O)n(C([H])([H])[H])c(=O)n3C([H])([H])[H])nc1-c1c([H])c([H])c(OC([H])([H])C(F)(F)F)c(Cl)c1[H]


 37 40  0  0  0  0  0  0  0  0999 V2000
  156.6929  139.3514  184.9881 C   0  0  0  0  0  0  0  0  0  0  0  0
  156.8271  138.6255  186.1577 O   0  0  0  0  0  0  0  0  0  0  0  0
  155.3916  139.5097  184.7001 N   0  0  0  0  0  0  0  0  0  0  0  0
  154.6848  139.0499  185.4218 H   0  0  0  0  0  0  0  0  0  0  0  0
  154.6612  140.1527  183.6646 C   0  0  0  0  0  0  0  0  0  0  0  0
  153.5465  139.6646  183.0920 N   0  0  0  0  0  0  0  0  0  0  0  0
  152.9504  140.3204  182.1636 C   0  0  0  0  0  0  0  0  0  0  0  0
  153.4826  141.5233  181.7804 C   0  0  0  0  0  0  0  0  0  0  0  0
  154.8304  141.6115  182.8136 S   0  0  0  0  0  0  0  0  0  0  0  0
  151.7200  139.7840  181.5125 C   0  0  0  0  0  0  0  0  0  0  0  0
  151.5354  139.9230  180.1658 C   0  0  0  0  0  0  0  0  0  0  0  0
  150.3846  139.4117  179.5527 C   0  0  0  0  0  0  0  0  0  0  0  0
  149.4143  138.7650  180.2587 C   0  0  0  0  0  0  0  0  0  0  0  0
  149.5963  138.6247  181.6161 C   0  0  0  0  0  0  0  0  0  0  0  0
  148.3611  137.7937  182.5587 Cl  0  0  0  0  0  0  0  0  0  0  0  0
  150.7363  139.1306  182.2246 C   0  0  0  0  0  0  0  0  0  0  0  0
  148.2602  138.2431  179.6962 O   0  0  0  0  0  0  0  0  0  0  0  0
  148.2162  137.3403  178.6211 C   0  0  0  0  0  0  0  0  0  0  0  0
  147.9222  135.9701  179.2537 C   0  0  0  0  0  0  0  0  0  0  0  0
  147.5137  135.0760  178.3044 F   0  0  0  0  0  0  0  0  0  0  0  0
  149.0699  135.5972  179.9282 F   0  0  0  0  0  0  0  0  0  0  0  0
  146.9328  136.2405  180.2046 F   0  0  0  0  0  0  0  0  0  0  0  0
  158.0182  139.6605  184.5230 C   0  0  0  0  0  0  0  0  0  0  0  0
  159.0730  141.6326  186.7729 C   0  0  0  0  0  0  0  0  0  0  0  0
  158.9647  141.8734  185.3010 C   0  0  0  0  0  0  0  0  0  0  0  0
  159.2768  142.9733  184.7001 O   0  0  0  0  0  0  0  0  0  0  0  0
  159.0901  142.9317  183.4037 C   0  0  0  0  0  0  0  0  0  0  0  0
  159.2636  143.7998  182.3859 N   0  0  0  0  0  0  0  0  0  0  0  0
  159.7957  145.1096  182.6944 C   0  0  0  0  0  0  0  0  0  0  0  0
  158.9761  143.4799  181.1117 C   0  0  0  0  0  0  0  0  0  0  0  0
  159.1698  144.3605  180.2091 O   0  0  0  0  0  0  0  0  0  0  0  0
  158.5003  142.2692  180.8018 N   0  0  0  0  0  0  0  0  0  0  0  0
  158.1835  141.9529  179.4253 C   0  0  0  0  0  0  0  0  0  0  0  0
  158.3164  141.3738  181.8003 C   0  0  0  0  0  0  0  0  0  0  0  0
  157.8775  140.2569  181.5065 O   0  0  0  0  0  0  0  0  0  0  0  0
  158.5990  141.6647  183.1122 C   0  0  0  0  0  0  0  0  0  0  0  0
  158.5234  140.9930  184.3341 C   0  0  0  0  0  0  0  0  0  0  0  0
 24 25  1  0  0  0
 25 26  1  0  0  0
 26 27  1  0  0  0
 27 28  1  0  0  0
 28 29  1  0  0  0
 28 30  1  0  0  0
 30 31  2  0  0  0
 30 32  1  0  0  0
 32 33  1  0  0  0
 32 34  1  0  0  0
 34 35  2  0  0  0
 34 36  1  0  0  0
 36 37  1  0  0  0
 37 23  1  0  0  0
 23  1  1  0  0  0
  1  2  2  0  0  0
  1  3  1  0  0  0
  3  5  1  0  0  0
  5  6  2  0  0  0
  6  7  1  0  0  0
  7  8  2  0  0  0
  8  9  1  0  0  0
  7 10  1  0  0  0
 10 11  2  0  0  0
 11 12  1  0  0  0
 12 13  2  0  0  0
 13 17  1  0  0  0
 17 18  1  0  0  0
 18 19  1  0  0  0
 19 20  1  0  0  0
 19 21  1  0  0  0
 19 22  1  0  0  0
 13 14  1  0  0  0
 14 15  1  0  0  0
 14 16  2  0  0  0
 37 25  2  0  0  0
  9  5  1  0  0  0
 16 10  1  0  0  0
 36 27  2  0  0  0
  3  4  1  0  0  0
M  END
> <minimizedAffinity>
-8.04737

> <CNNscore>
0.2844261825

> <CNNaffinity>
6.6878623962

> <CNN_VS>
1.9022032022

> <CNNaffinity_variance>
0.2409644127

$$$$
[H]c1sc(N([H])C(=O)C([H])([H])c2c(C([H])([H])[H])oc3c2c(=O)n(C([H])([H])[H])c(=O)n3C([H])([H])[H])nc1-c1c([H])c([H])c(OC([H])([H])C(F)(F)F)c(Cl)c1[H]


 37 40  0  0  0  0  0  0  0  0999 V2000
  152.0948  139.6390  180.9043 C   0  0  0  0  0  0  0  0  0  0  0  0
  151.4794  140.2994  179.8565 O   0  0  0  0  0  0  0  0  0  0  0  0
  153.0749  140.4046  181.4091 N   0  0  0  0  0  0  0  0  0  0  0  0
  153.2106  141.3900  180.9169 H   0  0  0  0  0  0  0  0  0  0  0  0
  154.0156  140.2679  182.4653 C   0  0  0  0  0  0  0  0  0  0  0  0
  153.8094  139.5652  183.5932 N   0  0  0  0  0  0  0  0  0  0  0  0
  154.7222  139.4945  184.4927 C   0  0  0  0  0  0  0  0  0  0  0  0
  155.9026  140.1522  184.2663 C   0  0  0  0  0  0  0  0  0  0  0  0
  155.5918  140.8347  182.7401 S   0  0  0  0  0  0  0  0  0  0  0  0
  154.5010  138.7281  185.7533 C   0  0  0  0  0  0  0  0  0  0  0  0
  153.2753  138.7316  186.3570 C   0  0  0  0  0  0  0  0  0  0  0  0
  153.0648  138.0049  187.5357 C   0  0  0  0  0  0  0  0  0  0  0  0
  154.0550  137.2756  188.1236 C   0  0  0  0  0  0  0  0  0  0  0  0
  155.2919  137.2714  187.5190 C   0  0  0  0  0  0  0  0  0  0  0  0
  156.5944  136.3388  188.2527 Cl  0  0  0  0  0  0  0  0  0  0  0  0
  155.5015  137.9907  186.3509 C   0  0  0  0  0  0  0  0  0  0  0  0
  153.8940  136.5420  189.2883 O   0  0  0  0  0  0  0  0  0  0  0  0
  153.0174  136.8642  190.3374 C   0  0  0  0  0  0  0  0  0  0  0  0
  153.9104  137.4346  191.4515 C   0  0  0  0  0  0  0  0  0  0  0  0
  154.5682  138.5521  191.0204 F   0  0  0  0  0  0  0  0  0  0  0  0
  153.0874  137.6457  192.5420 F   0  0  0  0  0  0  0  0  0  0  0  0
  154.7772  136.3824  191.7639 F   0  0  0  0  0  0  0  0  0  0  0  0
  151.4396  138.3672  181.0511 C   0  0  0  0  0  0  0  0  0  0  0  0
  148.4718  139.3304  181.6239 C   0  0  0  0  0  0  0  0  0  0  0  0
  149.3323  138.4275  182.4488 C   0  0  0  0  0  0  0  0  0  0  0  0
  148.9918  137.8981  183.5766 O   0  0  0  0  0  0  0  0  0  0  0  0
  149.9255  137.1443  184.1031 C   0  0  0  0  0  0  0  0  0  0  0  0
  150.0367  136.4082  185.2281 N   0  0  0  0  0  0  0  0  0  0  0  0
  148.9006  136.3606  186.1229 C   0  0  0  0  0  0  0  0  0  0  0  0
  151.1503  135.7156  185.5264 C   0  0  0  0  0  0  0  0  0  0  0  0
  151.1721  135.0447  186.6113 O   0  0  0  0  0  0  0  0  0  0  0  0
  152.2052  135.7311  184.7049 N   0  0  0  0  0  0  0  0  0  0  0  0
  153.3986  134.9902  185.0546 C   0  0  0  0  0  0  0  0  0  0  0  0
  152.1252  136.4589  183.5663 C   0  0  0  0  0  0  0  0  0  0  0  0
  153.1033  136.4678  182.8116 O   0  0  0  0  0  0  0  0  0  0  0  0
  151.0052  137.1781  183.2287 C   0  0  0  0  0  0  0  0  0  0  0  0
  150.6152  138.0017  182.1706 C   0  0  0  0  0  0  0  0  0  0  0  0
 24 25  1  0  0  0
 25 26  1  0  0  0
 26 27  1  0  0  0
 27 28  1  0  0  0
 28 29  1  0  0  0
 28 30  1  0  0  0
 30 31  2  0  0  0
 30 32  1  0  0  0
 32 33  1  0  0  0
 32 34  1  0  0  0
 34 35  2  0  0  0
 34 36  1  0  0  0
 36 37  1  0  0  0
 37 23  1  0  0  0
 23  1  1  0  0  0
  1  2  2  0  0  0
  1  3  1  0  0  0
  3  5  1  0  0  0
  5  6  2  0  0  0
  6  7  1  0  0  0
  7  8  2  0  0  0
  8  9  1  0  0  0
  7 10  1  0  0  0
 10 11  2  0  0  0
 11 12  1  0  0  0
 12 13  2  0  0  0
 13 17  1  0  0  0
 17 18  1  0  0  0
 18 19  1  0  0  0
 19 20  1  0  0  0
 19 21  1  0  0  0
 19 22  1  0  0  0
 13 14  1  0  0  0
 14 15  1  0  0  0
 14 16  2  0  0  0
 37 25  2  0  0  0
  9  5  1  0  0  0
 16 10  1  0  0  0
 36 27  2  0  0  0
  3  4  1  0  0  0
M  END
> <minimizedAffinity>
-7.15657

> <CNNscore>
0.2792710960

> <CNNaffinity>
6.1113004684

> <CNN_VS>
1.7067096233

> <CNNaffinity_variance>
0.4021721780

$$$$
[H]c1sc(N([H])C(=O)C([H])([H])c2c(C([H])([H])[H])oc3c2c(=O)n(C([H])([H])[H])c(=O)n3C([H])([H])[H])nc1-c1c([H])c([H])c(OC([H])([H])C(F)(F)F)c(Cl)c1[H]


 37 40  0  0  0  0  0  0  0  0999 V2000
  154.9454  140.7560  182.9876 C   0  0  0  0  0  0  0  0  0  0  0  0
  154.5142  141.9431  182.4241 O   0  0  0  0  0  0  0  0  0  0  0  0
  153.9187  140.1462  183.6004 N   0  0  0  0  0  0  0  0  0  0  0  0
  152.9473  140.6805  183.5474 H   0  0  0  0  0  0  0  0  0  0  0  0
  153.7545  138.9334  184.3225 C   0  0  0  0  0  0  0  0  0  0  0  0
  153.7445  138.8317  185.6634 N   0  0  0  0  0  0  0  0  0  0  0  0
  153.5851  137.6907  186.2290 C   0  0  0  0  0  0  0  0  0  0  0  0
  153.4260  136.5907  185.4277 C   0  0  0  0  0  0  0  0  0  0  0  0
  153.5223  137.3087  183.8893 S   0  0  0  0  0  0  0  0  0  0  0  0
  153.5841  137.5632  187.7153 C   0  0  0  0  0  0  0  0  0  0  0  0
  152.5618  136.9179  188.3519 C   0  0  0  0  0  0  0  0  0  0  0  0
  152.5650  136.7903  189.7467 C   0  0  0  0  0  0  0  0  0  0  0  0
  153.5690  137.2955  190.5180 C   0  0  0  0  0  0  0  0  0  0  0  0
  154.5998  137.9479  189.8799 C   0  0  0  0  0  0  0  0  0  0  0  0
  155.9139  138.6129  190.8472 Cl  0  0  0  0  0  0  0  0  0  0  0  0
  154.5979  138.0746  188.4980 C   0  0  0  0  0  0  0  0  0  0  0  0
  153.6150  137.1938  191.8993 O   0  0  0  0  0  0  0  0  0  0  0  0
  152.9031  136.2599  192.6700 C   0  0  0  0  0  0  0  0  0  0  0  0
  151.8120  137.0725  193.3862 C   0  0  0  0  0  0  0  0  0  0  0  0
  152.2432  138.3441  193.6399 F   0  0  0  0  0  0  0  0  0  0  0  0
  150.6861  137.0039  192.5868 F   0  0  0  0  0  0  0  0  0  0  0  0
  151.5567  136.3441  194.5525 F   0  0  0  0  0  0  0  0  0  0  0  0
  156.3483  140.6303  182.6974 C   0  0  0  0  0  0  0  0  0  0  0  0
  157.2507  139.1703  185.3653 C   0  0  0  0  0  0  0  0  0  0  0  0
  157.7940  140.4265  184.7629 C   0  0  0  0  0  0  0  0  0  0  0  0
  158.7373  141.1491  185.2691 O   0  0  0  0  0  0  0  0  0  0  0  0
  159.0322  142.2030  184.5483 C   0  0  0  0  0  0  0  0  0  0  0  0
  159.9124  143.2193  184.6588 N   0  0  0  0  0  0  0  0  0  0  0  0
  160.7994  143.2275  185.8019 C   0  0  0  0  0  0  0  0  0  0  0  0
  159.9973  144.1992  183.7416 C   0  0  0  0  0  0  0  0  0  0  0  0
  160.8579  145.1234  183.9227 O   0  0  0  0  0  0  0  0  0  0  0  0
  159.1996  144.2017  182.6684 N   0  0  0  0  0  0  0  0  0  0  0  0
  159.2987  145.2752  181.7025 C   0  0  0  0  0  0  0  0  0  0  0  0
  158.3062  143.1945  182.5268 C   0  0  0  0  0  0  0  0  0  0  0  0
  157.5732  143.2027  181.5323 O   0  0  0  0  0  0  0  0  0  0  0  0
  158.1912  142.1775  183.4422 C   0  0  0  0  0  0  0  0  0  0  0  0
  157.4022  141.0345  183.5876 C   0  0  0  0  0  0  0  0  0  0  0  0
 24 25  1  0  0  0
 25 26  1  0  0  0
 26 27  1  0  0  0
 27 28  1  0  0  0
 28 29  1  0  0  0
 28 30  1  0  0  0
 30 31  2  0  0  0
 30 32  1  0  0  0
 32 33  1  0  0  0
 32 34  1  0  0  0
 34 35  2  0  0  0
 34 36  1  0  0  0
 36 37  1  0  0  0
 37 23  1  0  0  0
 23  1  1  0  0  0
  1  2  2  0  0  0
  1  3  1  0  0  0
  3  5  1  0  0  0
  5  6  2  0  0  0
  6  7  1  0  0  0
  7  8  2  0  0  0
  8  9  1  0  0  0
  7 10  1  0  0  0
 10 11  2  0  0  0
 11 12  1  0  0  0
 12 13  2  0  0  0
 13 17  1  0  0  0
 17 18  1  0  0  0
 18 19  1  0  0  0
 19 20  1  0  0  0
 19 21  1  0  0  0
 19 22  1  0  0  0
 13 14  1  0  0  0
 14 15  1  0  0  0
 14 16  2  0  0  0
 37 25  2  0  0  0
  9  5  1  0  0  0
 16 10  1  0  0  0
 36 27  2  0  0  0
  3  4  1  0  0  0
M  END
> <minimizedAffinity>
-9.06063

> <CNNscore>
0.2706304789

> <CNNaffinity>
6.6276040077

> <CNN_VS>
1.7936316729

> <CNNaffinity_variance>
0.2539502978

$$$$
[H]c1sc(N([H])C(=O)C([H])([H])c2c(C([H])([H])[H])oc3c2c(=O)n(C([H])([H])[H])c(=O)n3C([H])([H])[H])nc1-c1c([H])c([H])c(OC([H])([H])C(F)(F)F)c(Cl)c1[H]


 37 40  0  0  0  0  0  0  0  0999 V2000
  156.6808  135.6469  189.5692 C   0  0  0  0  0  0  0  0  0  0  0  0
  157.6547  134.6666  189.6290 O   0  0  0  0  0  0  0  0  0  0  0  0
  156.4215  135.9502  188.2877 N   0  0  0  0  0  0  0  0  0  0  0  0
  157.0096  135.3837  187.5360 H   0  0  0  0  0  0  0  0  0  0  0  0
  155.5401  136.8456  187.6241 C   0  0  0  0  0  0  0  0  0  0  0  0
  155.8688  137.6038  186.5631 N   0  0  0  0  0  0  0  0  0  0  0  0
  155.0017  138.3825  186.0253 C   0  0  0  0  0  0  0  0  0  0  0  0
  153.7419  138.4137  186.5631 C   0  0  0  0  0  0  0  0  0  0  0  0
  153.9155  137.2924  187.8296 S   0  0  0  0  0  0  0  0  0  0  0  0
  155.3576  139.2374  184.8557 C   0  0  0  0  0  0  0  0  0  0  0  0
  156.6591  139.5827  184.6239 C   0  0  0  0  0  0  0  0  0  0  0  0
  156.9946  140.3778  183.5208 C   0  0  0  0  0  0  0  0  0  0  0  0
  156.0554  140.8355  182.6453 C   0  0  0  0  0  0  0  0  0  0  0  0
  154.7428  140.4910  182.8770 C   0  0  0  0  0  0  0  0  0  0  0  0
  153.5032  141.0659  181.7644 Cl  0  0  0  0  0  0  0  0  0  0  0  0
  154.4091  139.7029  183.9693 C   0  0  0  0  0  0  0  0  0  0  0  0
  156.3395  141.6239  181.5416 O   0  0  0  0  0  0  0  0  0  0  0  0
  157.2585  142.6859  181.5159 C   0  0  0  0  0  0  0  0  0  0  0  0
  158.3475  142.2560  180.5193 C   0  0  0  0  0  0  0  0  0  0  0  0
  158.9335  143.3471  179.9419 F   0  0  0  0  0  0  0  0  0  0  0  0
  159.2217  141.4471  181.2212 F   0  0  0  0  0  0  0  0  0  0  0  0
  157.6665  141.4551  179.5969 F   0  0  0  0  0  0  0  0  0  0  0  0
  156.3163  135.9698  190.9224 C   0  0  0  0  0  0  0  0  0  0  0  0
  155.0909  138.8849  191.1764 C   0  0  0  0  0  0  0  0  0  0  0  0
  154.4428  137.5732  191.4852 C   0  0  0  0  0  0  0  0  0  0  0  0
  153.2438  137.4228  191.9414 O   0  0  0  0  0  0  0  0  0  0  0  0
  152.9101  136.1698  192.1307 C   0  0  0  0  0  0  0  0  0  0  0  0
  151.8080  135.5322  192.5765 N   0  0  0  0  0  0  0  0  0  0  0  0
  150.6601  136.3348  192.9398 C   0  0  0  0  0  0  0  0  0  0  0  0
  151.7431  134.1925  192.6744 C   0  0  0  0  0  0  0  0  0  0  0  0
  150.6622  133.6699  193.1059 O   0  0  0  0  0  0  0  0  0  0  0  0
  152.7858  133.4307  192.3272 N   0  0  0  0  0  0  0  0  0  0  0  0
  152.6980  131.9916  192.4557 C   0  0  0  0  0  0  0  0  0  0  0  0
  153.9067  134.0396  191.8740 C   0  0  0  0  0  0  0  0  0  0  0  0
  154.8656  133.3295  191.5540 O   0  0  0  0  0  0  0  0  0  0  0  0
  154.0092  135.4042  191.7603 C   0  0  0  0  0  0  0  0  0  0  0  0
  154.9861  136.3123  191.3466 C   0  0  0  0  0  0  0  0  0  0  0  0
 24 25  1  0  0  0
 25 26  1  0  0  0
 26 27  1  0  0  0
 27 28  1  0  0  0
 28 29  1  0  0  0
 28 30  1  0  0  0
 30 31  2  0  0  0
 30 32  1  0  0  0
 32 33  1  0  0  0
 32 34  1  0  0  0
 34 35  2  0  0  0
 34 36  1  0  0  0
 36 37  1  0  0  0
 37 23  1  0  0  0
 23  1  1  0  0  0
  1  2  2  0  0  0
  1  3  1  0  0  0
  3  5  1  0  0  0
  5  6  2  0  0  0
  6  7  1  0  0  0
  7  8  2  0  0  0
  8  9  1  0  0  0
  7 10  1  0  0  0
 10 11  2  0  0  0
 11 12  1  0  0  0
 12 13  2  0  0  0
 13 17  1  0  0  0
 17 18  1  0  0  0
 18 19  1  0  0  0
 19 20  1  0  0  0
 19 21  1  0  0  0
 19 22  1  0  0  0
 13 14  1  0  0  0
 14 15  1  0  0  0
 14 16  2  0  0  0
 37 25  2  0  0  0
  9  5  1  0  0  0
 16 10  1  0  0  0
 36 27  2  0  0  0
  3  4  1  0  0  0
M  END
> <minimizedAffinity>
-8.59395

> <CNNscore>
0.2641843855

> <CNNaffinity>
6.1420712471

> <CNN_VS>
1.6226392984

> <CNNaffinity_variance>
0.1708335429

$$$$
[H]c1sc(N([H])C(=O)C([H])([H])c2c(C([H])([H])[H])oc3c2c(=O)n(C([H])([H])[H])c(=O)n3C([H])([H])[H])nc1-c1c([H])c([H])c(OC([H])([H])C(F)(F)F)c(Cl)c1[H]


 37 40  0  0  0  0  0  0  0  0999 V2000
  151.8002  139.7995  181.1411 C   0  0  0  0  0  0  0  0  0  0  0  0
  151.3860  140.1499  179.8688 O   0  0  0  0  0  0  0  0  0  0  0  0
  153.0636  140.2090  181.3349 N   0  0  0  0  0  0  0  0  0  0  0  0
  153.5309  140.7343  180.4760 H   0  0  0  0  0  0  0  0  0  0  0  0
  153.9885  140.1438  182.4116 C   0  0  0  0  0  0  0  0  0  0  0  0
  153.7971  139.4533  183.5496 N   0  0  0  0  0  0  0  0  0  0  0  0
  154.6938  139.4494  184.4679 C   0  0  0  0  0  0  0  0  0  0  0  0
  155.8419  140.1649  184.2508 C   0  0  0  0  0  0  0  0  0  0  0  0
  155.5264  140.7996  182.7051 S   0  0  0  0  0  0  0  0  0  0  0  0
  154.4880  138.6972  185.7396 C   0  0  0  0  0  0  0  0  0  0  0  0
  153.2627  138.6859  186.3442 C   0  0  0  0  0  0  0  0  0  0  0  0
  153.0668  137.9724  187.5334 C   0  0  0  0  0  0  0  0  0  0  0  0
  154.0712  137.2708  188.1310 C   0  0  0  0  0  0  0  0  0  0  0  0
  155.3076  137.2815  187.5255 C   0  0  0  0  0  0  0  0  0  0  0  0
  156.6281  136.3847  188.2715 Cl  0  0  0  0  0  0  0  0  0  0  0  0
  155.5027  137.9878  186.3469 C   0  0  0  0  0  0  0  0  0  0  0  0
  153.9249  136.5511  189.3062 O   0  0  0  0  0  0  0  0  0  0  0  0
  153.0390  136.8686  190.3490 C   0  0  0  0  0  0  0  0  0  0  0  0
  153.9341  137.2391  191.5430 C   0  0  0  0  0  0  0  0  0  0  0  0
  153.2248  137.2001  192.7104 F   0  0  0  0  0  0  0  0  0  0  0  0
  155.0128  136.3752  191.5051 F   0  0  0  0  0  0  0  0  0  0  0  0
  154.3987  138.5216  191.2339 F   0  0  0  0  0  0  0  0  0  0  0  0
  150.7028  139.1203  181.7756 C   0  0  0  0  0  0  0  0  0  0  0  0
  147.8760  139.0286  180.3386 C   0  0  0  0  0  0  0  0  0  0  0  0
  148.8076  137.8962  180.6320 C   0  0  0  0  0  0  0  0  0  0  0  0
  148.5842  136.6551  180.3528 O   0  0  0  0  0  0  0  0  0  0  0  0
  149.5574  135.8550  180.7133 C   0  0  0  0  0  0  0  0  0  0  0  0
  149.7785  134.5264  180.6380 N   0  0  0  0  0  0  0  0  0  0  0  0
  148.7668  133.7047  180.0094 C   0  0  0  0  0  0  0  0  0  0  0  0
  150.9026  133.9573  181.1082 C   0  0  0  0  0  0  0  0  0  0  0  0
  151.0320  132.6929  180.9968 O   0  0  0  0  0  0  0  0  0  0  0  0
  151.8583  134.6998  181.6766 N   0  0  0  0  0  0  0  0  0  0  0  0
  153.0528  134.0631  182.1894 C   0  0  0  0  0  0  0  0  0  0  0  0
  151.6681  136.0372  181.7662 C   0  0  0  0  0  0  0  0  0  0  0  0
  152.5557  136.7171  182.2916 O   0  0  0  0  0  0  0  0  0  0  0  0
  150.5339  136.6530  181.2972 C   0  0  0  0  0  0  0  0  0  0  0  0
  150.0453  137.9599  181.2392 C   0  0  0  0  0  0  0  0  0  0  0  0
 24 25  1  0  0  0
 25 26  1  0  0  0
 26 27  1  0  0  0
 27 28  1  0  0  0
 28 29  1  0  0  0
 28 30  1  0  0  0
 30 31  2  0  0  0
 30 32  1  0  0  0
 32 33  1  0  0  0
 32 34  1  0  0  0
 34 35  2  0  0  0
 34 36  1  0  0  0
 36 37  1  0  0  0
 37 23  1  0  0  0
 23  1  1  0  0  0
  1  2  2  0  0  0
  1  3  1  0  0  0
  3  5  1  0  0  0
  5  6  2  0  0  0
  6  7  1  0  0  0
  7  8  2  0  0  0
  8  9  1  0  0  0
  7 10  1  0  0  0
 10 11  2  0  0  0
 11 12  1  0  0  0
 12 13  2  0  0  0
 13 17  1  0  0  0
 17 18  1  0  0  0
 18 19  1  0  0  0
 19 20  1  0  0  0
 19 21  1  0  0  0
 19 22  1  0  0  0
 13 14  1  0  0  0
 14 15  1  0  0  0
 14 16  2  0  0  0
 37 25  2  0  0  0
  9  5  1  0  0  0
 16 10  1  0  0  0
 36 27  2  0  0  0
  3  4  1  0  0  0
M  END
> <minimizedAffinity>
-6.79979

> <CNNscore>
0.2626548409

> <CNNaffinity>
5.9892110825

> <CNN_VS>
1.5730953217

> <CNNaffinity_variance>
0.3242350221

$$$$
[H]c1nc(C(F)(F)F)c([H])nc1-c1nc(N([H])C(=O)C([H])([H])n2c(C([H])([H])[H])nc3c2c(=O)n(C([H])([H])C(=O)C([H])([H])[H])c(=O)n3C([H])([H])[H])c([H])c([H])c1[H]


 38 41  0  0  0  0  0  0  0  0999 V2000
  157.9384  139.5401  183.4610 C   0  0  0  0  0  0  0  0  0  0  0  0
  158.6627  138.9142  184.3666 O   0  0  0  0  0  0  0  0  0  0  0  0
  156.6383  139.7924  183.8874 N   0  0  0  0  0  0  0  0  0  0  0  0
  156.3958  139.4174  184.9188 H   0  0  0  0  0  0  0  0  0  0  0  0
  155.5614  140.4886  183.3403 C   0  0  0  0  0  0  0  0  0  0  0  0
  155.5851  141.9030  183.4071 C   0  0  0  0  0  0  0  0  0  0  0  0
  154.6276  142.6944  182.8630 C   0  0  0  0  0  0  0  0  0  0  0  0
  153.5727  142.1482  182.2074 C   0  0  0  0  0  0  0  0  0  0  0  0
  153.5289  140.7578  182.1277 C   0  0  0  0  0  0  0  0  0  0  0  0
  154.5130  139.9841  182.6907 N   0  0  0  0  0  0  0  0  0  0  0  0
  152.4481  140.1213  181.4165 C   0  0  0  0  0  0  0  0  0  0  0  0
  151.4893  139.4014  182.0671 C   0  0  0  0  0  0  0  0  0  0  0  0
  150.4426  138.8302  181.4284 N   0  0  0  0  0  0  0  0  0  0  0  0
  150.3382  138.9686  180.1021 C   0  0  0  0  0  0  0  0  0  0  0  0
  151.2896  139.6875  179.4083 C   0  0  0  0  0  0  0  0  0  0  0  0
  152.3331  140.2561  180.0812 N   0  0  0  0  0  0  0  0  0  0  0  0
  149.1893  138.3541  179.3741 C   0  0  0  0  0  0  0  0  0  0  0  0
  147.9941  138.7867  179.8846 F   0  0  0  0  0  0  0  0  0  0  0  0
  149.2178  136.9784  179.4790 F   0  0  0  0  0  0  0  0  0  0  0  0
  149.2744  138.7103  178.0450 F   0  0  0  0  0  0  0  0  0  0  0  0
  158.5505  139.8722  182.1810 C   0  0  0  0  0  0  0  0  0  0  0  0
  160.3506  143.2384  184.6440 N   0  0  0  0  0  0  0  0  0  0  0  0
  160.2608  144.4209  184.0326 C   0  0  0  0  0  0  0  0  0  0  0  0
  160.7259  145.4668  184.5672 O   0  0  0  0  0  0  0  0  0  0  0  0
  159.6772  144.5518  182.8305 N   0  0  0  0  0  0  0  0  0  0  0  0
  159.5786  145.8281  182.1351 C   0  0  0  0  0  0  0  0  0  0  0  0
  159.1815  143.4515  182.2529 C   0  0  0  0  0  0  0  0  0  0  0  0
  158.5694  143.3123  181.0819 N   0  0  0  0  0  0  0  0  0  0  0  0
  158.2584  142.0089  180.9308 C   0  0  0  0  0  0  0  0  0  0  0  0
  157.5633  141.5000  179.7505 C   0  0  0  0  0  0  0  0  0  0  0  0
  158.6696  141.3096  181.9980 N   0  0  0  0  0  0  0  0  0  0  0  0
  159.2467  142.1815  182.8459 C   0  0  0  0  0  0  0  0  0  0  0  0
  159.8559  142.1198  184.0803 C   0  0  0  0  0  0  0  0  0  0  0  0
  159.9291  141.0109  184.6541 O   0  0  0  0  0  0  0  0  0  0  0  0
  161.0477  143.1751  185.9105 C   0  0  0  0  0  0  0  0  0  0  0  0
  163.2696  142.5244  187.0091 C   0  0  0  0  0  0  0  0  0  0  0  0
  162.3995  142.5974  185.8157 C   0  0  0  0  0  0  0  0  0  0  0  0
  162.8657  142.1553  184.7507 O   0  0  0  0  0  0  0  0  0  0  0  0
 36 37  1  0  0  0
 37 38  2  0  0  0
 37 35  1  0  0  0
 35 22  1  0  0  0
 22 23  1  0  0  0
 23 24  2  0  0  0
 23 25  1  0  0  0
 25 26  1  0  0  0
 25 27  1  0  0  0
 27 28  1  0  0  0
 28 29  2  0  0  0
 29 30  1  0  0  0
 29 31  1  0  0  0
 31 21  1  0  0  0
 21  1  1  0  0  0
  1  2  2  0  0  0
  1  3  1  0  0  0
  3  5  1  0  0  0
  5  6  2  0  0  0
  6  7  1  0  0  0
  7  8  2  0  0  0
  8  9  1  0  0  0
  9 10  2  0  0  0
  9 11  1  0  0  0
 11 12  2  0  0  0
 12 13  1  0  0  0
 13 14  2  0  0  0
 14 15  1  0  0  0
 15 16  2  0  0  0
 14 17  1  0  0  0
 17 18  1  0  0  0
 17 19  1  0  0  0
 17 20  1  0  0  0
 31 32  1  0  0  0
 32 33  1  0  0  0
 33 34  2  0  0  0
 33 22  1  0  0  0
 32 27  2  0  0  0
 10  5  1  0  0  0
 16 11  1  0  0  0
  3  4  1  0  0  0
M  END
> <minimizedAffinity>
-9.70294

> <CNNscore>
0.5851306915

> <CNNaffinity>
7.3269982338

> <CNN_VS>
4.2872514725

> <CNNaffinity_variance>
0.0684122667

$$$$
[H]c1nc(C(F)(F)F)c([H])nc1-c1nc(N([H])C(=O)C([H])([H])n2c(C([H])([H])[H])nc3c2c(=O)n(C([H])([H])C(=O)C([H])([H])[H])c(=O)n3C([H])([H])[H])c([H])c([H])c1[H]


 38 41  0  0  0  0  0  0  0  0999 V2000
  155.6066  136.0384  188.2466 C   0  0  0  0  0  0  0  0  0  0  0  0
  156.5181  135.7236  189.1447 O   0  0  0  0  0  0  0  0  0  0  0  0
  155.5465  135.1297  187.1947 N   0  0  0  0  0  0  0  0  0  0  0  0
  156.2830  134.2830  187.2563 H   0  0  0  0  0  0  0  0  0  0  0  0
  154.7080  134.9864  186.0901 C   0  0  0  0  0  0  0  0  0  0  0  0
  154.0903  133.7283  185.8871 C   0  0  0  0  0  0  0  0  0  0  0  0
  153.2115  133.4787  184.8847 C   0  0  0  0  0  0  0  0  0  0  0  0
  152.8729  134.4555  184.0061 C   0  0  0  0  0  0  0  0  0  0  0  0
  153.4673  135.7027  184.1871 C   0  0  0  0  0  0  0  0  0  0  0  0
  154.3547  135.9232  185.2108 N   0  0  0  0  0  0  0  0  0  0  0  0
  153.1225  136.7884  183.3031 C   0  0  0  0  0  0  0  0  0  0  0  0
  152.3698  136.5879  182.1833 C   0  0  0  0  0  0  0  0  0  0  0  0
  151.9975  137.5952  181.3608 N   0  0  0  0  0  0  0  0  0  0  0  0
  152.3833  138.8433  181.6482 C   0  0  0  0  0  0  0  0  0  0  0  0
  153.1476  139.0860  182.7708 C   0  0  0  0  0  0  0  0  0  0  0  0
  153.5047  138.0490  183.5845 N   0  0  0  0  0  0  0  0  0  0  0  0
  151.9803  139.9738  180.7609 C   0  0  0  0  0  0  0  0  0  0  0  0
  150.6167  140.0711  180.6751 F   0  0  0  0  0  0  0  0  0  0  0  0
  152.4701  139.7966  179.4830 F   0  0  0  0  0  0  0  0  0  0  0  0
  152.4900  141.1427  181.2849 F   0  0  0  0  0  0  0  0  0  0  0  0
  154.8128  137.2439  188.4463 C   0  0  0  0  0  0  0  0  0  0  0  0
  150.7715  135.6153  189.7320 N   0  0  0  0  0  0  0  0  0  0  0  0
  150.5484  135.7788  191.0373 C   0  0  0  0  0  0  0  0  0  0  0  0
  149.4792  135.3692  191.5710 O   0  0  0  0  0  0  0  0  0  0  0  0
  151.4435  136.3811  191.8366 N   0  0  0  0  0  0  0  0  0  0  0  0
  151.2311  136.5597  193.2666 C   0  0  0  0  0  0  0  0  0  0  0  0
  152.5806  136.8186  191.2839 C   0  0  0  0  0  0  0  0  0  0  0  0
  153.6146  137.4335  191.8479 N   0  0  0  0  0  0  0  0  0  0  0  0
  154.5292  137.6707  190.8858 C   0  0  0  0  0  0  0  0  0  0  0  0
  155.7956  138.3473  191.1570 C   0  0  0  0  0  0  0  0  0  0  0  0
  154.0889  137.2093  189.7068 N   0  0  0  0  0  0  0  0  0  0  0  0
  152.8718  136.6747  189.9188 C   0  0  0  0  0  0  0  0  0  0  0  0
  151.9085  136.0506  189.1564 C   0  0  0  0  0  0  0  0  0  0  0  0
  152.1176  135.9081  187.9316 O   0  0  0  0  0  0  0  0  0  0  0  0
  149.7812  134.9029  188.9535 C   0  0  0  0  0  0  0  0  0  0  0  0
  148.8764  136.0132  186.8284 C   0  0  0  0  0  0  0  0  0  0  0  0
  148.8050  135.7824  188.2873 C   0  0  0  0  0  0  0  0  0  0  0  0
  147.8954  136.3630  188.9056 O   0  0  0  0  0  0  0  0  0  0  0  0
 36 37  1  0  0  0
 37 38  2  0  0  0
 37 35  1  0  0  0
 35 22  1  0  0  0
 22 23  1  0  0  0
 23 24  2  0  0  0
 23 25  1  0  0  0
 25 26  1  0  0  0
 25 27  1  0  0  0
 27 28  1  0  0  0
 28 29  2  0  0  0
 29 30  1  0  0  0
 29 31  1  0  0  0
 31 21  1  0  0  0
 21  1  1  0  0  0
  1  2  2  0  0  0
  1  3  1  0  0  0
  3  5  1  0  0  0
  5  6  2  0  0  0
  6  7  1  0  0  0
  7  8  2  0  0  0
  8  9  1  0  0  0
  9 10  2  0  0  0
  9 11  1  0  0  0
 11 12  2  0  0  0
 12 13  1  0  0  0
 13 14  2  0  0  0
 14 15  1  0  0  0
 15 16  2  0  0  0
 14 17  1  0  0  0
 17 18  1  0  0  0
 17 19  1  0  0  0
 17 20  1  0  0  0
 31 32  1  0  0  0
 32 33  1  0  0  0
 33 34  2  0  0  0
 33 22  1  0  0  0
 32 27  2  0  0  0
 10  5  1  0  0  0
 16 11  1  0  0  0
  3  4  1  0  0  0
M  END
> <minimizedAffinity>
-6.39856

> <CNNscore>
0.3495344222

> <CNNaffinity>
6.0761809349

> <CNN_VS>
2.1238343716

> <CNNaffinity_variance>
0.1590040624

$$$$
[H]c1nc(C(F)(F)F)c([H])nc1-c1nc(N([H])C(=O)C([H])([H])n2c(C([H])([H])[H])nc3c2c(=O)n(C([H])([H])C(=O)C([H])([H])[H])c(=O)n3C([H])([H])[H])c([H])c([H])c1[H]


 38 41  0  0  0  0  0  0  0  0999 V2000
  154.3459  135.1202  184.9096 C   0  0  0  0  0  0  0  0  0  0  0  0
  154.3837  134.6820  183.6675 O   0  0  0  0  0  0  0  0  0  0  0  0
  155.2923  134.5111  185.7277 N   0  0  0  0  0  0  0  0  0  0  0  0
  155.9291  133.7359  185.2210 H   0  0  0  0  0  0  0  0  0  0  0  0
  155.6905  134.7016  187.0501 C   0  0  0  0  0  0  0  0  0  0  0  0
  157.0607  134.5240  187.3607 C   0  0  0  0  0  0  0  0  0  0  0  0
  157.5820  134.7345  188.5949 C   0  0  0  0  0  0  0  0  0  0  0  0
  156.7886  135.1400  189.6181 C   0  0  0  0  0  0  0  0  0  0  0  0
  155.4365  135.3228  189.3356 C   0  0  0  0  0  0  0  0  0  0  0  0
  154.9389  135.0996  188.0760 N   0  0  0  0  0  0  0  0  0  0  0  0
  154.5500  135.7827  190.3756 C   0  0  0  0  0  0  0  0  0  0  0  0
  153.4627  136.5583  190.0980 C   0  0  0  0  0  0  0  0  0  0  0  0
  152.5926  136.9677  191.0494 N   0  0  0  0  0  0  0  0  0  0  0  0
  152.8024  136.6046  192.3195 C   0  0  0  0  0  0  0  0  0  0  0  0
  153.8926  135.8224  192.6405 C   0  0  0  0  0  0  0  0  0  0  0  0
  154.7516  135.4212  191.6575 N   0  0  0  0  0  0  0  0  0  0  0  0
  151.8538  137.0370  193.3876 C   0  0  0  0  0  0  0  0  0  0  0  0
  150.5545  136.9196  192.9699 F   0  0  0  0  0  0  0  0  0  0  0  0
  152.0668  138.3562  193.7319 F   0  0  0  0  0  0  0  0  0  0  0  0
  152.0517  136.2406  194.4954 F   0  0  0  0  0  0  0  0  0  0  0  0
  153.3629  136.1354  185.2653 C   0  0  0  0  0  0  0  0  0  0  0  0
  151.7105  138.3653  181.6687 N   0  0  0  0  0  0  0  0  0  0  0  0
  152.2799  139.5608  181.5052 C   0  0  0  0  0  0  0  0  0  0  0  0
  151.9292  140.3250  180.5624 O   0  0  0  0  0  0  0  0  0  0  0  0
  153.2436  140.0025  182.3291 N   0  0  0  0  0  0  0  0  0  0  0  0
  153.8716  141.3087  182.1815 C   0  0  0  0  0  0  0  0  0  0  0  0
  153.6235  139.2031  183.3324 C   0  0  0  0  0  0  0  0  0  0  0  0
  154.5380  139.4036  184.2753 N   0  0  0  0  0  0  0  0  0  0  0  0
  154.5586  138.3137  185.0691 C   0  0  0  0  0  0  0  0  0  0  0  0
  155.4630  138.1915  186.2103 C   0  0  0  0  0  0  0  0  0  0  0  0
  153.6605  137.4148  184.6422 N   0  0  0  0  0  0  0  0  0  0  0  0
  153.0616  137.9369  183.5555 C   0  0  0  0  0  0  0  0  0  0  0  0
  152.0805  137.5451  182.6709 C   0  0  0  0  0  0  0  0  0  0  0  0
  151.5563  136.4197  182.8222 O   0  0  0  0  0  0  0  0  0  0  0  0
  150.6381  137.9907  180.7722 C   0  0  0  0  0  0  0  0  0  0  0  0
  148.3029  138.8183  180.1171 C   0  0  0  0  0  0  0  0  0  0  0  0
  149.3277  138.5489  181.1485 C   0  0  0  0  0  0  0  0  0  0  0  0
  149.0270  138.8174  182.3251 O   0  0  0  0  0  0  0  0  0  0  0  0
 36 37  1  0  0  0
 37 38  2  0  0  0
 37 35  1  0  0  0
 35 22  1  0  0  0
 22 23  1  0  0  0
 23 24  2  0  0  0
 23 25  1  0  0  0
 25 26  1  0  0  0
 25 27  1  0  0  0
 27 28  1  0  0  0
 28 29  2  0  0  0
 29 30  1  0  0  0
 29 31  1  0  0  0
 31 21  1  0  0  0
 21  1  1  0  0  0
  1  2  2  0  0  0
  1  3  1  0  0  0
  3  5  1  0  0  0
  5  6  2  0  0  0
  6  7  1  0  0  0
  7  8  2  0  0  0
  8  9  1  0  0  0
  9 10  2  0  0  0
  9 11  1  0  0  0
 11 12  2  0  0  0
 12 13  1  0  0  0
 13 14  2  0  0  0
 14 15  1  0  0  0
 15 16  2  0  0  0
 14 17  1  0  0  0
 17 18  1  0  0  0
 17 19  1  0  0  0
 17 20  1  0  0  0
 31 32  1  0  0  0
 32 33  1  0  0  0
 33 34  2  0  0  0
 33 22  1  0  0  0
 32 27  2  0  0  0
 10  5  1  0  0  0
 16 11  1  0  0  0
  3  4  1  0  0  0
M  END
> <minimizedAffinity>
-7.09139

> <CNNscore>
0.3193340600

> <CNNaffinity>
5.9893045425

> <CNN_VS>
1.9125889540

> <CNNaffinity_variance>
0.1332177520

$$$$
[H]c1nc(C(F)(F)F)c([H])nc1-c1nc(N([H])C(=O)C([H])([H])n2c(C([H])([H])[H])nc3c2c(=O)n(C([H])([H])C(=O)C([H])([H])[H])c(=O)n3C([H])([H])[H])c([H])c([H])c1[H]


 38 41  0  0  0  0  0  0  0  0999 V2000
  154.9594  137.2982  187.8112 C   0  0  0  0  0  0  0  0  0  0  0  0
  155.5185  136.3098  188.4795 O   0  0  0  0  0  0  0  0  0  0  0  0
  155.4953  137.4621  186.5377 N   0  0  0  0  0  0  0  0  0  0  0  0
  156.3239  136.7491  186.2761 H   0  0  0  0  0  0  0  0  0  0  0  0
  155.1797  138.2834  185.4562 C   0  0  0  0  0  0  0  0  0  0  0  0
  153.9372  138.0766  184.8088 C   0  0  0  0  0  0  0  0  0  0  0  0
  153.4902  138.8439  183.7838 C   0  0  0  0  0  0  0  0  0  0  0  0
  154.2365  139.8781  183.3208 C   0  0  0  0  0  0  0  0  0  0  0  0
  155.4626  140.1017  183.9438 C   0  0  0  0  0  0  0  0  0  0  0  0
  155.8879  139.3057  184.9780 N   0  0  0  0  0  0  0  0  0  0  0  0
  156.2856  141.2055  183.5155 C   0  0  0  0  0  0  0  0  0  0  0  0
  157.5668  141.3571  183.9585 C   0  0  0  0  0  0  0  0  0  0  0  0
  158.3730  142.3594  183.5399 N   0  0  0  0  0  0  0  0  0  0  0  0
  157.9001  143.2464  182.6575 C   0  0  0  0  0  0  0  0  0  0  0  0
  156.6084  143.1281  182.1878 C   0  0  0  0  0  0  0  0  0  0  0  0
  155.8193  142.1031  182.6259 N   0  0  0  0  0  0  0  0  0  0  0  0
  158.7711  144.3578  182.1741 C   0  0  0  0  0  0  0  0  0  0  0  0
  159.8314  144.5560  183.0184 F   0  0  0  0  0  0  0  0  0  0  0  0
  158.0654  145.5414  182.1009 F   0  0  0  0  0  0  0  0  0  0  0  0
  159.2405  144.0303  180.9199 F   0  0  0  0  0  0  0  0  0  0  0  0
  153.9031  138.0696  188.4535 C   0  0  0  0  0  0  0  0  0  0  0  0
  150.8294  135.0492  189.8914 N   0  0  0  0  0  0  0  0  0  0  0  0
  150.9114  134.8249  191.2041 C   0  0  0  0  0  0  0  0  0  0  0  0
  150.1420  133.9997  191.7725 O   0  0  0  0  0  0  0  0  0  0  0  0
  151.8086  135.4608  191.9745 N   0  0  0  0  0  0  0  0  0  0  0  0
  151.9285  135.2241  193.4068 C   0  0  0  0  0  0  0  0  0  0  0  0
  152.6301  136.3366  191.3846 C   0  0  0  0  0  0  0  0  0  0  0  0
  153.5950  137.0815  191.9134 N   0  0  0  0  0  0  0  0  0  0  0  0
  154.1523  137.8022  190.9193 C   0  0  0  0  0  0  0  0  0  0  0  0
  155.2462  138.7430  191.1505 C   0  0  0  0  0  0  0  0  0  0  0  0
  153.5517  137.5227  189.7540 N   0  0  0  0  0  0  0  0  0  0  0  0
  152.5922  136.6137  190.0095 C   0  0  0  0  0  0  0  0  0  0  0  0
  151.6456  135.9285  189.2794 C   0  0  0  0  0  0  0  0  0  0  0  0
  151.5659  136.1490  188.0509 O   0  0  0  0  0  0  0  0  0  0  0  0
  149.8746  134.2782  189.1247 C   0  0  0  0  0  0  0  0  0  0  0  0
  148.1310  136.1491  188.9608 C   0  0  0  0  0  0  0  0  0  0  0  0
  148.4847  134.7459  189.2651 C   0  0  0  0  0  0  0  0  0  0  0  0
  147.5621  134.0011  189.6407 O   0  0  0  0  0  0  0  0  0  0  0  0
 36 37  1  0  0  0
 37 38  2  0  0  0
 37 35  1  0  0  0
 35 22  1  0  0  0
 22 23  1  0  0  0
 23 24  2  0  0  0
 23 25  1  0  0  0
 25 26  1  0  0  0
 25 27  1  0  0  0
 27 28  1  0  0  0
 28 29  2  0  0  0
 29 30  1  0  0  0
 29 31  1  0  0  0
 31 21  1  0  0  0
 21  1  1  0  0  0
  1  2  2  0  0  0
  1  3  1  0  0  0
  3  5  1  0  0  0
  5  6  2  0  0  0
  6  7  1  0  0  0
  7  8  2  0  0  0
  8  9  1  0  0  0
  9 10  2  0  0  0
  9 11  1  0  0  0
 11 12  2  0  0  0
 12 13  1  0  0  0
 13 14  2  0  0  0
 14 15  1  0  0  0
 15 16  2  0  0  0
 14 17  1  0  0  0
 17 18  1  0  0  0
 17 19  1  0  0  0
 17 20  1  0  0  0
 31 32  1  0  0  0
 32 33  1  0  0  0
 33 34  2  0  0  0
 33 22  1  0  0  0
 32 27  2  0  0  0
 10  5  1  0  0  0
 16 11  1  0  0  0
  3  4  1  0  0  0
M  END
> <minimizedAffinity>
-7.72016

> <CNNscore>
0.2994071543

> <CNNaffinity>
6.3786196709

> <CNN_VS>
1.9098043442

> <CNNaffinity_variance>
0.0349850543

$$$$
[H]c1nc(C(F)(F)F)c([H])nc1-c1nc(N([H])C(=O)C([H])([H])n2c(C([H])([H])[H])nc3c2c(=O)n(C([H])([H])C(=O)C([H])([H])[H])c(=O)n3C([H])([H])[H])c([H])c([H])c1[H]


 38 41  0  0  0  0  0  0  0  0999 V2000
  151.9082  137.0598  183.8805 C   0  0  0  0  0  0  0  0  0  0  0  0
  150.7514  136.6838  183.3737 O   0  0  0  0  0  0  0  0  0  0  0  0
  151.8975  137.1164  185.2706 N   0  0  0  0  0  0  0  0  0  0  0  0
  150.9151  136.8527  185.7489 H   0  0  0  0  0  0  0  0  0  0  0  0
  152.8752  137.3606  186.2340 C   0  0  0  0  0  0  0  0  0  0  0  0
  152.7154  138.4953  187.0662 C   0  0  0  0  0  0  0  0  0  0  0  0
  153.5651  138.8093  188.0754 C   0  0  0  0  0  0  0  0  0  0  0  0
  154.6383  138.0232  188.3424 C   0  0  0  0  0  0  0  0  0  0  0  0
  154.8151  136.8998  187.5372 C   0  0  0  0  0  0  0  0  0  0  0  0
  153.9380  136.6102  186.5219 N   0  0  0  0  0  0  0  0  0  0  0  0
  155.9205  136.0100  187.7930 C   0  0  0  0  0  0  0  0  0  0  0  0
  156.1557  134.9176  187.0107 C   0  0  0  0  0  0  0  0  0  0  0  0
  157.2092  134.0914  187.2038 N   0  0  0  0  0  0  0  0  0  0  0  0
  158.0588  134.3469  188.2048 C   0  0  0  0  0  0  0  0  0  0  0  0
  157.8533  135.4411  189.0194 C   0  0  0  0  0  0  0  0  0  0  0  0
  156.7827  136.2594  188.7975 N   0  0  0  0  0  0  0  0  0  0  0  0
  159.2332  133.4550  188.4352 C   0  0  0  0  0  0  0  0  0  0  0  0
  158.9749  132.1796  188.0077 F   0  0  0  0  0  0  0  0  0  0  0  0
  159.5492  133.3924  189.7771 F   0  0  0  0  0  0  0  0  0  0  0  0
  160.3092  133.9617  187.7381 F   0  0  0  0  0  0  0  0  0  0  0  0
  153.0061  137.3635  182.9718 C   0  0  0  0  0  0  0  0  0  0  0  0
  156.1986  140.3775  184.1389 N   0  0  0  0  0  0  0  0  0  0  0  0
  155.9265  141.6055  183.6938 C   0  0  0  0  0  0  0  0  0  0  0  0
  156.7163  142.5668  183.9129 O   0  0  0  0  0  0  0  0  0  0  0  0
  154.8099  141.8730  182.9979 N   0  0  0  0  0  0  0  0  0  0  0  0
  154.4959  143.2012  182.4885 C   0  0  0  0  0  0  0  0  0  0  0  0
  153.9655  140.8633  182.7581 C   0  0  0  0  0  0  0  0  0  0  0  0
  152.8120  140.8624  182.0987 N   0  0  0  0  0  0  0  0  0  0  0  0
  152.3279  139.6039  182.1150 C   0  0  0  0  0  0  0  0  0  0  0  0
  151.0594  139.2432  181.4858 C   0  0  0  0  0  0  0  0  0  0  0  0
  153.1657  138.7958  182.7798 N   0  0  0  0  0  0  0  0  0  0  0  0
  154.1976  139.5517  183.1993 C   0  0  0  0  0  0  0  0  0  0  0  0
  155.3604  139.3484  183.9100 C   0  0  0  0  0  0  0  0  0  0  0  0
  155.6067  138.1977  184.3336 O   0  0  0  0  0  0  0  0  0  0  0  0
  157.4521  140.1629  184.8293 C   0  0  0  0  0  0  0  0  0  0  0  0
  159.7978  140.8869  184.0939 C   0  0  0  0  0  0  0  0  0  0  0  0
  158.6094  140.0227  183.9285 C   0  0  0  0  0  0  0  0  0  0  0  0
  158.6416  139.1913  183.0041 O   0  0  0  0  0  0  0  0  0  0  0  0
 36 37  1  0  0  0
 37 38  2  0  0  0
 37 35  1  0  0  0
 35 22  1  0  0  0
 22 23  1  0  0  0
 23 24  2  0  0  0
 23 25  1  0  0  0
 25 26  1  0  0  0
 25 27  1  0  0  0
 27 28  1  0  0  0
 28 29  2  0  0  0
 29 30  1  0  0  0
 29 31  1  0  0  0
 31 21  1  0  0  0
 21  1  1  0  0  0
  1  2  2  0  0  0
  1  3  1  0  0  0
  3  5  1  0  0  0
  5  6  2  0  0  0
  6  7  1  0  0  0
  7  8  2  0  0  0
  8  9  1  0  0  0
  9 10  2  0  0  0
  9 11  1  0  0  0
 11 12  2  0  0  0
 12 13  1  0  0  0
 13 14  2  0  0  0
 14 15  1  0  0  0
 15 16  2  0  0  0
 14 17  1  0  0  0
 17 18  1  0  0  0
 17 19  1  0  0  0
 17 20  1  0  0  0
 31 32  1  0  0  0
 32 33  1  0  0  0
 33 34  2  0  0  0
 33 22  1  0  0  0
 32 27  2  0  0  0
 10  5  1  0  0  0
 16 11  1  0  0  0
  3  4  1  0  0  0
M  END
> <minimizedAffinity>
-7.51113

> <CNNscore>
0.2919859290

> <CNNaffinity>
6.1766204834

> <CNN_VS>
1.8034862280

> <CNNaffinity_variance>
0.6178933382

$$$$
[H]c1nc(C(F)(F)F)c([H])nc1-c1nc(N([H])C(=O)C([H])([H])n2c(C([H])([H])[H])nc3c2c(=O)n(C([H])([H])C(=O)C([H])([H])[H])c(=O)n3C([H])([H])[H])c([H])c([H])c1[H]


 38 41  0  0  0  0  0  0  0  0999 V2000
  154.4977  138.3053  186.0796 C   0  0  0  0  0  0  0  0  0  0  0  0
  155.3562  137.4682  186.6260 O   0  0  0  0  0  0  0  0  0  0  0  0
  154.8854  138.7278  184.8120 N   0  0  0  0  0  0  0  0  0  0  0  0
  155.8659  138.3123  184.4524 H   0  0  0  0  0  0  0  0  0  0  0  0
  154.2823  139.5123  183.8298 C   0  0  0  0  0  0  0  0  0  0  0  0
  154.8200  140.8002  183.5890 C   0  0  0  0  0  0  0  0  0  0  0  0
  154.3600  141.6351  182.6243 C   0  0  0  0  0  0  0  0  0  0  0  0
  153.3337  141.2599  181.8202 C   0  0  0  0  0  0  0  0  0  0  0  0
  152.7895  139.9958  182.0378 C   0  0  0  0  0  0  0  0  0  0  0  0
  153.2763  139.1746  183.0240 N   0  0  0  0  0  0  0  0  0  0  0  0
  151.7170  139.5299  181.1940 C   0  0  0  0  0  0  0  0  0  0  0  0
  150.7992  138.6236  181.6380 C   0  0  0  0  0  0  0  0  0  0  0  0
  149.7601  138.2025  180.8813 N   0  0  0  0  0  0  0  0  0  0  0  0
  149.6219  138.6870  179.6422 C   0  0  0  0  0  0  0  0  0  0  0  0
  150.5314  139.6035  179.1564 C   0  0  0  0  0  0  0  0  0  0  0  0
  151.5681  140.0129  179.9454 N   0  0  0  0  0  0  0  0  0  0  0  0
  148.4803  138.2441  178.7889 C   0  0  0  0  0  0  0  0  0  0  0  0
  148.3551  136.8801  178.8023 F   0  0  0  0  0  0  0  0  0  0  0  0
  148.6628  138.6364  177.4785 F   0  0  0  0  0  0  0  0  0  0  0  0
  147.3239  138.8142  179.2771 F   0  0  0  0  0  0  0  0  0  0  0  0
  153.3060  138.6772  186.8312 C   0  0  0  0  0  0  0  0  0  0  0  0
  153.1813  136.1175  190.5822 N   0  0  0  0  0  0  0  0  0  0  0  0
  152.2600  135.1550  190.5114 C   0  0  0  0  0  0  0  0  0  0  0  0
  152.0762  134.3582  191.4744 O   0  0  0  0  0  0  0  0  0  0  0  0
  151.4922  134.9912  189.4222 N   0  0  0  0  0  0  0  0  0  0  0  0
  150.4699  133.9579  189.3246 C   0  0  0  0  0  0  0  0  0  0  0  0
  151.6762  135.8292  188.3957 C   0  0  0  0  0  0  0  0  0  0  0  0
  151.0526  135.8825  187.2236 N   0  0  0  0  0  0  0  0  0  0  0  0
  151.5806  136.9052  186.5209 C   0  0  0  0  0  0  0  0  0  0  0  0
  151.1315  137.2448  185.1725 C   0  0  0  0  0  0  0  0  0  0  0  0
  152.5390  137.5105  187.2364 N   0  0  0  0  0  0  0  0  0  0  0  0
  152.6279  136.8602  188.4117 C   0  0  0  0  0  0  0  0  0  0  0  0
  153.3834  136.9694  189.5589 C   0  0  0  0  0  0  0  0  0  0  0  0
  154.2525  137.8670  189.6171 O   0  0  0  0  0  0  0  0  0  0  0  0
  153.9250  136.2624  191.8151 C   0  0  0  0  0  0  0  0  0  0  0  0
  156.4723  136.4873  191.9816 C   0  0  0  0  0  0  0  0  0  0  0  0
  155.2670  135.6562  191.7735 C   0  0  0  0  0  0  0  0  0  0  0  0
  155.4481  134.4438  191.5633 O   0  0  0  0  0  0  0  0  0  0  0  0
 36 37  1  0  0  0
 37 38  2  0  0  0
 37 35  1  0  0  0
 35 22  1  0  0  0
 22 23  1  0  0  0
 23 24  2  0  0  0
 23 25  1  0  0  0
 25 26  1  0  0  0
 25 27  1  0  0  0
 27 28  1  0  0  0
 28 29  2  0  0  0
 29 30  1  0  0  0
 29 31  1  0  0  0
 31 21  1  0  0  0
 21  1  1  0  0  0
  1  2  2  0  0  0
  1  3  1  0  0  0
  3  5  1  0  0  0
  5  6  2  0  0  0
  6  7  1  0  0  0
  7  8  2  0  0  0
  8  9  1  0  0  0
  9 10  2  0  0  0
  9 11  1  0  0  0
 11 12  2  0  0  0
 12 13  1  0  0  0
 13 14  2  0  0  0
 14 15  1  0  0  0
 15 16  2  0  0  0
 14 17  1  0  0  0
 17 18  1  0  0  0
 17 19  1  0  0  0
 17 20  1  0  0  0
 31 32  1  0  0  0
 32 33  1  0  0  0
 33 34  2  0  0  0
 33 22  1  0  0  0
 32 27  2  0  0  0
 10  5  1  0  0  0
 16 11  1  0  0  0
  3  4  1  0  0  0
M  END
> <minimizedAffinity>
-7.45811

> <CNNscore>
0.2696052194

> <CNNaffinity>
5.9175863266

> <CNN_VS>
1.5954121351

> <CNNaffinity_variance>
0.1726554036

$$$$
[H]c1nc(C(F)(F)F)c([H])nc1-c1nc(N([H])C(=O)C([H])([H])n2c(C([H])([H])[H])nc3c2c(=O)n(C([H])([H])C(=O)C([H])([H])[H])c(=O)n3C([H])([H])[H])c([H])c([H])c1[H]


 38 41  0  0  0  0  0  0  0  0999 V2000
  153.0017  136.5510  184.9644 C   0  0  0  0  0  0  0  0  0  0  0  0
  153.0135  135.2343  185.0151 O   0  0  0  0  0  0  0  0  0  0  0  0
  154.0581  137.0738  184.2252 N   0  0  0  0  0  0  0  0  0  0  0  0
  154.7640  136.3095  183.8000 H   0  0  0  0  0  0  0  0  0  0  0  0
  154.4079  138.3609  183.8191 C   0  0  0  0  0  0  0  0  0  0  0  0
  153.4328  139.1268  183.1349 C   0  0  0  0  0  0  0  0  0  0  0  0
  153.6302  140.4088  182.7390 C   0  0  0  0  0  0  0  0  0  0  0  0
  154.8073  141.0346  182.9918 C   0  0  0  0  0  0  0  0  0  0  0  0
  155.7815  140.3008  183.6656 C   0  0  0  0  0  0  0  0  0  0  0  0
  155.5517  139.0038  184.0515 N   0  0  0  0  0  0  0  0  0  0  0  0
  157.0413  140.9231  183.9895 C   0  0  0  0  0  0  0  0  0  0  0  0
  157.8250  140.4646  185.0075 C   0  0  0  0  0  0  0  0  0  0  0  0
  159.0296  141.0038  185.3046 N   0  0  0  0  0  0  0  0  0  0  0  0
  159.4765  142.0332  184.5769 C   0  0  0  0  0  0  0  0  0  0  0  0
  158.7115  142.5268  183.5405 C   0  0  0  0  0  0  0  0  0  0  0  0
  157.5010  141.9592  183.2618 N   0  0  0  0  0  0  0  0  0  0  0  0
  160.8053  142.6420  184.8794 C   0  0  0  0  0  0  0  0  0  0  0  0
  161.0837  142.5772  186.2190 F   0  0  0  0  0  0  0  0  0  0  0  0
  160.8351  143.9707  184.5079 F   0  0  0  0  0  0  0  0  0  0  0  0
  161.7710  141.9522  184.1779 F   0  0  0  0  0  0  0  0  0  0  0  0
  151.9412  137.2698  185.6586 C   0  0  0  0  0  0  0  0  0  0  0  0
  153.7455  137.5378  189.8192 N   0  0  0  0  0  0  0  0  0  0  0  0
  153.0717  136.8130  190.7140 C   0  0  0  0  0  0  0  0  0  0  0  0
  153.4246  136.7844  191.9267 O   0  0  0  0  0  0  0  0  0  0  0  0
  151.9961  136.0871  190.3691 N   0  0  0  0  0  0  0  0  0  0  0  0
  151.2345  135.2987  191.3284 C   0  0  0  0  0  0  0  0  0  0  0  0
  151.6113  136.1096  189.0879 C   0  0  0  0  0  0  0  0  0  0  0  0
  150.5927  135.4926  188.4986 N   0  0  0  0  0  0  0  0  0  0  0  0
  150.6060  135.8284  187.1927 C   0  0  0  0  0  0  0  0  0  0  0  0
  149.6231  135.3156  186.2408 C   0  0  0  0  0  0  0  0  0  0  0  0
  151.6268  136.6597  186.9403 N   0  0  0  0  0  0  0  0  0  0  0  0
  152.2786  136.8527  188.1023 C   0  0  0  0  0  0  0  0  0  0  0  0
  153.3755  137.5717  188.5246 C   0  0  0  0  0  0  0  0  0  0  0  0
  154.0099  138.2420  187.6806 O   0  0  0  0  0  0  0  0  0  0  0  0
  154.8573  138.3381  190.2856 C   0  0  0  0  0  0  0  0  0  0  0  0
  156.7237  136.8471  189.3577 C   0  0  0  0  0  0  0  0  0  0  0  0
  156.0984  137.5702  190.4860 C   0  0  0  0  0  0  0  0  0  0  0  0
  156.6668  137.4920  191.5895 O   0  0  0  0  0  0  0  0  0  0  0  0
 36 37  1  0  0  0
 37 38  2  0  0  0
 37 35  1  0  0  0
 35 22  1  0  0  0
 22 23  1  0  0  0
 23 24  2  0  0  0
 23 25  1  0  0  0
 25 26  1  0  0  0
 25 27  1  0  0  0
 27 28  1  0  0  0
 28 29  2  0  0  0
 29 30  1  0  0  0
 29 31  1  0  0  0
 31 21  1  0  0  0
 21  1  1  0  0  0
  1  2  2  0  0  0
  1  3  1  0  0  0
  3  5  1  0  0  0
  5  6  2  0  0  0
  6  7  1  0  0  0
  7  8  2  0  0  0
  8  9  1  0  0  0
  9 10  2  0  0  0
  9 11  1  0  0  0
 11 12  2  0  0  0
 12 13  1  0  0  0
 13 14  2  0  0  0
 14 15  1  0  0  0
 15 16  2  0  0  0
 14 17  1  0  0  0
 17 18  1  0  0  0
 17 19  1  0  0  0
 17 20  1  0  0  0
 31 32  1  0  0  0
 32 33  1  0  0  0
 33 34  2  0  0  0
 33 22  1  0  0  0
 32 27  2  0  0  0
 10  5  1  0  0  0
 16 11  1  0  0  0
  3  4  1  0  0  0
M  END
> <minimizedAffinity>
-8.06448

> <CNNscore>
0.2572169602

> <CNNaffinity>
6.3433666229

> <CNN_VS>
1.6316214800

> <CNNaffinity_variance>
0.3639693856

$$$$
[H]c1nc(C(F)(F)F)c([H])nc1-c1nc(N([H])C(=O)C([H])([H])n2c(C([H])([H])[H])nc3c2c(=O)n(C([H])([H])C(=O)C([H])([H])[H])c(=O)n3C([H])([H])[H])c([H])c([H])c1[H]


 38 41  0  0  0  0  0  0  0  0999 V2000
  153.4010  136.6520  188.8646 C   0  0  0  0  0  0  0  0  0  0  0  0
  153.0500  136.7464  190.1312 O   0  0  0  0  0  0  0  0  0  0  0  0
  153.7807  137.8727  188.3155 N   0  0  0  0  0  0  0  0  0  0  0  0
  153.7181  138.7487  189.0169 H   0  0  0  0  0  0  0  0  0  0  0  0
  154.3056  138.2542  187.0815 C   0  0  0  0  0  0  0  0  0  0  0  0
  155.7143  138.3282  186.9560 C   0  0  0  0  0  0  0  0  0  0  0  0
  156.3477  138.6312  185.7958 C   0  0  0  0  0  0  0  0  0  0  0  0
  155.6367  138.8821  184.6677 C   0  0  0  0  0  0  0  0  0  0  0  0
  154.2486  138.8136  184.7669 C   0  0  0  0  0  0  0  0  0  0  0  0
  153.6372  138.5060  185.9567 N   0  0  0  0  0  0  0  0  0  0  0  0
  153.4411  139.0402  183.5939 C   0  0  0  0  0  0  0  0  0  0  0  0
  153.7640  139.9970  182.6768 C   0  0  0  0  0  0  0  0  0  0  0  0
  153.0473  140.2011  181.5478 N   0  0  0  0  0  0  0  0  0  0  0  0
  151.9725  139.4396  181.3154 C   0  0  0  0  0  0  0  0  0  0  0  0
  151.6124  138.4629  182.2208 C   0  0  0  0  0  0  0  0  0  0  0  0
  152.3578  138.2777  183.3499 N   0  0  0  0  0  0  0  0  0  0  0  0
  151.1684  139.6396  180.0740 C   0  0  0  0  0  0  0  0  0  0  0  0
  151.9246  140.2073  179.0830 F   0  0  0  0  0  0  0  0  0  0  0  0
  150.0935  140.4718  180.3114 F   0  0  0  0  0  0  0  0  0  0  0  0
  150.7073  138.4113  179.6504 F   0  0  0  0  0  0  0  0  0  0  0  0
  153.3471  135.3474  188.2177 C   0  0  0  0  0  0  0  0  0  0  0  0
  153.6258  134.8300  183.7130 N   0  0  0  0  0  0  0  0  0  0  0  0
  152.4279  134.8299  183.1254 C   0  0  0  0  0  0  0  0  0  0  0  0
  152.3161  134.6801  181.8760 O   0  0  0  0  0  0  0  0  0  0  0  0
  151.2958  134.9873  183.8299 N   0  0  0  0  0  0  0  0  0  0  0  0
  149.9751  134.9769  183.2152 C   0  0  0  0  0  0  0  0  0  0  0  0
  151.4004  135.1457  185.1542 C   0  0  0  0  0  0  0  0  0  0  0  0
  150.4476  135.3127  186.0651 N   0  0  0  0  0  0  0  0  0  0  0  0
  151.0425  135.4202  187.2704 C   0  0  0  0  0  0  0  0  0  0  0  0
  150.2855  135.6241  188.5035 C   0  0  0  0  0  0  0  0  0  0  0  0
  152.3728  135.3212  187.1388 N   0  0  0  0  0  0  0  0  0  0  0  0
  152.6311  135.1537  185.8283 C   0  0  0  0  0  0  0  0  0  0  0  0
  153.7523  134.9903  185.0442 C   0  0  0  0  0  0  0  0  0  0  0  0
  154.8736  135.0007  185.5980 O   0  0  0  0  0  0  0  0  0  0  0  0
  154.7915  134.5948  182.8884 C   0  0  0  0  0  0  0  0  0  0  0  0
  156.3753  132.6726  183.4917 C   0  0  0  0  0  0  0  0  0  0  0  0
  155.1736  133.1753  182.7918 C   0  0  0  0  0  0  0  0  0  0  0  0
  154.5204  132.3495  182.1297 O   0  0  0  0  0  0  0  0  0  0  0  0
 36 37  1  0  0  0
 37 38  2  0  0  0
 37 35  1  0  0  0
 35 22  1  0  0  0
 22 23  1  0  0  0
 23 24  2  0  0  0
 23 25  1  0  0  0
 25 26  1  0  0  0
 25 27  1  0  0  0
 27 28  1  0  0  0
 28 29  2  0  0  0
 29 30  1  0  0  0
 29 31  1  0  0  0
 31 21  1  0  0  0
 21  1  1  0  0  0
  1  2  2  0  0  0
  1  3  1  0  0  0
  3  5  1  0  0  0
  5  6  2  0  0  0
  6  7  1  0  0  0
  7  8  2  0  0  0
  8  9  1  0  0  0
  9 10  2  0  0  0
  9 11  1  0  0  0
 11 12  2  0  0  0
 12 13  1  0  0  0
 13 14  2  0  0  0
 14 15  1  0  0  0
 15 16  2  0  0  0
 14 17  1  0  0  0
 17 18  1  0  0  0
 17 19  1  0  0  0
 17 20  1  0  0  0
 31 32  1  0  0  0
 32 33  1  0  0  0
 33 34  2  0  0  0
 33 22  1  0  0  0
 32 27  2  0  0  0
 10  5  1  0  0  0
 16 11  1  0  0  0
  3  4  1  0  0  0
M  END
> <minimizedAffinity>
-5.62219

> <CNNscore>
0.2514992356

> <CNNaffinity>
5.7231283188

> <CNN_VS>
1.4393624067

> <CNNaffinity_variance>
0.5507340431

$$$$
[H]c1nc(C(F)(F)F)c([H])nc1-c1nc(N([H])C(=O)C([H])([H])n2c(C([H])([H])[H])nc3c2c(=O)n(C([H])([H])C(=O)C([H])([H])[H])c(=O)n3C([H])([H])[H])c([H])c([H])c1[H]


 38 41  0  0  0  0  0  0  0  0999 V2000
  153.7245  137.8121  185.0081 C   0  0  0  0  0  0  0  0  0  0  0  0
  153.3300  136.5747  184.7856 O   0  0  0  0  0  0  0  0  0  0  0  0
  154.5036  138.3259  183.9762 N   0  0  0  0  0  0  0  0  0  0  0  0
  154.6924  137.6161  183.1254 H   0  0  0  0  0  0  0  0  0  0  0  0
  155.0565  139.5791  183.7164 C   0  0  0  0  0  0  0  0  0  0  0  0
  154.2668  140.5168  183.0075 C   0  0  0  0  0  0  0  0  0  0  0  0
  154.6677  141.7850  182.7426 C   0  0  0  0  0  0  0  0  0  0  0  0
  155.8808  142.2258  183.1610 C   0  0  0  0  0  0  0  0  0  0  0  0
  156.6750  141.3207  183.8622 C   0  0  0  0  0  0  0  0  0  0  0  0
  156.2412  140.0428  184.1128 N   0  0  0  0  0  0  0  0  0  0  0  0
  157.9615  141.7417  184.3589 C   0  0  0  0  0  0  0  0  0  0  0  0
  158.3690  141.4503  185.6277 C   0  0  0  0  0  0  0  0  0  0  0  0
  159.5868  141.7969  186.1038 N   0  0  0  0  0  0  0  0  0  0  0  0
  160.4316  142.4576  185.3045 C   0  0  0  0  0  0  0  0  0  0  0  0
  160.0548  142.7728  184.0153 C   0  0  0  0  0  0  0  0  0  0  0  0
  158.8201  142.4060  183.5614 N   0  0  0  0  0  0  0  0  0  0  0  0
  161.7838  142.8459  185.8028 C   0  0  0  0  0  0  0  0  0  0  0  0
  162.7647  142.4288  184.9424 F   0  0  0  0  0  0  0  0  0  0  0  0
  162.0369  142.2786  187.0351 F   0  0  0  0  0  0  0  0  0  0  0  0
  161.8291  144.2190  185.9167 F   0  0  0  0  0  0  0  0  0  0  0  0
  153.3245  138.4630  186.2489 C   0  0  0  0  0  0  0  0  0  0  0  0
  149.9557  135.8009  187.7327 N   0  0  0  0  0  0  0  0  0  0  0  0
  150.3239  135.0422  188.7666 C   0  0  0  0  0  0  0  0  0  0  0  0
  149.5162  134.2281  189.2966 O   0  0  0  0  0  0  0  0  0  0  0  0
  151.5601  135.1087  189.2863 N   0  0  0  0  0  0  0  0  0  0  0  0
  151.9921  134.2820  190.4052 C   0  0  0  0  0  0  0  0  0  0  0  0
  152.4256  135.9662  188.7334 C   0  0  0  0  0  0  0  0  0  0  0  0
  153.6911  136.2158  189.0521 N   0  0  0  0  0  0  0  0  0  0  0  0
  154.1533  137.1556  188.2027 C   0  0  0  0  0  0  0  0  0  0  0  0
  155.5166  137.6765  188.2757 C   0  0  0  0  0  0  0  0  0  0  0  0
  153.1917  137.5097  187.3385 N   0  0  0  0  0  0  0  0  0  0  0  0
  152.0970  136.7887  187.6451 C   0  0  0  0  0  0  0  0  0  0  0  0
  150.8112  136.6716  187.1637 C   0  0  0  0  0  0  0  0  0  0  0  0
  150.4674  137.3916  186.2006 O   0  0  0  0  0  0  0  0  0  0  0  0
  148.6234  135.6244  187.1958 C   0  0  0  0  0  0  0  0  0  0  0  0
  146.8117  136.2926  188.8805 C   0  0  0  0  0  0  0  0  0  0  0  0
  147.6458  136.6043  187.6999 C   0  0  0  0  0  0  0  0  0  0  0  0
  147.4759  137.7155  187.1676 O   0  0  0  0  0  0  0  0  0  0  0  0
 36 37  1  0  0  0
 37 38  2  0  0  0
 37 35  1  0  0  0
 35 22  1  0  0  0
 22 23  1  0  0  0
 23 24  2  0  0  0
 23 25  1  0  0  0
 25 26  1  0  0  0
 25 27  1  0  0  0
 27 28  1  0  0  0
 28 29  2  0  0  0
 29 30  1  0  0  0
 29 31  1  0  0  0
 31 21  1  0  0  0
 21  1  1  0  0  0
  1  2  2  0  0  0
  1  3  1  0  0  0
  3  5  1  0  0  0
  5  6  2  0  0  0
  6  7  1  0  0  0
  7  8  2  0  0  0
  8  9  1  0  0  0
  9 10  2  0  0  0
  9 11  1  0  0  0
 11 12  2  0  0  0
 12 13  1  0  0  0
 13 14  2  0  0  0
 14 15  1  0  0  0
 15 16  2  0  0  0
 14 17  1  0  0  0
 17 18  1  0  0  0
 17 19  1  0  0  0
 17 20  1  0  0  0
 31 32  1  0  0  0
 32 33  1  0  0  0
 33 34  2  0  0  0
 33 22  1  0  0  0
 32 27  2  0  0  0
 10  5  1  0  0  0
 16 11  1  0  0  0
  3  4  1  0  0  0
M  END
> <minimizedAffinity>
-7.96370

> <CNNscore>
0.2310360819

> <CNNaffinity>
6.3011341095

> <CNN_VS>
1.4557893276

> <CNNaffinity_variance>
0.1325635612

$$$$
[H]C1=Nc2c([H])c([H])c([H])c([H])c2C([H])([H])c2c(Br)c([H])c([H])c([H])c21


 16 18  0  0  0  0  0  0  0  0999 V2000
  156.0731  137.5639  191.1421 Br  0  0  0  0  0  0  0  0  0  0  0  0
  154.6971  137.5847  189.8154 C   0  0  0  0  0  0  0  0  0  0  0  0
  154.7577  138.3989  188.7055 C   0  0  0  0  0  0  0  0  0  0  0  0
  153.7581  138.4016  187.7594 C   0  0  0  0  0  0  0  0  0  0  0  0
  152.6872  137.5550  187.9637 C   0  0  0  0  0  0  0  0  0  0  0  0
  152.6129  136.7297  189.0768 C   0  0  0  0  0  0  0  0  0  0  0  0
  151.4035  135.9107  189.1179 C   0  0  0  0  0  0  0  0  0  0  0  0
  150.7991  135.4254  190.1880 N   0  0  0  0  0  0  0  0  0  0  0  0
  151.1880  135.5894  191.5491 C   0  0  0  0  0  0  0  0  0  0  0  0
  150.1429  135.5075  192.4468 C   0  0  0  0  0  0  0  0  0  0  0  0
  150.3359  135.6461  193.8101 C   0  0  0  0  0  0  0  0  0  0  0  0
  151.6204  135.8707  194.2389 C   0  0  0  0  0  0  0  0  0  0  0  0
  152.6703  135.9565  193.3806 C   0  0  0  0  0  0  0  0  0  0  0  0
  152.4729  135.8154  191.9952 C   0  0  0  0  0  0  0  0  0  0  0  0
  153.7666  135.9453  191.2789 C   0  0  0  0  0  0  0  0  0  0  0  0
  153.6137  136.7256  190.0257 C   0  0  0  0  0  0  0  0  0  0  0  0
  1  2  1  0  0  0
  2  3  2  0  0  0
  3  4  1  0  0  0
  4  5  2  0  0  0
  5  6  1  0  0  0
  6  7  1  0  0  0
  7  8  2  0  0  0
  8  9  1  0  0  0
  9 10  2  0  0  0
 10 11  1  0  0  0
 11 12  2  0  0  0
 12 13  1  0  0  0
 13 14  2  0  0  0
 14 15  1  0  0  0
 15 16  1  0  0  0
 16  2  1  0  0  0
 16  6  2  0  0  0
 14  9  1  0  0  0
M  END
> <minimizedAffinity>
-5.82073

> <CNNscore>
0.7531818151

> <CNNaffinity>
4.4650392532

> <CNN_VS>
3.3629863262

> <CNNaffinity_variance>
0.0551360063

$$$$
[H]C1=Nc2c([H])c([H])c([H])c([H])c2C([H])([H])c2c(Br)c([H])c([H])c([H])c21


 16 18  0  0  0  0  0  0  0  0999 V2000
  160.8603  142.3772  185.4238 Br  0  0  0  0  0  0  0  0  0  0  0  0
  159.9287  143.2363  183.9928 C   0  0  0  0  0  0  0  0  0  0  0  0
  160.1344  144.5602  183.6711 C   0  0  0  0  0  0  0  0  0  0  0  0
  159.4551  145.1637  182.6373 C   0  0  0  0  0  0  0  0  0  0  0  0
  158.5556  144.3908  181.9309 C   0  0  0  0  0  0  0  0  0  0  0  0
  158.3383  143.0565  182.2438 C   0  0  0  0  0  0  0  0  0  0  0  0
  157.3483  142.4085  181.3864 C   0  0  0  0  0  0  0  0  0  0  0  0
  156.5778  141.3781  181.6874 N   0  0  0  0  0  0  0  0  0  0  0  0
  156.5351  140.6615  182.9183 C   0  0  0  0  0  0  0  0  0  0  0  0
  155.3192  140.0630  183.1792 C   0  0  0  0  0  0  0  0  0  0  0  0
  155.0964  139.3285  184.3307 C   0  0  0  0  0  0  0  0  0  0  0  0
  156.1428  139.2175  185.2122 C   0  0  0  0  0  0  0  0  0  0  0  0
  157.3516  139.7947  184.9844 C   0  0  0  0  0  0  0  0  0  0  0  0
  157.5768  140.5408  183.8136 C   0  0  0  0  0  0  0  0  0  0  0  0
  158.9671  141.0608  183.7985 C   0  0  0  0  0  0  0  0  0  0  0  0
  159.0182  142.4502  183.2792 C   0  0  0  0  0  0  0  0  0  0  0  0
  1  2  1  0  0  0
  2  3  2  0  0  0
  3  4  1  0  0  0
  4  5  2  0  0  0
  5  6  1  0  0  0
  6  7  1  0  0  0
  7  8  2  0  0  0
  8  9  1  0  0  0
  9 10  2  0  0  0
 10 11  1  0  0  0
 11 12  2  0  0  0
 12 13  1  0  0  0
 13 14  2  0  0  0
 14 15  1  0  0  0
 15 16  1  0  0  0
 16  2  1  0  0  0
 16  6  2  0  0  0
 14  9  1  0  0  0
M  END
> <minimizedAffinity>
-7.73455

> <CNNscore>
0.6943157315

> <CNNaffinity>
5.7450037003

> <CNN_VS>
3.9888465405

> <CNNaffinity_variance>
0.0983891711

$$$$
[H]C1=Nc2c([H])c([H])c([H])c([H])c2C([H])([H])c2c(Br)c([H])c([H])c([H])c21


 16 18  0  0  0  0  0  0  0  0999 V2000
  156.3567  138.0449  190.7286 Br  0  0  0  0  0  0  0  0  0  0  0  0
  156.1576  136.2041  190.2536 C   0  0  0  0  0  0  0  0  0  0  0  0
  156.8284  135.6424  189.1891 C   0  0  0  0  0  0  0  0  0  0  0  0
  156.6738  134.3148  188.8605 C   0  0  0  0  0  0  0  0  0  0  0  0
  155.8180  133.5626  189.6398 C   0  0  0  0  0  0  0  0  0  0  0  0
  155.1360  134.1150  190.7146 C   0  0  0  0  0  0  0  0  0  0  0  0
  154.2765  133.1623  191.4139 C   0  0  0  0  0  0  0  0  0  0  0  0
  153.1828  133.4268  192.1066 N   0  0  0  0  0  0  0  0  0  0  0  0
  152.5895  134.7029  192.3309 C   0  0  0  0  0  0  0  0  0  0  0  0
  151.2283  134.6591  192.5545 C   0  0  0  0  0  0  0  0  0  0  0  0
  150.4872  135.8043  192.7877 C   0  0  0  0  0  0  0  0  0  0  0  0
  151.1658  136.9975  192.7879 C   0  0  0  0  0  0  0  0  0  0  0  0
  152.5050  137.0739  192.5711 C   0  0  0  0  0  0  0  0  0  0  0  0
  153.2571  135.9092  192.3343 C   0  0  0  0  0  0  0  0  0  0  0  0
  154.6862  136.2562  192.1317 C   0  0  0  0  0  0  0  0  0  0  0  0
  155.2899  135.4450  191.0454 C   0  0  0  0  0  0  0  0  0  0  0  0
  1  2  1  0  0  0
  2  3  2  0  0  0
  3  4  1  0  0  0
  4  5  2  0  0  0
  5  6  1  0  0  0
  6  7  1  0  0  0
  7  8  2  0  0  0
  8  9  1  0  0  0
  9 10  2  0  0  0
 10 11  1  0  0  0
 11 12  2  0  0  0
 12 13  1  0  0  0
 13 14  2  0  0  0
 14 15  1  0  0  0
 15 16  1  0  0  0
 16  2  1  0  0  0
 16  6  2  0  0  0
 14  9  1  0  0  0
M  END
> <minimizedAffinity>
-4.98664

> <CNNscore>
0.6810626984

> <CNNaffinity>
4.3867940903

> <CNN_VS>
2.9876818657

> <CNNaffinity_variance>
0.0458206348

$$$$
[H]C1=Nc2c([H])c([H])c([H])c([H])c2C([H])([H])c2c(Br)c([H])c([H])c([H])c21


 16 18  0  0  0  0  0  0  0  0999 V2000
  150.6765  140.2568  179.1077 Br  0  0  0  0  0  0  0  0  0  0  0  0
  150.1258  138.6530  179.9899 C   0  0  0  0  0  0  0  0  0  0  0  0
  148.8689  138.1147  179.8204 C   0  0  0  0  0  0  0  0  0  0  0  0
  148.4882  136.9587  180.4632 C   0  0  0  0  0  0  0  0  0  0  0  0
  149.4159  136.3551  181.2881 C   0  0  0  0  0  0  0  0  0  0  0  0
  150.6852  136.8861  181.4683 C   0  0  0  0  0  0  0  0  0  0  0  0
  151.5208  136.1077  182.3800 C   0  0  0  0  0  0  0  0  0  0  0  0
  152.5211  136.5462  183.1236 N   0  0  0  0  0  0  0  0  0  0  0  0
  153.0153  137.8801  183.2076 C   0  0  0  0  0  0  0  0  0  0  0  0
  153.6201  138.1814  184.4111 C   0  0  0  0  0  0  0  0  0  0  0  0
  154.1546  139.4314  184.6694 C   0  0  0  0  0  0  0  0  0  0  0  0
  154.0587  140.3695  183.6719 C   0  0  0  0  0  0  0  0  0  0  0  0
  153.4695  140.1040  182.4766 C   0  0  0  0  0  0  0  0  0  0  0  0
  152.9266  138.8331  182.2152 C   0  0  0  0  0  0  0  0  0  0  0  0
  152.3478  138.7959  180.8488 C   0  0  0  0  0  0  0  0  0  0  0  0
  151.0684  138.0442  180.8248 C   0  0  0  0  0  0  0  0  0  0  0  0
  1  2  1  0  0  0
  2  3  2  0  0  0
  3  4  1  0  0  0
  4  5  2  0  0  0
  5  6  1  0  0  0
  6  7  1  0  0  0
  7  8  2  0  0  0
  8  9  1  0  0  0
  9 10  2  0  0  0
 10 11  1  0  0  0
 11 12  2  0  0  0
 12 13  1  0  0  0
 13 14  2  0  0  0
 14 15  1  0  0  0
 15 16  1  0  0  0
 16  2  1  0  0  0
 16  6  2  0  0  0
 14  9  1  0  0  0
M  END
> <minimizedAffinity>
-5.45608

> <CNNscore>
0.6505371332

> <CNNaffinity>
4.4166269302

> <CNN_VS>
2.8731799126

> <CNNaffinity_variance>
0.0866727829

$$$$
[H]C1=Nc2c([H])c([H])c([H])c([H])c2C([H])([H])c2c(Br)c([H])c([H])c([H])c21


 16 18  0  0  0  0  0  0  0  0999 V2000
  156.5364  138.0660  190.0143 Br  0  0  0  0  0  0  0  0  0  0  0  0
  155.6737  136.4423  190.5366 C   0  0  0  0  0  0  0  0  0  0  0  0
  154.8658  136.3638  191.6500 C   0  0  0  0  0  0  0  0  0  0  0  0
  154.2518  135.1864  192.0122 C   0  0  0  0  0  0  0  0  0  0  0  0
  154.4759  134.0815  191.2158 C   0  0  0  0  0  0  0  0  0  0  0  0
  155.2870  134.1459  190.0918 C   0  0  0  0  0  0  0  0  0  0  0  0
  155.4042  132.8744  189.3815 C   0  0  0  0  0  0  0  0  0  0  0  0
  156.4097  132.4660  188.6277 N   0  0  0  0  0  0  0  0  0  0  0  0
  157.6121  133.1723  188.3344 C   0  0  0  0  0  0  0  0  0  0  0  0
  158.6875  132.3569  188.0455 C   0  0  0  0  0  0  0  0  0  0  0  0
  159.9354  132.8712  187.7401 C   0  0  0  0  0  0  0  0  0  0  0  0
  160.0630  134.2379  187.7357 C   0  0  0  0  0  0  0  0  0  0  0  0
  159.0239  135.0674  188.0157 C   0  0  0  0  0  0  0  0  0  0  0  0
  157.7560  134.5435  188.3259 C   0  0  0  0  0  0  0  0  0  0  0  0
  156.7975  135.6463  188.5876 C   0  0  0  0  0  0  0  0  0  0  0  0
  155.9029  135.3249  189.7273 C   0  0  0  0  0  0  0  0  0  0  0  0
  1  2  1  0  0  0
  2  3  2  0  0  0
  3  4  1  0  0  0
  4  5  2  0  0  0
  5  6  1  0  0  0
  6  7  1  0  0  0
  7  8  2  0  0  0
  8  9  1  0  0  0
  9 10  2  0  0  0
 10 11  1  0  0  0
 11 12  2  0  0  0
 12 13  1  0  0  0
 13 14  2  0  0  0
 14 15  1  0  0  0
 15 16  1  0  0  0
 16  2  1  0  0  0
 16  6  2  0  0  0
 14  9  1  0  0  0
M  END
> <minimizedAffinity>
-4.79295

> <CNNscore>
0.6260792613

> <CNNaffinity>
4.3557271957

> <CNN_VS>
2.7270305157

> <CNNaffinity_variance>
0.0568586998

$$$$
[H]C1=Nc2c([H])c([H])c([H])c([H])c2C([H])([H])c2c(Br)c([H])c([H])c([H])c21


 16 18  0  0  0  0  0  0  0  0999 V2000
  154.4919  137.0852  187.0108 Br  0  0  0  0  0  0  0  0  0  0  0  0
  154.9965  137.3338  188.8376 C   0  0  0  0  0  0  0  0  0  0  0  0
  154.7622  138.5125  189.5116 C   0  0  0  0  0  0  0  0  0  0  0  0
  155.1319  138.6750  190.8273 C   0  0  0  0  0  0  0  0  0  0  0  0
  155.7493  137.6092  191.4504 C   0  0  0  0  0  0  0  0  0  0  0  0
  155.9917  136.4164  190.7840 C   0  0  0  0  0  0  0  0  0  0  0  0
  156.6564  135.4102  191.6091 C   0  0  0  0  0  0  0  0  0  0  0  0
  157.4363  134.4250  191.2003 N   0  0  0  0  0  0  0  0  0  0  0  0
  157.8090  134.1174  189.8597 C   0  0  0  0  0  0  0  0  0  0  0  0
  159.0210  133.4667  189.7478 C   0  0  0  0  0  0  0  0  0  0  0  0
  159.5414  133.0936  188.5210 C   0  0  0  0  0  0  0  0  0  0  0  0
  158.7975  133.3992  187.4086 C   0  0  0  0  0  0  0  0  0  0  0  0
  157.6012  134.0388  187.4855 C   0  0  0  0  0  0  0  0  0  0  0  0
  157.0732  134.4174  188.7330 C   0  0  0  0  0  0  0  0  0  0  0  0
  155.7639  135.0924  188.5501 C   0  0  0  0  0  0  0  0  0  0  0  0
  155.6217  136.2518  189.4657 C   0  0  0  0  0  0  0  0  0  0  0  0
  1  2  1  0  0  0
  2  3  2  0  0  0
  3  4  1  0  0  0
  4  5  2  0  0  0
  5  6  1  0  0  0
  6  7  1  0  0  0
  7  8  2  0  0  0
  8  9  1  0  0  0
  9 10  2  0  0  0
 10 11  1  0  0  0
 11 12  2  0  0  0
 12 13  1  0  0  0
 13 14  2  0  0  0
 14 15  1  0  0  0
 15 16  1  0  0  0
 16  2  1  0  0  0
 16  6  2  0  0  0
 14  9  1  0  0  0
M  END
> <minimizedAffinity>
-5.67429

> <CNNscore>
0.5911294818

> <CNNaffinity>
4.4585952759

> <CNN_VS>
2.6356070042

> <CNNaffinity_variance>
0.0707945526

$$$$
[H]C1=Nc2c([H])c([H])c([H])c([H])c2C([H])([H])c2c(Br)c([H])c([H])c([H])c21


 16 18  0  0  0  0  0  0  0  0999 V2000
  152.6534  136.5472  182.3645 Br  0  0  0  0  0  0  0  0  0  0  0  0
  151.7844  137.9427  181.3891 C   0  0  0  0  0  0  0  0  0  0  0  0
  152.4586  138.7446  180.4942 C   0  0  0  0  0  0  0  0  0  0  0  0
  151.8176  139.7452  179.7998 C   0  0  0  0  0  0  0  0  0  0  0  0
  150.4681  139.9173  180.0335 C   0  0  0  0  0  0  0  0  0  0  0  0
  149.7765  139.1173  180.9319 C   0  0  0  0  0  0  0  0  0  0  0  0
  148.3592  139.4549  181.0447 C   0  0  0  0  0  0  0  0  0  0  0  0
  147.5688  139.2616  182.0857 N   0  0  0  0  0  0  0  0  0  0  0  0
  147.9171  138.6795  183.3389 C   0  0  0  0  0  0  0  0  0  0  0  0
  147.1379  139.1078  184.3944 C   0  0  0  0  0  0  0  0  0  0  0  0
  147.3366  138.6493  185.6849 C   0  0  0  0  0  0  0  0  0  0  0  0
  148.3493  137.7426  185.8759 C   0  0  0  0  0  0  0  0  0  0  0  0
  149.1337  137.3014  184.8578 C   0  0  0  0  0  0  0  0  0  0  0  0
  148.9307  137.7682  183.5467 C   0  0  0  0  0  0  0  0  0  0  0  0
  149.9069  137.1378  182.6230 C   0  0  0  0  0  0  0  0  0  0  0  0
  150.4171  138.1140  181.6284 C   0  0  0  0  0  0  0  0  0  0  0  0
  1  2  1  0  0  0
  2  3  2  0  0  0
  3  4  1  0  0  0
  4  5  2  0  0  0
  5  6  1  0  0  0
  6  7  1  0  0  0
  7  8  2  0  0  0
  8  9  1  0  0  0
  9 10  2  0  0  0
 10 11  1  0  0  0
 11 12  2  0  0  0
 12 13  1  0  0  0
 13 14  2  0  0  0
 14 15  1  0  0  0
 15 16  1  0  0  0
 16  2  1  0  0  0
 16  6  2  0  0  0
 14  9  1  0  0  0
M  END
> <minimizedAffinity>
-5.22110

> <CNNscore>
0.5818104148

> <CNNaffinity>
4.4763579369

> <CNN_VS>
2.6043915749

> <CNNaffinity_variance>
0.0250711106

$$$$
[H]C1=Nc2c([H])c([H])c([H])c([H])c2C([H])([H])c2c(Br)c([H])c([H])c([H])c21


 16 18  0  0  0  0  0  0  0  0999 V2000
  159.2331  139.5631  183.9939 Br  0  0  0  0  0  0  0  0  0  0  0  0
  159.6371  141.4311  183.9577 C   0  0  0  0  0  0  0  0  0  0  0  0
  160.6913  141.9695  184.6628 C   0  0  0  0  0  0  0  0  0  0  0  0
  160.9686  143.3171  184.6258 C   0  0  0  0  0  0  0  0  0  0  0  0
  160.1481  144.1139  183.8529 C   0  0  0  0  0  0  0  0  0  0  0  0
  159.0828  143.5854  183.1377 C   0  0  0  0  0  0  0  0  0  0  0  0
  158.3307  144.5860  182.3839 C   0  0  0  0  0  0  0  0  0  0  0  0
  157.0593  144.5338  182.0278 N   0  0  0  0  0  0  0  0  0  0  0  0
  156.1286  143.4890  182.2976 C   0  0  0  0  0  0  0  0  0  0  0  0
  154.8138  143.9057  182.3478 C   0  0  0  0  0  0  0  0  0  0  0  0
  153.7760  143.0262  182.6017 C   0  0  0  0  0  0  0  0  0  0  0  0
  154.1088  141.7099  182.8038 C   0  0  0  0  0  0  0  0  0  0  0  0
  155.3932  141.2685  182.7610 C   0  0  0  0  0  0  0  0  0  0  0  0
  156.4471  142.1633  182.5027 C   0  0  0  0  0  0  0  0  0  0  0  0
  157.7435  141.4403  182.5052 C   0  0  0  0  0  0  0  0  0  0  0  0
  158.8037  142.2352  183.1735 C   0  0  0  0  0  0  0  0  0  0  0  0
  1  2  1  0  0  0
  2  3  2  0  0  0
  3  4  1  0  0  0
  4  5  2  0  0  0
  5  6  1  0  0  0
  6  7  1  0  0  0
  7  8  2  0  0  0
  8  9  1  0  0  0
  9 10  2  0  0  0
 10 11  1  0  0  0
 11 12  2  0  0  0
 12 13  1  0  0  0
 13 14  2  0  0  0
 14 15  1  0  0  0
 15 16  1  0  0  0
 16  2  1  0  0  0
 16  6  2  0  0  0
 14  9  1  0  0  0
M  END
> <minimizedAffinity>
-7.68080

> <CNNscore>
0.5521961451

> <CNNaffinity>
5.7547478676

> <CNN_VS>
3.1777496338

> <CNNaffinity_variance>
0.1974738836

$$$$
[H]C1=Nc2c([H])c([H])c([H])c([H])c2C([H])([H])c2c(Br)c([H])c([H])c([H])c21


 16 18  0  0  0  0  0  0  0  0999 V2000
  155.4152  143.7871  182.3318 Br  0  0  0  0  0  0  0  0  0  0  0  0
  155.6642  142.0446  183.0771 C   0  0  0  0  0  0  0  0  0  0  0  0
  154.6092  141.2747  183.5161 C   0  0  0  0  0  0  0  0  0  0  0  0
  154.8059  140.0216  184.0503 C   0  0  0  0  0  0  0  0  0  0  0  0
  156.1049  139.5618  184.1309 C   0  0  0  0  0  0  0  0  0  0  0  0
  157.1769  140.3262  183.6927 C   0  0  0  0  0  0  0  0  0  0  0  0
  158.4715  139.6704  183.8640 C   0  0  0  0  0  0  0  0  0  0  0  0
  159.6494  140.2485  184.0195 N   0  0  0  0  0  0  0  0  0  0  0  0
  159.9282  141.6455  184.0564 C   0  0  0  0  0  0  0  0  0  0  0  0
  161.0564  141.9753  184.7799 C   0  0  0  0  0  0  0  0  0  0  0  0
  161.4764  143.2859  184.9246 C   0  0  0  0  0  0  0  0  0  0  0  0
  160.7194  144.2548  184.3143 C   0  0  0  0  0  0  0  0  0  0  0  0
  159.6040  143.9626  183.5955 C   0  0  0  0  0  0  0  0  0  0  0  0
  159.1782  142.6301  183.4490 C   0  0  0  0  0  0  0  0  0  0  0  0
  157.9461  142.5753  182.6228 C   0  0  0  0  0  0  0  0  0  0  0  0
  156.9816  141.5819  183.1570 C   0  0  0  0  0  0  0  0  0  0  0  0
  1  2  1  0  0  0
  2  3  2  0  0  0
  3  4  1  0  0  0
  4  5  2  0  0  0
  5  6  1  0  0  0
  6  7  1  0  0  0
  7  8  2  0  0  0
  8  9  1  0  0  0
  9 10  2  0  0  0
 10 11  1  0  0  0
 11 12  2  0  0  0
 12 13  1  0  0  0
 13 14  2  0  0  0
 14 15  1  0  0  0
 15 16  1  0  0  0
 16  2  1  0  0  0
 16  6  2  0  0  0
 14  9  1  0  0  0
M  END
> <minimizedAffinity>
-7.63618

> <CNNscore>
0.5408955812

> <CNNaffinity>
5.5410985947

> <CNN_VS>
2.9971556664

> <CNNaffinity_variance>
0.1140390262

$$$$
[H]C1=Nc2c([H])c([H])c([H])c([H])c2Oc2c([H])c([H])c([H])c([H])c21


 15 17  0  0  0  0  0  0  0  0999 V2000
  153.6616  137.3985  191.9586 O   0  0  0  0  0  0  0  0  0  0  0  0
  152.4174  136.7920  192.0769 C   0  0  0  0  0  0  0  0  0  0  0  0
  151.9919  136.7068  193.3745 C   0  0  0  0  0  0  0  0  0  0  0  0
  150.7799  136.1366  193.7008 C   0  0  0  0  0  0  0  0  0  0  0  0
  149.9403  135.6255  192.7341 C   0  0  0  0  0  0  0  0  0  0  0  0
  150.3618  135.7074  191.4232 C   0  0  0  0  0  0  0  0  0  0  0  0
  151.5793  136.2810  191.1031 C   0  0  0  0  0  0  0  0  0  0  0  0
  151.8530  136.2771  189.6656 C   0  0  0  0  0  0  0  0  0  0  0  0
  152.9093  136.6515  189.0254 N   0  0  0  0  0  0  0  0  0  0  0  0
  154.1249  137.1828  189.5528 C   0  0  0  0  0  0  0  0  0  0  0  0
  155.0809  137.3777  188.5781 C   0  0  0  0  0  0  0  0  0  0  0  0
  156.3289  137.8835  188.8723 C   0  0  0  0  0  0  0  0  0  0  0  0
  156.6738  138.2171  190.1623 C   0  0  0  0  0  0  0  0  0  0  0  0
  155.7340  138.0309  191.1540 C   0  0  0  0  0  0  0  0  0  0  0  0
  154.4899  137.5233  190.8395 C   0  0  0  0  0  0  0  0  0  0  0  0
  1  2  1  0  0  0
  2  3  2  0  0  0
  3  4  1  0  0  0
  4  5  2  0  0  0
  5  6  1  0  0  0
  6  7  2  0  0  0
  7  8  1  0  0  0
  8  9  2  0  0  0
  9 10  1  0  0  0
 10 11  2  0  0  0
 11 12  1  0  0  0
 12 13  2  0  0  0
 13 14  1  0  0  0
 14 15  2  0  0  0
 15  1  1  0  0  0
  7  2  1  0  0  0
 15 10  1  0  0  0
M  END
> <minimizedAffinity>
-5.74279

> <CNNscore>
0.7208165526

> <CNNaffinity>
4.1719751358

> <CNN_VS>
3.0072288513

> <CNNaffinity_variance>
0.0933731049

$$$$
[H]C1=Nc2c([H])c([H])c([H])c([H])c2Oc2c([H])c([H])c([H])c([H])c21


 15 17  0  0  0  0  0  0  0  0999 V2000
  153.9852  136.6348  192.1625 O   0  0  0  0  0  0  0  0  0  0  0  0
  154.6302  137.1196  191.0316 C   0  0  0  0  0  0  0  0  0  0  0  0
  155.9243  137.4890  191.2785 C   0  0  0  0  0  0  0  0  0  0  0  0
  156.7329  137.9954  190.2833 C   0  0  0  0  0  0  0  0  0  0  0  0
  156.2744  138.1531  188.9928 C   0  0  0  0  0  0  0  0  0  0  0  0
  154.9708  137.7831  188.7353 C   0  0  0  0  0  0  0  0  0  0  0  0
  154.1651  137.2755  189.7389 C   0  0  0  0  0  0  0  0  0  0  0  0
  152.8179  136.9404  189.2762 C   0  0  0  0  0  0  0  0  0  0  0  0
  151.7947  136.5259  189.9449 N   0  0  0  0  0  0  0  0  0  0  0  0
  151.6930  136.2754  191.3467 C   0  0  0  0  0  0  0  0  0  0  0  0
  150.4118  135.9378  191.7295 C   0  0  0  0  0  0  0  0  0  0  0  0
  150.0936  135.6555  193.0406 C   0  0  0  0  0  0  0  0  0  0  0  0
  151.0505  135.6999  194.0289 C   0  0  0  0  0  0  0  0  0  0  0  0
  152.3389  136.0352  193.6699 C   0  0  0  0  0  0  0  0  0  0  0  0
  152.6378  136.3144  192.3519 C   0  0  0  0  0  0  0  0  0  0  0  0
  1  2  1  0  0  0
  2  3  2  0  0  0
  3  4  1  0  0  0
  4  5  2  0  0  0
  5  6  1  0  0  0
  6  7  2  0  0  0
  7  8  1  0  0  0
  8  9  2  0  0  0
  9 10  1  0  0  0
 10 11  2  0  0  0
 11 12  1  0  0  0
 12 13  2  0  0  0
 13 14  1  0  0  0
 14 15  2  0  0  0
 15  1  1  0  0  0
  7  2  1  0  0  0
 15 10  1  0  0  0
M  END
> <minimizedAffinity>
-5.66806

> <CNNscore>
0.6904067993

> <CNNaffinity>
4.1434488297

> <CNN_VS>
2.8606653214

> <CNNaffinity_variance>
0.1206065416

$$$$
[H]C1=Nc2c([H])c([H])c([H])c([H])c2Oc2c([H])c([H])c([H])c([H])c21


 15 17  0  0  0  0  0  0  0  0999 V2000
  157.6273  135.8506  188.6958 O   0  0  0  0  0  0  0  0  0  0  0  0
  158.2741  134.6368  188.8912 C   0  0  0  0  0  0  0  0  0  0  0  0
  158.9614  134.2196  187.7841 C   0  0  0  0  0  0  0  0  0  0  0  0
  159.6698  133.0369  187.7773 C   0  0  0  0  0  0  0  0  0  0  0  0
  159.7183  132.2196  188.8864 C   0  0  0  0  0  0  0  0  0  0  0  0
  159.0281  132.6328  190.0070 C   0  0  0  0  0  0  0  0  0  0  0  0
  158.3193  133.8210  190.0066 C   0  0  0  0  0  0  0  0  0  0  0  0
  157.6538  134.0902  191.2817 C   0  0  0  0  0  0  0  0  0  0  0  0
  156.8551  135.0496  191.6096 N   0  0  0  0  0  0  0  0  0  0  0  0
  156.3918  136.1331  190.8036 C   0  0  0  0  0  0  0  0  0  0  0  0
  155.4630  136.9156  191.4570 C   0  0  0  0  0  0  0  0  0  0  0  0
  154.8870  138.0157  190.8587 C   0  0  0  0  0  0  0  0  0  0  0  0
  155.2188  138.3801  189.5736 C   0  0  0  0  0  0  0  0  0  0  0  0
  156.1454  137.6125  188.9002 C   0  0  0  0  0  0  0  0  0  0  0  0
  156.7111  136.5149  189.5164 C   0  0  0  0  0  0  0  0  0  0  0  0
  1  2  1  0  0  0
  2  3  2  0  0  0
  3  4  1  0  0  0
  4  5  2  0  0  0
  5  6  1  0  0  0
  6  7  2  0  0  0
  7  8  1  0  0  0
  8  9  2  0  0  0
  9 10  1  0  0  0
 10 11  2  0  0  0
 11 12  1  0  0  0
 12 13  2  0  0  0
 13 14  1  0  0  0
 14 15  2  0  0  0
 15  1  1  0  0  0
  7  2  1  0  0  0
 15 10  1  0  0  0
M  END
> <minimizedAffinity>
-5.70619

> <CNNscore>
0.6506289840

> <CNNaffinity>
4.1371059418

> <CNN_VS>
2.6917209625

> <CNNaffinity_variance>
0.2102089822

$$$$
[H]C1=Nc2c([H])c([H])c([H])c([H])c2Oc2c([H])c([H])c([H])c([H])c21


 15 17  0  0  0  0  0  0  0  0999 V2000
  157.3607  135.7213  188.5957 O   0  0  0  0  0  0  0  0  0  0  0  0
  156.6253  136.4605  189.5137 C   0  0  0  0  0  0  0  0  0  0  0  0
  156.1179  137.6133  188.9793 C   0  0  0  0  0  0  0  0  0  0  0  0
  155.3585  138.4844  189.7311 C   0  0  0  0  0  0  0  0  0  0  0  0
  155.0753  138.2339  191.0568 C   0  0  0  0  0  0  0  0  0  0  0  0
  155.5831  137.0738  191.6035 C   0  0  0  0  0  0  0  0  0  0  0  0
  156.3444  136.2041  190.8431 C   0  0  0  0  0  0  0  0  0  0  0  0
  156.7935  135.0311  191.5938 C   0  0  0  0  0  0  0  0  0  0  0  0
  157.5743  134.0690  191.2324 N   0  0  0  0  0  0  0  0  0  0  0  0
  158.2275  133.8802  189.9770 C   0  0  0  0  0  0  0  0  0  0  0  0
  159.0705  132.7887  189.9811 C   0  0  0  0  0  0  0  0  0  0  0  0
  159.7997  132.4271  188.8687 C   0  0  0  0  0  0  0  0  0  0  0  0
  159.7147  133.1475  187.6991 C   0  0  0  0  0  0  0  0  0  0  0  0
  158.8781  134.2432  187.6712 C   0  0  0  0  0  0  0  0  0  0  0  0
  158.1562  134.5893  188.7952 C   0  0  0  0  0  0  0  0  0  0  0  0
  1  2  1  0  0  0
  2  3  2  0  0  0
  3  4  1  0  0  0
  4  5  2  0  0  0
  5  6  1  0  0  0
  6  7  2  0  0  0
  7  8  1  0  0  0
  8  9  2  0  0  0
  9 10  1  0  0  0
 10 11  2  0  0  0
 11 12  1  0  0  0
 12 13  2  0  0  0
 13 14  1  0  0  0
 14 15  2  0  0  0
 15  1  1  0  0  0
  7  2  1  0  0  0
 15 10  1  0  0  0
M  END
> <minimizedAffinity>
-5.75397

> <CNNscore>
0.6505373716

> <CNNaffinity>
4.1472482681

> <CNN_VS>
2.6979398727

> <CNNaffinity_variance>
0.1839483678

$$$$
[H]C1=Nc2c([H])c([H])c([H])c([H])c2Oc2c([H])c([H])c([H])c([H])c21


 15 17  0  0  0  0  0  0  0  0999 V2000
  158.4060  142.0189  185.2601 O   0  0  0  0  0  0  0  0  0  0  0  0
  159.7703  142.1999  185.4494 C   0  0  0  0  0  0  0  0  0  0  0  0
  160.0769  142.6259  186.7130 C   0  0  0  0  0  0  0  0  0  0  0  0
  161.3790  142.8633  187.0987 C   0  0  0  0  0  0  0  0  0  0  0  0
  162.4328  142.6823  186.2285 C   0  0  0  0  0  0  0  0  0  0  0  0
  162.1325  142.2529  184.9525 C   0  0  0  0  0  0  0  0  0  0  0  0
  160.8234  142.0166  184.5723 C   0  0  0  0  0  0  0  0  0  0  0  0
  160.7030  141.5680  183.1847 C   0  0  0  0  0  0  0  0  0  0  0  0
  159.6463  141.3347  182.4813 N   0  0  0  0  0  0  0  0  0  0  0  0
  158.2776  141.4522  182.8703 C   0  0  0  0  0  0  0  0  0  0  0  0
  157.4109  141.2186  181.8232 C   0  0  0  0  0  0  0  0  0  0  0  0
  156.0431  141.2811  181.9818 C   0  0  0  0  0  0  0  0  0  0  0  0
  155.4828  141.5820  183.2025 C   0  0  0  0  0  0  0  0  0  0  0  0
  156.3298  141.8195  184.2643 C   0  0  0  0  0  0  0  0  0  0  0  0
  157.6965  141.7521  184.0856 C   0  0  0  0  0  0  0  0  0  0  0  0
  1  2  1  0  0  0
  2  3  2  0  0  0
  3  4  1  0  0  0
  4  5  2  0  0  0
  5  6  1  0  0  0
  6  7  2  0  0  0
  7  8  1  0  0  0
  8  9  2  0  0  0
  9 10  1  0  0  0
 10 11  2  0  0  0
 11 12  1  0  0  0
 12 13  2  0  0  0
 13 14  1  0  0  0
 14 15  2  0  0  0
 15  1  1  0  0  0
  7  2  1  0  0  0
 15 10  1  0  0  0
M  END
> <minimizedAffinity>
-7.64460

> <CNNscore>
0.6325618029

> <CNNaffinity>
5.2354397774

> <CNN_VS>
3.3117392063

> <CNNaffinity_variance>
0.0798183829

$$$$
[H]C1=Nc2c([H])c([H])c([H])c([H])c2Oc2c([H])c([H])c([H])c([H])c21


 15 17  0  0  0  0  0  0  0  0999 V2000
  156.9976  135.1236  190.6884 O   0  0  0  0  0  0  0  0  0  0  0  0
  157.8038  134.2923  189.9210 C   0  0  0  0  0  0  0  0  0  0  0  0
  158.4471  133.3433  190.6677 C   0  0  0  0  0  0  0  0  0  0  0  0
  159.2941  132.4218  190.0897 C   0  0  0  0  0  0  0  0  0  0  0  0
  159.5321  132.4141  188.7319 C   0  0  0  0  0  0  0  0  0  0  0  0
  158.8874  133.3676  187.9716 C   0  0  0  0  0  0  0  0  0  0  0  0
  158.0387  134.2892  188.5584 C   0  0  0  0  0  0  0  0  0  0  0  0
  157.4487  135.2184  187.5942 C   0  0  0  0  0  0  0  0  0  0  0  0
  156.6864  136.2407  187.7930 N   0  0  0  0  0  0  0  0  0  0  0  0
  156.1994  136.7569  189.0318 C   0  0  0  0  0  0  0  0  0  0  0  0
  155.4899  137.9286  188.8713 C   0  0  0  0  0  0  0  0  0  0  0  0
  154.9317  138.5947  189.9412 C   0  0  0  0  0  0  0  0  0  0  0  0
  155.0616  138.1128  191.2238 C   0  0  0  0  0  0  0  0  0  0  0  0
  155.7670  136.9425  191.4089 C   0  0  0  0  0  0  0  0  0  0  0  0
  156.3183  136.2901  190.3251 C   0  0  0  0  0  0  0  0  0  0  0  0
  1  2  1  0  0  0
  2  3  2  0  0  0
  3  4  1  0  0  0
  4  5  2  0  0  0
  5  6  1  0  0  0
  6  7  2  0  0  0
  7  8  1  0  0  0
  8  9  2  0  0  0
  9 10  1  0  0  0
 10 11  2  0  0  0
 11 12  1  0  0  0
 12 13  2  0  0  0
 13 14  1  0  0  0
 14 15  2  0  0  0
 15  1  1  0  0  0
  7  2  1  0  0  0
 15 10  1  0  0  0
M  END
> <minimizedAffinity>
-5.49579

> <CNNscore>
0.5787321329

> <CNNaffinity>
4.0881681442

> <CNN_VS>
2.3659541607

> <CNNaffinity_variance>
0.1382623911

$$$$
[H]C1=Nc2c([H])c([H])c([H])c([H])c2Oc2c([H])c([H])c([H])c([H])c21


 15 17  0  0  0  0  0  0  0  0999 V2000
  158.6259  142.2688  185.2983 O   0  0  0  0  0  0  0  0  0  0  0  0
  157.9015  141.7521  184.2314 C   0  0  0  0  0  0  0  0  0  0  0  0
  156.5601  141.6763  184.4903 C   0  0  0  0  0  0  0  0  0  0  0  0
  155.6709  141.1900  183.5558 C   0  0  0  0  0  0  0  0  0  0  0  0
  156.0925  140.7573  182.3166 C   0  0  0  0  0  0  0  0  0  0  0  0
  157.4435  140.8304  182.0474 C   0  0  0  0  0  0  0  0  0  0  0  0
  158.3301  141.3196  182.9900 C   0  0  0  0  0  0  0  0  0  0  0  0
  159.7173  141.3200  182.5244 C   0  0  0  0  0  0  0  0  0  0  0  0
  160.8000  141.6277  183.1559 N   0  0  0  0  0  0  0  0  0  0  0  0
  160.9457  142.0605  184.5086 C   0  0  0  0  0  0  0  0  0  0  0  0
  162.2673  142.2020  184.8766 C   0  0  0  0  0  0  0  0  0  0  0  0
  162.6317  142.6110  186.1414 C   0  0  0  0  0  0  0  0  0  0  0  0
  161.6825  142.8971  187.0961 C   0  0  0  0  0  0  0  0  0  0  0  0
  160.3542  142.7628  186.7511 C   0  0  0  0  0  0  0  0  0  0  0  0
  160.0094  142.3521  185.4796 C   0  0  0  0  0  0  0  0  0  0  0  0
  1  2  1  0  0  0
  2  3  2  0  0  0
  3  4  1  0  0  0
  4  5  2  0  0  0
  5  6  1  0  0  0
  6  7  2  0  0  0
  7  8  1  0  0  0
  8  9  2  0  0  0
  9 10  1  0  0  0
 10 11  2  0  0  0
 11 12  1  0  0  0
 12 13  2  0  0  0
 13 14  1  0  0  0
 14 15  2  0  0  0
 15  1  1  0  0  0
  7  2  1  0  0  0
 15 10  1  0  0  0
M  END
> <minimizedAffinity>
-7.21440

> <CNNscore>
0.5765512586

> <CNNaffinity>
5.2246909142

> <CNN_VS>
3.0123021603

> <CNNaffinity_variance>
0.0727715194

$$$$
[H]C1=Nc2c([H])c([H])c([H])c([H])c2Oc2c([H])c([H])c([H])c([H])c21


 15 17  0  0  0  0  0  0  0  0999 V2000
  152.3523  136.7203  189.5553 O   0  0  0  0  0  0  0  0  0  0  0  0
  153.5539  137.1514  189.0074 C   0  0  0  0  0  0  0  0  0  0  0  0
  153.6194  136.9541  187.6551 C   0  0  0  0  0  0  0  0  0  0  0  0
  154.7318  137.3162  186.9257 C   0  0  0  0  0  0  0  0  0  0  0  0
  155.8302  137.8941  187.5257 C   0  0  0  0  0  0  0  0  0  0  0  0
  155.7724  138.0966  188.8890 C   0  0  0  0  0  0  0  0  0  0  0  0
  154.6527  137.7308  189.6146 C   0  0  0  0  0  0  0  0  0  0  0  0
  154.7764  138.0230  191.0430 C   0  0  0  0  0  0  0  0  0  0  0  0
  153.9719  137.7488  192.0144 N   0  0  0  0  0  0  0  0  0  0  0  0
  152.7160  137.0719  191.9622 C   0  0  0  0  0  0  0  0  0  0  0  0
  152.1773  136.8645  193.2148 C   0  0  0  0  0  0  0  0  0  0  0  0
  150.9678  136.2275  193.3914 C   0  0  0  0  0  0  0  0  0  0  0  0
  150.2431  135.7688  192.3150 C   0  0  0  0  0  0  0  0  0  0  0  0
  150.7618  135.9649  191.0525 C   0  0  0  0  0  0  0  0  0  0  0  0
  151.9743  136.6049  190.8962 C   0  0  0  0  0  0  0  0  0  0  0  0
  1  2  1  0  0  0
  2  3  2  0  0  0
  3  4  1  0  0  0
  4  5  2  0  0  0
  5  6  1  0  0  0
  6  7  2  0  0  0
  7  8  1  0  0  0
  8  9  2  0  0  0
  9 10  1  0  0  0
 10 11  2  0  0  0
 11 12  1  0  0  0
 12 13  2  0  0  0
 13 14  1  0  0  0
 14 15  2  0  0  0
 15  1  1  0  0  0
  7  2  1  0  0  0
 15 10  1  0  0  0
M  END
> <minimizedAffinity>
-5.19928

> <CNNscore>
0.5738937259

> <CNNaffinity>
4.1525716782

> <CNN_VS>
2.3831348419

> <CNNaffinity_variance>
0.1088953763

$$$$
[H]C1=Nc2c([H])c([H])c([H])c([H])c2Oc2c([H])c([H])c([H])c([H])c21


 15 17  0  0  0  0  0  0  0  0999 V2000
  156.0744  138.2270  187.5925 O   0  0  0  0  0  0  0  0  0  0  0  0
  155.3814  138.4868  186.4169 C   0  0  0  0  0  0  0  0  0  0  0  0
  156.1965  138.9218  185.4077 C   0  0  0  0  0  0  0  0  0  0  0  0
  155.6981  139.2329  184.1605 C   0  0  0  0  0  0  0  0  0  0  0  0
  154.3546  139.1201  183.8726 C   0  0  0  0  0  0  0  0  0  0  0  0
  153.5258  138.6822  184.8845 C   0  0  0  0  0  0  0  0  0  0  0  0
  154.0329  138.3717  186.1337 C   0  0  0  0  0  0  0  0  0  0  0  0
  153.0041  137.9259  187.0739 C   0  0  0  0  0  0  0  0  0  0  0  0
  153.1016  137.6354  188.3277 N   0  0  0  0  0  0  0  0  0  0  0  0
  154.2620  137.6695  189.1588 C   0  0  0  0  0  0  0  0  0  0  0  0
  153.9726  137.3922  190.4784 C   0  0  0  0  0  0  0  0  0  0  0  0
  154.9500  137.3729  191.4501 C   0  0  0  0  0  0  0  0  0  0  0  0
  156.2655  137.6322  191.1393 C   0  0  0  0  0  0  0  0  0  0  0  0
  156.5788  137.9122  189.8260 C   0  0  0  0  0  0  0  0  0  0  0  0
  155.5862  137.9266  188.8674 C   0  0  0  0  0  0  0  0  0  0  0  0
  1  2  1  0  0  0
  2  3  2  0  0  0
  3  4  1  0  0  0
  4  5  2  0  0  0
  5  6  1  0  0  0
  6  7  2  0  0  0
  7  8  1  0  0  0
  8  9  2  0  0  0
  9 10  1  0  0  0
 10 11  2  0  0  0
 11 12  1  0  0  0
 12 13  2  0  0  0
 13 14  1  0  0  0
 14 15  2  0  0  0
 15  1  1  0  0  0
  7  2  1  0  0  0
 15 10  1  0  0  0
M  END
> <minimizedAffinity>
-5.54466

> <CNNscore>
0.5482316017

> <CNNaffinity>
4.2428693771

> <CNN_VS>
2.3260750771

> <CNNaffinity_variance>
0.1786215603

$$$$
[H]c1sc(N([H])C(=O)C([H])([H])c2c(C([H])([H])[H])oc3c2c(=O)n(C([H])([H])[H])c(=O)n3C([H])([H])[H])nc1-c1c([H])c(F)c(OC([H])([H])C(F)(F)F)c(F)c1[H]


 38 41  0  0  0  0  0  0  0  0999 V2000
  153.3564  137.7134  188.1184 C   0  0  0  0  0  0  0  0  0  0  0  0
  152.7590  137.2825  189.1512 O   0  0  0  0  0  0  0  0  0  0  0  0
  152.6644  137.7050  186.9138 N   0  0  0  0  0  0  0  0  0  0  0  0
  151.6635  137.3468  186.8750 H   0  0  0  0  0  0  0  0  0  0  0  0
  153.2065  138.1462  185.6556 C   0  0  0  0  0  0  0  0  0  0  0  0
  154.2928  138.8807  185.4879 N   0  0  0  0  0  0  0  0  0  0  0  0
  154.6695  139.2147  184.2917 C   0  0  0  0  0  0  0  0  0  0  0  0
  153.9001  138.7756  183.2423 C   0  0  0  0  0  0  0  0  0  0  0  0
  152.6760  137.9042  184.0559 S   0  0  0  0  0  0  0  0  0  0  0  0
  155.8855  140.0383  184.0760 C   0  0  0  0  0  0  0  0  0  0  0  0
  157.1259  139.5177  184.3081 C   0  0  0  0  0  0  0  0  0  0  0  0
  158.2769  140.2697  184.1141 C   0  0  0  0  0  0  0  0  0  0  0  0
  159.4339  139.6074  184.3567 F   0  0  0  0  0  0  0  0  0  0  0  0
  158.2140  141.5617  183.6843 C   0  0  0  0  0  0  0  0  0  0  0  0
  156.9415  142.0997  183.4442 C   0  0  0  0  0  0  0  0  0  0  0  0
  156.8592  143.3792  183.0159 F   0  0  0  0  0  0  0  0  0  0  0  0
  155.8282  141.3410  183.6417 C   0  0  0  0  0  0  0  0  0  0  0  0
  159.3244  142.3255  183.4894 O   0  0  0  0  0  0  0  0  0  0  0  0
  160.0078  143.1807  184.3158 C   0  0  0  0  0  0  0  0  0  0  0  0
  160.8989  142.6350  185.3736 C   0  0  0  0  0  0  0  0  0  0  0  0
  161.5228  143.7681  185.9650 F   0  0  0  0  0  0  0  0  0  0  0  0
  160.2953  141.9623  186.3819 F   0  0  0  0  0  0  0  0  0  0  0  0
  161.9232  141.8940  184.8021 F   0  0  0  0  0  0  0  0  0  0  0  0
  154.7409  138.2027  188.2158 C   0  0  0  0  0  0  0  0  0  0  0  0
  155.5538  138.7294  191.1835 C   0  0  0  0  0  0  0  0  0  0  0  0
  155.8569  137.5148  190.3819 C   0  0  0  0  0  0  0  0  0  0  0  0
  156.5296  136.4635  190.8219 O   0  0  0  0  0  0  0  0  0  0  0  0
  156.6464  135.5515  189.9144 C   0  0  0  0  0  0  0  0  0  0  0  0
  157.2347  134.3303  189.8908 N   0  0  0  0  0  0  0  0  0  0  0  0
  157.9162  133.7998  191.0550 C   0  0  0  0  0  0  0  0  0  0  0  0
  157.1787  133.6066  188.7594 C   0  0  0  0  0  0  0  0  0  0  0  0
  157.7184  132.4613  188.7043 O   0  0  0  0  0  0  0  0  0  0  0  0
  156.5639  134.0373  187.6431 N   0  0  0  0  0  0  0  0  0  0  0  0
  156.5083  133.2527  186.4274 C   0  0  0  0  0  0  0  0  0  0  0  0
  155.9779  135.2485  187.6599 C   0  0  0  0  0  0  0  0  0  0  0  0
  155.4079  135.6618  186.6432 O   0  0  0  0  0  0  0  0  0  0  0  0
  156.0034  136.0232  188.7756 C   0  0  0  0  0  0  0  0  0  0  0  0
  155.5075  137.2678  189.0849 C   0  0  0  0  0  0  0  0  0  0  0  0
 25 26  1  0  0  0
 26 27  1  0  0  0
 27 28  1  0  0  0
 28 29  1  0  0  0
 29 30  1  0  0  0
 29 31  1  0  0  0
 31 32  2  0  0  0
 31 33  1  0  0  0
 33 34  1  0  0  0
 33 35  1  0  0  0
 35 36  2  0  0  0
 35 37  1  0  0  0
 37 38  1  0  0  0
 38 24  1  0  0  0
 24  1  1  0  0  0
  1  2  2  0  0  0
  1  3  1  0  0  0
  3  5  1  0  0  0
  5  6  2  0  0  0
  6  7  1  0  0  0
  7  8  2  0  0  0
  8  9  1  0  0  0
  7 10  1  0  0  0
 10 11  2  0  0  0
 11 12  1  0  0  0
 12 13  1  0  0  0
 12 14  2  0  0  0
 14 18  1  0  0  0
 18 19  1  0  0  0
 19 20  1  0  0  0
 20 21  1  0  0  0
 20 22  1  0  0  0
 20 23  1  0  0  0
 14 15  1  0  0  0
 15 16  1  0  0  0
 15 17  2  0  0  0
 38 26  2  0  0  0
  9  5  1  0  0  0
 17 10  1  0  0  0
 37 28  2  0  0  0
  3  4  1  0  0  0
M  END
> <minimizedAffinity>
-8.55283

> <CNNscore>
0.5679695010

> <CNNaffinity>
7.1173944473

> <CNN_VS>
4.0424628258

> <CNNaffinity_variance>
0.1609643251

$$$$
[H]c1sc(N([H])C(=O)C([H])([H])c2c(C([H])([H])[H])oc3c2c(=O)n(C([H])([H])[H])c(=O)n3C([H])([H])[H])nc1-c1c([H])c(F)c(OC([H])([H])C(F)(F)F)c(F)c1[H]


 38 41  0  0  0  0  0  0  0  0999 V2000
  153.4952  136.3461  186.3093 C   0  0  0  0  0  0  0  0  0  0  0  0
  152.9689  135.5936  187.1847 O   0  0  0  0  0  0  0  0  0  0  0  0
  152.6554  137.1587  185.5581 N   0  0  0  0  0  0  0  0  0  0  0  0
  151.6049  137.1407  185.7248 H   0  0  0  0  0  0  0  0  0  0  0  0
  153.0961  138.0542  184.5211 C   0  0  0  0  0  0  0  0  0  0  0  0
  154.2238  138.7439  184.5122 N   0  0  0  0  0  0  0  0  0  0  0  0
  154.4973  139.5236  183.5113 C   0  0  0  0  0  0  0  0  0  0  0  0
  153.5778  139.5898  182.4935 C   0  0  0  0  0  0  0  0  0  0  0  0
  152.3715  138.5156  183.0510 S   0  0  0  0  0  0  0  0  0  0  0  0
  155.7568  140.3085  183.4766 C   0  0  0  0  0  0  0  0  0  0  0  0
  156.9236  139.7678  183.9342 C   0  0  0  0  0  0  0  0  0  0  0  0
  158.1133  140.4836  183.9123 C   0  0  0  0  0  0  0  0  0  0  0  0
  159.1920  139.8039  184.3710 F   0  0  0  0  0  0  0  0  0  0  0  0
  158.1633  141.7587  183.4329 C   0  0  0  0  0  0  0  0  0  0  0  0
  156.9666  142.3172  182.9613 C   0  0  0  0  0  0  0  0  0  0  0  0
  156.9968  143.5802  182.4806 F   0  0  0  0  0  0  0  0  0  0  0  0
  155.8133  141.5939  182.9933 C   0  0  0  0  0  0  0  0  0  0  0  0
  159.3134  142.4872  183.4028 O   0  0  0  0  0  0  0  0  0  0  0  0
  159.9684  143.2100  184.3670 C   0  0  0  0  0  0  0  0  0  0  0  0
  161.0296  142.5644  185.1842 C   0  0  0  0  0  0  0  0  0  0  0  0
  160.3460  141.9193  186.2516 F   0  0  0  0  0  0  0  0  0  0  0  0
  161.7653  141.6082  184.5694 F   0  0  0  0  0  0  0  0  0  0  0  0
  161.8320  143.5289  185.7764 F   0  0  0  0  0  0  0  0  0  0  0  0
  154.9536  136.3424  186.1122 C   0  0  0  0  0  0  0  0  0  0  0  0
  156.0764  133.4303  186.0458 C   0  0  0  0  0  0  0  0  0  0  0  0
  156.0638  134.3508  187.2129 C   0  0  0  0  0  0  0  0  0  0  0  0
  156.5353  134.0592  188.4146 O   0  0  0  0  0  0  0  0  0  0  0  0
  156.3959  135.0437  189.2393 C   0  0  0  0  0  0  0  0  0  0  0  0
  156.7159  135.2181  190.5450 N   0  0  0  0  0  0  0  0  0  0  0  0
  157.3543  134.1660  191.3112 C   0  0  0  0  0  0  0  0  0  0  0  0
  156.4301  136.3940  191.1301 C   0  0  0  0  0  0  0  0  0  0  0  0
  156.7162  136.5892  192.3492 O   0  0  0  0  0  0  0  0  0  0  0  0
  155.8387  137.4122  190.4796 N   0  0  0  0  0  0  0  0  0  0  0  0
  155.5329  138.6761  191.1164 C   0  0  0  0  0  0  0  0  0  0  0  0
  155.5186  137.2457  189.1832 C   0  0  0  0  0  0  0  0  0  0  0  0
  154.9743  138.1703  188.5683 O   0  0  0  0  0  0  0  0  0  0  0  0
  155.7839  136.0785  188.5408 C   0  0  0  0  0  0  0  0  0  0  0  0
  155.5789  135.6267  187.2584 C   0  0  0  0  0  0  0  0  0  0  0  0
 25 26  1  0  0  0
 26 27  1  0  0  0
 27 28  1  0  0  0
 28 29  1  0  0  0
 29 30  1  0  0  0
 29 31  1  0  0  0
 31 32  2  0  0  0
 31 33  1  0  0  0
 33 34  1  0  0  0
 33 35  1  0  0  0
 35 36  2  0  0  0
 35 37  1  0  0  0
 37 38  1  0  0  0
 38 24  1  0  0  0
 24  1  1  0  0  0
  1  2  2  0  0  0
  1  3  1  0  0  0
  3  5  1  0  0  0
  5  6  2  0  0  0
  6  7  1  0  0  0
  7  8  2  0  0  0
  8  9  1  0  0  0
  7 10  1  0  0  0
 10 11  2  0  0  0
 11 12  1  0  0  0
 12 13  1  0  0  0
 12 14  2  0  0  0
 14 18  1  0  0  0
 18 19  1  0  0  0
 19 20  1  0  0  0
 20 21  1  0  0  0
 20 22  1  0  0  0
 20 23  1  0  0  0
 14 15  1  0  0  0
 15 16  1  0  0  0
 15 17  2  0  0  0
 38 26  2  0  0  0
  9  5  1  0  0  0
 17 10  1  0  0  0
 37 28  2  0  0  0
  3  4  1  0  0  0
M  END
> <minimizedAffinity>
-8.28163

> <CNNscore>
0.4178543389

> <CNNaffinity>
7.0196809769

> <CNN_VS>
2.9332041740

> <CNNaffinity_variance>
0.1166964546

$$$$
[H]c1sc(N([H])C(=O)C([H])([H])c2c(C([H])([H])[H])oc3c2c(=O)n(C([H])([H])[H])c(=O)n3C([H])([H])[H])nc1-c1c([H])c(F)c(OC([H])([H])C(F)(F)F)c(F)c1[H]


 38 41  0  0  0  0  0  0  0  0999 V2000
  153.0863  136.6537  185.9573 C   0  0  0  0  0  0  0  0  0  0  0  0
  152.8436  135.5008  186.4277 O   0  0  0  0  0  0  0  0  0  0  0  0
  153.3301  136.7635  184.5940 N   0  0  0  0  0  0  0  0  0  0  0  0
  153.3084  135.8980  183.9759 H   0  0  0  0  0  0  0  0  0  0  0  0
  153.6336  137.9950  183.9137 C   0  0  0  0  0  0  0  0  0  0  0  0
  154.7784  138.6541  183.9655 N   0  0  0  0  0  0  0  0  0  0  0  0
  154.9174  139.7620  183.3038 C   0  0  0  0  0  0  0  0  0  0  0  0
  153.8418  140.1975  182.5695 C   0  0  0  0  0  0  0  0  0  0  0  0
  152.6933  138.9720  182.8839 S   0  0  0  0  0  0  0  0  0  0  0  0
  156.1925  140.5210  183.3447 C   0  0  0  0  0  0  0  0  0  0  0  0
  156.2206  141.8472  183.0228 C   0  0  0  0  0  0  0  0  0  0  0  0
  157.4017  142.5768  183.0531 C   0  0  0  0  0  0  0  0  0  0  0  0
  157.2661  143.8878  182.7380 F   0  0  0  0  0  0  0  0  0  0  0  0
  158.5835  141.9960  183.4053 C   0  0  0  0  0  0  0  0  0  0  0  0
  158.5583  140.6339  183.7374 C   0  0  0  0  0  0  0  0  0  0  0  0
  159.7205  140.0407  184.0908 F   0  0  0  0  0  0  0  0  0  0  0  0
  157.3867  139.9409  183.7001 C   0  0  0  0  0  0  0  0  0  0  0  0
  159.7581  142.6839  183.4399 O   0  0  0  0  0  0  0  0  0  0  0  0
  160.3557  143.4328  184.4214 C   0  0  0  0  0  0  0  0  0  0  0  0
  161.2568  142.7792  185.4070 C   0  0  0  0  0  0  0  0  0  0  0  0
  160.4055  142.0073  186.2450 F   0  0  0  0  0  0  0  0  0  0  0  0
  162.1775  141.9221  184.9056 F   0  0  0  0  0  0  0  0  0  0  0  0
  161.8370  143.7322  186.2317 F   0  0  0  0  0  0  0  0  0  0  0  0
  153.1044  137.8260  186.8468 C   0  0  0  0  0  0  0  0  0  0  0  0
  156.1768  138.3730  186.7672 C   0  0  0  0  0  0  0  0  0  0  0  0
  155.4057  137.8018  187.9023 C   0  0  0  0  0  0  0  0  0  0  0  0
  155.9238  137.4353  189.0636 O   0  0  0  0  0  0  0  0  0  0  0  0
  155.0252  136.9721  189.8679 C   0  0  0  0  0  0  0  0  0  0  0  0
  155.0681  136.4857  191.1326 N   0  0  0  0  0  0  0  0  0  0  0  0
  156.3153  136.4062  191.8672 C   0  0  0  0  0  0  0  0  0  0  0  0
  153.9251  136.0715  191.7059 C   0  0  0  0  0  0  0  0  0  0  0  0
  153.9308  135.6117  192.8869 O   0  0  0  0  0  0  0  0  0  0  0  0
  152.7338  136.1163  191.0826 N   0  0  0  0  0  0  0  0  0  0  0  0
  151.5064  135.6675  191.7060 C   0  0  0  0  0  0  0  0  0  0  0  0
  152.6843  136.5981  189.8272 C   0  0  0  0  0  0  0  0  0  0  0  0
  151.5983  136.6471  189.2377 O   0  0  0  0  0  0  0  0  0  0  0  0
  153.8081  137.0307  189.1983 C   0  0  0  0  0  0  0  0  0  0  0  0
  154.0629  137.5582  187.9544 C   0  0  0  0  0  0  0  0  0  0  0  0
 25 26  1  0  0  0
 26 27  1  0  0  0
 27 28  1  0  0  0
 28 29  1  0  0  0
 29 30  1  0  0  0
 29 31  1  0  0  0
 31 32  2  0  0  0
 31 33  1  0  0  0
 33 34  1  0  0  0
 33 35  1  0  0  0
 35 36  2  0  0  0
 35 37  1  0  0  0
 37 38  1  0  0  0
 38 24  1  0  0  0
 24  1  1  0  0  0
  1  2  2  0  0  0
  1  3  1  0  0  0
  3  5  1  0  0  0
  5  6  2  0  0  0
  6  7  1  0  0  0
  7  8  2  0  0  0
  8  9  1  0  0  0
  7 10  1  0  0  0
 10 11  2  0  0  0
 11 12  1  0  0  0
 12 13  1  0  0  0
 12 14  2  0  0  0
 14 18  1  0  0  0
 18 19  1  0  0  0
 19 20  1  0  0  0
 20 21  1  0  0  0
 20 22  1  0  0  0
 20 23  1  0  0  0
 14 15  1  0  0  0
 15 16  1  0  0  0
 15 17  2  0  0  0
 38 26  2  0  0  0
  9  5  1  0  0  0
 17 10  1  0  0  0
 37 28  2  0  0  0
  3  4  1  0  0  0
M  END
> <minimizedAffinity>
-8.59334

> <CNNscore>
0.3463044763

> <CNNaffinity>
6.7765960693

> <CNN_VS>
2.3467655182

> <CNNaffinity_variance>
0.2422086000

$$$$
[H]c1sc(N([H])C(=O)C([H])([H])c2c(C([H])([H])[H])oc3c2c(=O)n(C([H])([H])[H])c(=O)n3C([H])([H])[H])nc1-c1c([H])c(F)c(OC([H])([H])C(F)(F)F)c(F)c1[H]


 38 41  0  0  0  0  0  0  0  0999 V2000
  153.2607  137.6299  188.2843 C   0  0  0  0  0  0  0  0  0  0  0  0
  152.7650  137.2775  189.3977 O   0  0  0  0  0  0  0  0  0  0  0  0
  152.4413  137.5872  187.1632 N   0  0  0  0  0  0  0  0  0  0  0  0
  151.4304  137.2682  187.2521 H   0  0  0  0  0  0  0  0  0  0  0  0
  152.8577  137.9406  185.8315 C   0  0  0  0  0  0  0  0  0  0  0  0
  153.6881  138.9162  185.5061 N   0  0  0  0  0  0  0  0  0  0  0  0
  153.9760  139.1316  184.2590 C   0  0  0  0  0  0  0  0  0  0  0  0
  153.3877  138.3142  183.3254 C   0  0  0  0  0  0  0  0  0  0  0  0
  152.4519  137.2820  184.3147 S   0  0  0  0  0  0  0  0  0  0  0  0
  154.9059  140.2202  183.8669 C   0  0  0  0  0  0  0  0  0  0  0  0
  154.4442  141.3226  183.2074 C   0  0  0  0  0  0  0  0  0  0  0  0
  155.2957  142.3525  182.8301 C   0  0  0  0  0  0  0  0  0  0  0  0
  154.6870  143.3928  182.2108 F   0  0  0  0  0  0  0  0  0  0  0  0
  156.6303  142.3031  183.1028 C   0  0  0  0  0  0  0  0  0  0  0  0
  157.1081  141.1725  183.7807 C   0  0  0  0  0  0  0  0  0  0  0  0
  158.4288  141.1063  184.0612 F   0  0  0  0  0  0  0  0  0  0  0  0
  156.2522  140.1763  184.1401 C   0  0  0  0  0  0  0  0  0  0  0  0
  157.4907  143.2949  182.7415 O   0  0  0  0  0  0  0  0  0  0  0  0
  157.9621  143.7023  181.5196 C   0  0  0  0  0  0  0  0  0  0  0  0
  158.7659  142.7690  180.6867 C   0  0  0  0  0  0  0  0  0  0  0  0
  157.8270  141.8647  180.1177 F   0  0  0  0  0  0  0  0  0  0  0  0
  159.4434  143.3174  179.6505 F   0  0  0  0  0  0  0  0  0  0  0  0
  159.5929  141.9992  181.4918 F   0  0  0  0  0  0  0  0  0  0  0  0
  154.6636  138.0673  188.2053 C   0  0  0  0  0  0  0  0  0  0  0  0
  155.6201  138.5508  191.1373 C   0  0  0  0  0  0  0  0  0  0  0  0
  155.9037  137.3586  190.2959 C   0  0  0  0  0  0  0  0  0  0  0  0
  156.6182  136.3124  190.6783 O   0  0  0  0  0  0  0  0  0  0  0  0
  156.7046  135.4211  189.7472 C   0  0  0  0  0  0  0  0  0  0  0  0
  157.3137  134.2126  189.6675 N   0  0  0  0  0  0  0  0  0  0  0  0
  158.0649  133.6726  190.7836 C   0  0  0  0  0  0  0  0  0  0  0  0
  157.2124  133.5106  188.5257 C   0  0  0  0  0  0  0  0  0  0  0  0
  157.7700  132.3775  188.4188 O   0  0  0  0  0  0  0  0  0  0  0  0
  156.5322  133.9511  187.4519 N   0  0  0  0  0  0  0  0  0  0  0  0
  156.4280  133.1900  186.2246 C   0  0  0  0  0  0  0  0  0  0  0  0
  155.9253  135.1499  187.5244 C   0  0  0  0  0  0  0  0  0  0  0  0
  155.2953  135.5719  186.5475 O   0  0  0  0  0  0  0  0  0  0  0  0
  155.9943  135.9026  188.6532 C   0  0  0  0  0  0  0  0  0  0  0  0
  155.4919  137.1307  189.0138 C   0  0  0  0  0  0  0  0  0  0  0  0
 25 26  1  0  0  0
 26 27  1  0  0  0
 27 28  1  0  0  0
 28 29  1  0  0  0
 29 30  1  0  0  0
 29 31  1  0  0  0
 31 32  2  0  0  0
 31 33  1  0  0  0
 33 34  1  0  0  0
 33 35  1  0  0  0
 35 36  2  0  0  0
 35 37  1  0  0  0
 37 38  1  0  0  0
 38 24  1  0  0  0
 24  1  1  0  0  0
  1  2  2  0  0  0
  1  3  1  0  0  0
  3  5  1  0  0  0
  5  6  2  0  0  0
  6  7  1  0  0  0
  7  8  2  0  0  0
  8  9  1  0  0  0
  7 10  1  0  0  0
 10 11  2  0  0  0
 11 12  1  0  0  0
 12 13  1  0  0  0
 12 14  2  0  0  0
 14 18  1  0  0  0
 18 19  1  0  0  0
 19 20  1  0  0  0
 20 21  1  0  0  0
 20 22  1  0  0  0
 20 23  1  0  0  0
 14 15  1  0  0  0
 15 16  1  0  0  0
 15 17  2  0  0  0
 38 26  2  0  0  0
  9  5  1  0  0  0
 17 10  1  0  0  0
 37 28  2  0  0  0
  3  4  1  0  0  0
M  END
> <minimizedAffinity>
-8.51802

> <CNNscore>
0.2945239544

> <CNNaffinity>
6.5674858093

> <CNN_VS>
1.9342819452

> <CNNaffinity_variance>
0.3841342032

$$$$
[H]c1sc(N([H])C(=O)C([H])([H])c2c(C([H])([H])[H])oc3c2c(=O)n(C([H])([H])[H])c(=O)n3C([H])([H])[H])nc1-c1c([H])c(F)c(OC([H])([H])C(F)(F)F)c(F)c1[H]


 38 41  0  0  0  0  0  0  0  0999 V2000
  153.0482  136.0921  185.5012 C   0  0  0  0  0  0  0  0  0  0  0  0
  152.5613  135.1284  186.1674 O   0  0  0  0  0  0  0  0  0  0  0  0
  152.2166  136.7502  184.6038 N   0  0  0  0  0  0  0  0  0  0  0  0
  151.2038  136.4448  184.4912 H   0  0  0  0  0  0  0  0  0  0  0  0
  152.6219  137.8492  183.7674 C   0  0  0  0  0  0  0  0  0  0  0  0
  153.7151  138.5783  183.9115 N   0  0  0  0  0  0  0  0  0  0  0  0
  153.9587  139.5491  183.0852 C   0  0  0  0  0  0  0  0  0  0  0  0
  153.0452  139.7694  182.0838 C   0  0  0  0  0  0  0  0  0  0  0  0
  151.8876  138.5535  182.4022 S   0  0  0  0  0  0  0  0  0  0  0  0
  155.1792  140.3825  183.2247 C   0  0  0  0  0  0  0  0  0  0  0  0
  156.0995  140.1076  184.1945 C   0  0  0  0  0  0  0  0  0  0  0  0
  157.2477  140.8741  184.3441 C   0  0  0  0  0  0  0  0  0  0  0  0
  158.0804  140.4608  185.3300 F   0  0  0  0  0  0  0  0  0  0  0  0
  157.5016  141.9352  183.5270 C   0  0  0  0  0  0  0  0  0  0  0  0
  156.5586  142.2202  182.5291 C   0  0  0  0  0  0  0  0  0  0  0  0
  156.7940  143.2681  181.7081 F   0  0  0  0  0  0  0  0  0  0  0  0
  155.4408  141.4529  182.4031 C   0  0  0  0  0  0  0  0  0  0  0  0
  158.6159  142.7080  183.6520 O   0  0  0  0  0  0  0  0  0  0  0  0
  159.9529  142.4107  183.5795 C   0  0  0  0  0  0  0  0  0  0  0  0
  160.8413  142.7056  184.7347 C   0  0  0  0  0  0  0  0  0  0  0  0
  161.9264  141.7932  184.6206 F   0  0  0  0  0  0  0  0  0  0  0  0
  161.3870  143.9442  184.7742 F   0  0  0  0  0  0  0  0  0  0  0  0
  160.2023  142.3871  185.9243 F   0  0  0  0  0  0  0  0  0  0  0  0
  154.4542  136.4844  185.6890 C   0  0  0  0  0  0  0  0  0  0  0  0
  153.2737  138.7781  187.4470 C   0  0  0  0  0  0  0  0  0  0  0  0
  154.1733  137.6850  187.9003 C   0  0  0  0  0  0  0  0  0  0  0  0
  154.6113  137.5273  189.1391 O   0  0  0  0  0  0  0  0  0  0  0  0
  155.3785  136.4939  189.2514 C   0  0  0  0  0  0  0  0  0  0  0  0
  156.0482  135.9390  190.2913 N   0  0  0  0  0  0  0  0  0  0  0  0
  155.9870  136.5151  191.6202 C   0  0  0  0  0  0  0  0  0  0  0  0
  156.7806  134.8332  190.0735 C   0  0  0  0  0  0  0  0  0  0  0  0
  157.4186  134.2899  191.0242 O   0  0  0  0  0  0  0  0  0  0  0  0
  156.8821  134.2467  188.8670 N   0  0  0  0  0  0  0  0  0  0  0  0
  157.6738  133.0560  188.6393 C   0  0  0  0  0  0  0  0  0  0  0  0
  156.2198  134.7924  187.8306 C   0  0  0  0  0  0  0  0  0  0  0  0
  156.3009  134.2677  186.7138 O   0  0  0  0  0  0  0  0  0  0  0  0
  155.4644  135.9099  187.9926 C   0  0  0  0  0  0  0  0  0  0  0  0
  154.6965  136.6740  187.1458 C   0  0  0  0  0  0  0  0  0  0  0  0
 25 26  1  0  0  0
 26 27  1  0  0  0
 27 28  1  0  0  0
 28 29  1  0  0  0
 29 30  1  0  0  0
 29 31  1  0  0  0
 31 32  2  0  0  0
 31 33  1  0  0  0
 33 34  1  0  0  0
 33 35  1  0  0  0
 35 36  2  0  0  0
 35 37  1  0  0  0
 37 38  1  0  0  0
 38 24  1  0  0  0
 24  1  1  0  0  0
  1  2  2  0  0  0
  1  3  1  0  0  0
  3  5  1  0  0  0
  5  6  2  0  0  0
  6  7  1  0  0  0
  7  8  2  0  0  0
  8  9  1  0  0  0
  7 10  1  0  0  0
 10 11  2  0  0  0
 11 12  1  0  0  0
 12 13  1  0  0  0
 12 14  2  0  0  0
 14 18  1  0  0  0
 18 19  1  0  0  0
 19 20  1  0  0  0
 20 21  1  0  0  0
 20 22  1  0  0  0
 20 23  1  0  0  0
 14 15  1  0  0  0
 15 16  1  0  0  0
 15 17  2  0  0  0
 38 26  2  0  0  0
  9  5  1  0  0  0
 17 10  1  0  0  0
 37 28  2  0  0  0
  3  4  1  0  0  0
M  END
> <minimizedAffinity>
-8.23587

> <CNNscore>
0.2527774274

> <CNNaffinity>
6.6307082176

> <CNN_VS>
1.6760933399

> <CNNaffinity_variance>
0.2581006885

$$$$
[H]c1sc(N([H])C(=O)C([H])([H])c2c(C([H])([H])[H])oc3c2c(=O)n(C([H])([H])[H])c(=O)n3C([H])([H])[H])nc1-c1c([H])c(F)c(OC([H])([H])C(F)(F)F)c(F)c1[H]


 38 41  0  0  0  0  0  0  0  0999 V2000
  152.6071  135.7955  185.8291 C   0  0  0  0  0  0  0  0  0  0  0  0
  152.4963  134.6023  186.2454 O   0  0  0  0  0  0  0  0  0  0  0  0
  153.2938  136.0104  184.6407 N   0  0  0  0  0  0  0  0  0  0  0  0
  153.7070  135.1886  184.1063 H   0  0  0  0  0  0  0  0  0  0  0  0
  153.5164  137.3021  184.0463 C   0  0  0  0  0  0  0  0  0  0  0  0
  154.6064  138.0403  184.1679 N   0  0  0  0  0  0  0  0  0  0  0  0
  154.6741  139.1955  183.5803 C   0  0  0  0  0  0  0  0  0  0  0  0
  153.5835  139.5957  182.8479 C   0  0  0  0  0  0  0  0  0  0  0  0
  152.5255  138.2701  183.0563 S   0  0  0  0  0  0  0  0  0  0  0  0
  155.8865  140.0435  183.7005 C   0  0  0  0  0  0  0  0  0  0  0  0
  156.2028  140.9435  182.7241 C   0  0  0  0  0  0  0  0  0  0  0  0
  157.3321  141.7463  182.8149 C   0  0  0  0  0  0  0  0  0  0  0  0
  157.4970  142.6108  181.7845 F   0  0  0  0  0  0  0  0  0  0  0  0
  158.1729  141.6666  183.8848 C   0  0  0  0  0  0  0  0  0  0  0  0
  157.8508  140.7436  184.8901 C   0  0  0  0  0  0  0  0  0  0  0  0
  158.6721  140.6514  185.9599 F   0  0  0  0  0  0  0  0  0  0  0  0
  156.7371  139.9682  184.7774 C   0  0  0  0  0  0  0  0  0  0  0  0
  159.2900  142.4369  183.9998 O   0  0  0  0  0  0  0  0  0  0  0  0
  160.6234  142.1197  184.0502 C   0  0  0  0  0  0  0  0  0  0  0  0
  161.4506  142.5752  185.1987 C   0  0  0  0  0  0  0  0  0  0  0  0
  161.4549  143.9955  185.1227 F   0  0  0  0  0  0  0  0  0  0  0  0
  160.9922  142.2608  186.4334 F   0  0  0  0  0  0  0  0  0  0  0  0
  162.7699  142.1828  185.0247 F   0  0  0  0  0  0  0  0  0  0  0  0
  152.0183  136.9039  186.5977 C   0  0  0  0  0  0  0  0  0  0  0  0
  149.8141  135.5892  188.3749 C   0  0  0  0  0  0  0  0  0  0  0  0
  151.1703  136.0138  188.8111 C   0  0  0  0  0  0  0  0  0  0  0  0
  151.6443  135.8933  190.0407 O   0  0  0  0  0  0  0  0  0  0  0  0
  152.8512  136.3435  190.1385 C   0  0  0  0  0  0  0  0  0  0  0  0
  153.7318  136.4340  191.1653 N   0  0  0  0  0  0  0  0  0  0  0  0
  153.3893  135.9683  192.4947 C   0  0  0  0  0  0  0  0  0  0  0  0
  154.9433  136.9684  190.9339 C   0  0  0  0  0  0  0  0  0  0  0  0
  155.7895  137.0674  191.8721 O   0  0  0  0  0  0  0  0  0  0  0  0
  155.3269  137.4205  189.7263 N   0  0  0  0  0  0  0  0  0  0  0  0
  156.6333  137.9960  189.4844 C   0  0  0  0  0  0  0  0  0  0  0  0
  154.4576  137.3335  188.7029 C   0  0  0  0  0  0  0  0  0  0  0  0
  154.7920  137.7440  187.5853 O   0  0  0  0  0  0  0  0  0  0  0  0
  153.2196  136.8026  188.8789 C   0  0  0  0  0  0  0  0  0  0  0  0
  152.1460  136.5879  188.0471 C   0  0  0  0  0  0  0  0  0  0  0  0
 25 26  1  0  0  0
 26 27  1  0  0  0
 27 28  1  0  0  0
 28 29  1  0  0  0
 29 30  1  0  0  0
 29 31  1  0  0  0
 31 32  2  0  0  0
 31 33  1  0  0  0
 33 34  1  0  0  0
 33 35  1  0  0  0
 35 36  2  0  0  0
 35 37  1  0  0  0
 37 38  1  0  0  0
 38 24  1  0  0  0
 24  1  1  0  0  0
  1  2  2  0  0  0
  1  3  1  0  0  0
  3  5  1  0  0  0
  5  6  2  0  0  0
  6  7  1  0  0  0
  7  8  2  0  0  0
  8  9  1  0  0  0
  7 10  1  0  0  0
 10 11  2  0  0  0
 11 12  1  0  0  0
 12 13  1  0  0  0
 12 14  2  0  0  0
 14 18  1  0  0  0
 18 19  1  0  0  0
 19 20  1  0  0  0
 20 21  1  0  0  0
 20 22  1  0  0  0
 20 23  1  0  0  0
 14 15  1  0  0  0
 15 16  1  0  0  0
 15 17  2  0  0  0
 38 26  2  0  0  0
  9  5  1  0  0  0
 17 10  1  0  0  0
 37 28  2  0  0  0
  3  4  1  0  0  0
M  END
> <minimizedAffinity>
-8.14755

> <CNNscore>
0.2358466983

> <CNNaffinity>
6.5642037392

> <CNN_VS>
1.5481457710

> <CNNaffinity_variance>
0.2362294942

$$$$
[H]c1sc(N([H])C(=O)C([H])([H])c2c(C([H])([H])[H])oc3c2c(=O)n(C([H])([H])[H])c(=O)n3C([H])([H])[H])nc1-c1c([H])c(F)c(OC([H])([H])C(F)(F)F)c(F)c1[H]


 38 41  0  0  0  0  0  0  0  0999 V2000
  154.9859  136.7789  187.7469 C   0  0  0  0  0  0  0  0  0  0  0  0
  155.4268  135.8341  188.4697 O   0  0  0  0  0  0  0  0  0  0  0  0
  155.1352  136.6704  186.3699 N   0  0  0  0  0  0  0  0  0  0  0  0
  155.6055  135.8140  185.9493 H   0  0  0  0  0  0  0  0  0  0  0  0
  154.7021  137.6606  185.4194 C   0  0  0  0  0  0  0  0  0  0  0  0
  155.3878  138.7215  185.0298 N   0  0  0  0  0  0  0  0  0  0  0  0
  154.8742  139.5420  184.1652 C   0  0  0  0  0  0  0  0  0  0  0  0
  153.6172  139.2550  183.6925 C   0  0  0  0  0  0  0  0  0  0  0  0
  153.2569  137.8108  184.5319 S   0  0  0  0  0  0  0  0  0  0  0  0
  155.6233  140.7403  183.7108 C   0  0  0  0  0  0  0  0  0  0  0  0
  156.9718  140.8292  183.9033 C   0  0  0  0  0  0  0  0  0  0  0  0
  157.6928  141.9407  183.4874 C   0  0  0  0  0  0  0  0  0  0  0  0
  159.0259  141.8707  183.7199 F   0  0  0  0  0  0  0  0  0  0  0  0
  157.0810  142.9907  182.8699 C   0  0  0  0  0  0  0  0  0  0  0  0
  155.6959  142.9025  182.6700 C   0  0  0  0  0  0  0  0  0  0  0  0
  155.0717  143.9336  182.0578 F   0  0  0  0  0  0  0  0  0  0  0  0
  155.0119  141.8013  183.0868 C   0  0  0  0  0  0  0  0  0  0  0  0
  157.7601  144.0957  182.4552 O   0  0  0  0  0  0  0  0  0  0  0  0
  158.8649  144.2492  181.6570 C   0  0  0  0  0  0  0  0  0  0  0  0
  158.9810  143.4719  180.3949 C   0  0  0  0  0  0  0  0  0  0  0  0
  159.5896  142.2403  180.7631 F   0  0  0  0  0  0  0  0  0  0  0  0
  157.8202  143.1533  179.7747 F   0  0  0  0  0  0  0  0  0  0  0  0
  159.8724  144.0912  179.5307 F   0  0  0  0  0  0  0  0  0  0  0  0
  154.3392  137.9453  188.3689 C   0  0  0  0  0  0  0  0  0  0  0  0
  155.6550  138.5036  191.1443 C   0  0  0  0  0  0  0  0  0  0  0  0
  154.3814  137.7789  190.8950 C   0  0  0  0  0  0  0  0  0  0  0  0
  153.6098  137.2554  191.8342 O   0  0  0  0  0  0  0  0  0  0  0  0
  152.5642  136.6833  191.3358 C   0  0  0  0  0  0  0  0  0  0  0  0
  151.5119  136.0260  191.8821 N   0  0  0  0  0  0  0  0  0  0  0  0
  151.3976  135.8474  193.3162 C   0  0  0  0  0  0  0  0  0  0  0  0
  150.5624  135.5341  191.0678 C   0  0  0  0  0  0  0  0  0  0  0  0
  149.5659  134.9147  191.5467 O   0  0  0  0  0  0  0  0  0  0  0  0
  150.6053  135.6630  189.7294 N   0  0  0  0  0  0  0  0  0  0  0  0
  149.5792  135.1297  188.8580 C   0  0  0  0  0  0  0  0  0  0  0  0
  151.6470  136.3144  189.1807 C   0  0  0  0  0  0  0  0  0  0  0  0
  151.7042  136.4429  187.9521 O   0  0  0  0  0  0  0  0  0  0  0  0
  152.6357  136.8322  189.9553 C   0  0  0  0  0  0  0  0  0  0  0  0
  153.7915  137.5279  189.6891 C   0  0  0  0  0  0  0  0  0  0  0  0
 25 26  1  0  0  0
 26 27  1  0  0  0
 27 28  1  0  0  0
 28 29  1  0  0  0
 29 30  1  0  0  0
 29 31  1  0  0  0
 31 32  2  0  0  0
 31 33  1  0  0  0
 33 34  1  0  0  0
 33 35  1  0  0  0
 35 36  2  0  0  0
 35 37  1  0  0  0
 37 38  1  0  0  0
 38 24  1  0  0  0
 24  1  1  0  0  0
  1  2  2  0  0  0
  1  3  1  0  0  0
  3  5  1  0  0  0
  5  6  2  0  0  0
  6  7  1  0  0  0
  7  8  2  0  0  0
  8  9  1  0  0  0
  7 10  1  0  0  0
 10 11  2  0  0  0
 11 12  1  0  0  0
 12 13  1  0  0  0
 12 14  2  0  0  0
 14 18  1  0  0  0
 18 19  1  0  0  0
 19 20  1  0  0  0
 20 21  1  0  0  0
 20 22  1  0  0  0
 20 23  1  0  0  0
 14 15  1  0  0  0
 15 16  1  0  0  0
 15 17  2  0  0  0
 38 26  2  0  0  0
  9  5  1  0  0  0
 17 10  1  0  0  0
 37 28  2  0  0  0
  3  4  1  0  0  0
M  END
> <minimizedAffinity>
-9.05695

> <CNNscore>
0.2111091912

> <CNNaffinity>
6.4212708473

> <CNN_VS>
1.3555892706

> <CNNaffinity_variance>
0.1544798911

$$$$
[H]c1sc(N([H])C(=O)C([H])([H])c2c(C([H])([H])[H])oc3c2c(=O)n(C([H])([H])[H])c(=O)n3C([H])([H])[H])nc1-c1c([H])c(F)c(OC([H])([H])C(F)(F)F)c(F)c1[H]


 38 41  0  0  0  0  0  0  0  0999 V2000
  153.1111  136.3222  186.2324 C   0  0  0  0  0  0  0  0  0  0  0  0
  152.6820  135.6131  187.1928 O   0  0  0  0  0  0  0  0  0  0  0  0
  152.1789  136.8774  185.3647 N   0  0  0  0  0  0  0  0  0  0  0  0
  151.1399  136.7056  185.5155 H   0  0  0  0  0  0  0  0  0  0  0  0
  152.5063  137.6909  184.2234 C   0  0  0  0  0  0  0  0  0  0  0  0
  153.4166  138.6485  184.1823 N   0  0  0  0  0  0  0  0  0  0  0  0
  153.6081  139.3124  183.0836 C   0  0  0  0  0  0  0  0  0  0  0  0
  152.8357  138.9744  181.9996 C   0  0  0  0  0  0  0  0  0  0  0  0
  151.8781  137.7129  182.6410 S   0  0  0  0  0  0  0  0  0  0  0  0
  154.6243  140.3920  183.0109 C   0  0  0  0  0  0  0  0  0  0  0  0
  155.9155  140.1554  183.3853 C   0  0  0  0  0  0  0  0  0  0  0  0
  156.8824  141.1502  183.3265 C   0  0  0  0  0  0  0  0  0  0  0  0
  158.1237  140.7567  183.7014 F   0  0  0  0  0  0  0  0  0  0  0  0
  156.5797  142.4065  182.8927 C   0  0  0  0  0  0  0  0  0  0  0  0
  155.2544  142.6531  182.5067 C   0  0  0  0  0  0  0  0  0  0  0  0
  154.9356  143.8929  182.0722 F   0  0  0  0  0  0  0  0  0  0  0  0
  154.3251  141.6601  182.5734 C   0  0  0  0  0  0  0  0  0  0  0  0
  157.5048  143.4038  182.8284 O   0  0  0  0  0  0  0  0  0  0  0  0
  158.1341  144.0061  181.7690 C   0  0  0  0  0  0  0  0  0  0  0  0
  158.7182  143.1744  180.6837 C   0  0  0  0  0  0  0  0  0  0  0  0
  159.5386  142.2161  181.3407 F   0  0  0  0  0  0  0  0  0  0  0  0
  157.8432  142.4718  179.9259 F   0  0  0  0  0  0  0  0  0  0  0  0
  159.5764  143.9369  179.9045 F   0  0  0  0  0  0  0  0  0  0  0  0
  154.5568  136.5373  186.0610 C   0  0  0  0  0  0  0  0  0  0  0  0
  155.7483  133.6611  185.8305 C   0  0  0  0  0  0  0  0  0  0  0  0
  155.7844  134.5441  187.0257 C   0  0  0  0  0  0  0  0  0  0  0  0
  156.3370  134.2284  188.1860 O   0  0  0  0  0  0  0  0  0  0  0  0
  156.2237  135.1826  189.0495 C   0  0  0  0  0  0  0  0  0  0  0  0
  156.6196  135.3250  190.3383 N   0  0  0  0  0  0  0  0  0  0  0  0
  157.3313  134.2677  191.0289 C   0  0  0  0  0  0  0  0  0  0  0  0
  156.3404  136.4737  190.9780 C   0  0  0  0  0  0  0  0  0  0  0  0
  156.6966  136.6387  192.1830 O   0  0  0  0  0  0  0  0  0  0  0  0
  155.6836  137.4949  190.3987 N   0  0  0  0  0  0  0  0  0  0  0  0
  155.3853  138.7293  191.0941 C   0  0  0  0  0  0  0  0  0  0  0  0
  155.2880  137.3599  189.1196 C   0  0  0  0  0  0  0  0  0  0  0  0
  154.6828  138.2877  188.5698 O   0  0  0  0  0  0  0  0  0  0  0  0
  155.5429  136.2211  188.4242 C   0  0  0  0  0  0  0  0  0  0  0  0
  155.2704  135.8040  187.1427 C   0  0  0  0  0  0  0  0  0  0  0  0
 25 26  1  0  0  0
 26 27  1  0  0  0
 27 28  1  0  0  0
 28 29  1  0  0  0
 29 30  1  0  0  0
 29 31  1  0  0  0
 31 32  2  0  0  0
 31 33  1  0  0  0
 33 34  1  0  0  0
 33 35  1  0  0  0
 35 36  2  0  0  0
 35 37  1  0  0  0
 37 38  1  0  0  0
 38 24  1  0  0  0
 24  1  1  0  0  0
  1  2  2  0  0  0
  1  3  1  0  0  0
  3  5  1  0  0  0
  5  6  2  0  0  0
  6  7  1  0  0  0
  7  8  2  0  0  0
  8  9  1  0  0  0
  7 10  1  0  0  0
 10 11  2  0  0  0
 11 12  1  0  0  0
 12 13  1  0  0  0
 12 14  2  0  0  0
 14 18  1  0  0  0
 18 19  1  0  0  0
 19 20  1  0  0  0
 20 21  1  0  0  0
 20 22  1  0  0  0
 20 23  1  0  0  0
 14 15  1  0  0  0
 15 16  1  0  0  0
 15 17  2  0  0  0
 38 26  2  0  0  0
  9  5  1  0  0  0
 17 10  1  0  0  0
 37 28  2  0  0  0
  3  4  1  0  0  0
M  END
> <minimizedAffinity>
-8.43554

> <CNNscore>
0.1974717230

> <CNNaffinity>
6.4889764786

> <CNN_VS>
1.2813893557

> <CNNaffinity_variance>
0.3227826953

$$$$
[H]c1sc(N([H])C(=O)C([H])([H])c2c(C([H])([H])[H])oc3c2c(=O)n(C([H])([H])[H])c(=O)n3C([H])([H])[H])nc1-c1c([H])c(F)c(OC([H])([H])C(F)(F)F)c(F)c1[H]


 38 41  0  0  0  0  0  0  0  0999 V2000
  153.3214  136.7711  185.1523 C   0  0  0  0  0  0  0  0  0  0  0  0
  153.1172  135.5347  185.3503 O   0  0  0  0  0  0  0  0  0  0  0  0
  154.1646  137.1338  184.1095 N   0  0  0  0  0  0  0  0  0  0  0  0
  154.6164  136.3858  183.5028 H   0  0  0  0  0  0  0  0  0  0  0  0
  154.5061  138.4894  183.7672 C   0  0  0  0  0  0  0  0  0  0  0  0
  155.6450  139.1012  184.0432 N   0  0  0  0  0  0  0  0  0  0  0  0
  155.8215  140.3345  183.6795 C   0  0  0  0  0  0  0  0  0  0  0  0
  154.7905  140.9493  183.0124 C   0  0  0  0  0  0  0  0  0  0  0  0
  153.6269  139.6992  182.9533 S   0  0  0  0  0  0  0  0  0  0  0  0
  157.0910  141.0442  183.9767 C   0  0  0  0  0  0  0  0  0  0  0  0
  157.6268  141.0107  185.2317 C   0  0  0  0  0  0  0  0  0  0  0  0
  158.8124  141.6677  185.5328 C   0  0  0  0  0  0  0  0  0  0  0  0
  159.2343  141.5178  186.8118 F   0  0  0  0  0  0  0  0  0  0  0  0
  159.4897  142.3754  184.5849 C   0  0  0  0  0  0  0  0  0  0  0  0
  158.9426  142.4116  183.2943 C   0  0  0  0  0  0  0  0  0  0  0  0
  159.6010  143.1074  182.3405 F   0  0  0  0  0  0  0  0  0  0  0  0
  157.7786  141.7584  183.0248 C   0  0  0  0  0  0  0  0  0  0  0  0
  160.6517  143.0338  184.8509 O   0  0  0  0  0  0  0  0  0  0  0  0
  161.8608  142.6041  185.3353 C   0  0  0  0  0  0  0  0  0  0  0  0
  162.2972  143.0043  186.6992 C   0  0  0  0  0  0  0  0  0  0  0  0
  161.5660  142.1714  187.5905 F   0  0  0  0  0  0  0  0  0  0  0  0
  163.6063  142.8190  186.9915 F   0  0  0  0  0  0  0  0  0  0  0  0
  161.8882  144.3017  186.9719 F   0  0  0  0  0  0  0  0  0  0  0  0
  152.6745  137.7740  186.0133 C   0  0  0  0  0  0  0  0  0  0  0  0
  150.0956  136.3468  187.0419 C   0  0  0  0  0  0  0  0  0  0  0  0
  151.3551  136.5609  187.8017 C   0  0  0  0  0  0  0  0  0  0  0  0
  151.5651  136.1700  189.0485 O   0  0  0  0  0  0  0  0  0  0  0  0
  152.7481  136.4860  189.4602 C   0  0  0  0  0  0  0  0  0  0  0  0
  153.4070  136.3039  190.6309 N   0  0  0  0  0  0  0  0  0  0  0  0
  152.7812  135.6280  191.7504 C   0  0  0  0  0  0  0  0  0  0  0  0
  154.6649  136.7639  190.7441 C   0  0  0  0  0  0  0  0  0  0  0  0
  155.3084  136.6098  191.8249 O   0  0  0  0  0  0  0  0  0  0  0  0
  155.3057  137.3998  189.7468 N   0  0  0  0  0  0  0  0  0  0  0  0
  156.6607  137.8937  189.8760 C   0  0  0  0  0  0  0  0  0  0  0  0
  154.6574  137.5838  188.5821 C   0  0  0  0  0  0  0  0  0  0  0  0
  155.2298  138.1664  187.6536 O   0  0  0  0  0  0  0  0  0  0  0  0
  153.3848  137.1399  188.4114 C   0  0  0  0  0  0  0  0  0  0  0  0
  152.4917  137.1808  187.3667 C   0  0  0  0  0  0  0  0  0  0  0  0
 25 26  1  0  0  0
 26 27  1  0  0  0
 27 28  1  0  0  0
 28 29  1  0  0  0
 29 30  1  0  0  0
 29 31  1  0  0  0
 31 32  2  0  0  0
 31 33  1  0  0  0
 33 34  1  0  0  0
 33 35  1  0  0  0
 35 36  2  0  0  0
 35 37  1  0  0  0
 37 38  1  0  0  0
 38 24  1  0  0  0
 24  1  1  0  0  0
  1  2  2  0  0  0
  1  3  1  0  0  0
  3  5  1  0  0  0
  5  6  2  0  0  0
  6  7  1  0  0  0
  7  8  2  0  0  0
  8  9  1  0  0  0
  7 10  1  0  0  0
 10 11  2  0  0  0
 11 12  1  0  0  0
 12 13  1  0  0  0
 12 14  2  0  0  0
 14 18  1  0  0  0
 18 19  1  0  0  0
 19 20  1  0  0  0
 20 21  1  0  0  0
 20 22  1  0  0  0
 20 23  1  0  0  0
 14 15  1  0  0  0
 15 16  1  0  0  0
 15 17  2  0  0  0
 38 26  2  0  0  0
  9  5  1  0  0  0
 17 10  1  0  0  0
 37 28  2  0  0  0
  3  4  1  0  0  0
M  END
> <minimizedAffinity>
-8.86168

> <CNNscore>
0.1901257038

> <CNNaffinity>
6.5216913223

> <CNN_VS>
1.2399411201

> <CNNaffinity_variance>
0.2683947682

$$$$
[H]C([H])([H])C([H])(C([H])([H])[H])C([H])([H])N=C=S


  7  6  0  0  0  0  0  0  0  0999 V2000
  154.4538  138.5474  189.2934 C   0  0  0  0  0  0  0  0  0  0  0  0
  156.4158  137.9843  190.7583 C   0  0  0  0  0  0  0  0  0  0  0  0
  154.9836  138.4085  190.7144 C   0  0  0  0  0  0  0  0  0  0  0  0
  154.1495  137.4179  191.4688 C   0  0  0  0  0  0  0  0  0  0  0  0
  155.4489  138.0261  188.3576 N   0  0  0  0  0  0  0  0  0  0  0  0
  155.2225  137.9340  187.1101 C   0  0  0  0  0  0  0  0  0  0  0  0
  155.0398  138.4240  185.5676 S   0  0  0  0  0  0  0  0  0  0  0  0
  2  3  1  0  0  0
  3  4  1  0  0  0
  3  1  1  0  0  0
  1  5  1  0  0  0
  5  6  2  0  0  0
  6  7  2  0  0  0
M  END
> <minimizedAffinity>
-2.79087

> <CNNscore>
0.7356770039

> <CNNaffinity>
3.4631075859

> <CNN_VS>
2.5477285385

> <CNNaffinity_variance>
0.0280277524

$$$$
[H]C([H])([H])C([H])(C([H])([H])[H])C([H])([H])N=C=S


  7  6  0  0  0  0  0  0  0  0999 V2000
  154.7053  138.3871  191.2960 C   0  0  0  0  0  0  0  0  0  0  0  0
  156.4052  137.9773  189.4920 C   0  0  0  0  0  0  0  0  0  0  0  0
  156.1543  138.0579  190.9629 C   0  0  0  0  0  0  0  0  0  0  0  0
  156.5358  136.7576  191.6031 C   0  0  0  0  0  0  0  0  0  0  0  0
  153.9167  137.1560  191.2744 N   0  0  0  0  0  0  0  0  0  0  0  0
  152.9752  136.9403  192.1006 C   0  0  0  0  0  0  0  0  0  0  0  0
  151.4946  137.0595  192.7688 S   0  0  0  0  0  0  0  0  0  0  0  0
  2  3  1  0  0  0
  3  4  1  0  0  0
  3  1  1  0  0  0
  1  5  1  0  0  0
  5  6  2  0  0  0
  6  7  2  0  0  0
M  END
> <minimizedAffinity>
-3.04638

> <CNNscore>
0.7270702124

> <CNNaffinity>
3.3177704811

> <CNN_VS>
2.4122521877

> <CNNaffinity_variance>
0.1309817433

$$$$
[H]C([H])([H])C([H])(C([H])([H])[H])C([H])([H])N=C=S


  7  6  0  0  0  0  0  0  0  0999 V2000
  153.5914  136.8238  190.5383 C   0  0  0  0  0  0  0  0  0  0  0  0
  155.0878  138.7684  191.0785 C   0  0  0  0  0  0  0  0  0  0  0  0
  154.6529  137.7924  190.0339 C   0  0  0  0  0  0  0  0  0  0  0  0
  154.1294  138.5392  188.8446 C   0  0  0  0  0  0  0  0  0  0  0  0
  153.2729  137.1433  191.9291 N   0  0  0  0  0  0  0  0  0  0  0  0
  152.1025  137.0038  192.4050 C   0  0  0  0  0  0  0  0  0  0  0  0
  150.7975  136.2365  193.0059 S   0  0  0  0  0  0  0  0  0  0  0  0
  2  3  1  0  0  0
  3  4  1  0  0  0
  3  1  1  0  0  0
  1  5  1  0  0  0
  5  6  2  0  0  0
  6  7  2  0  0  0
M  END
> <minimizedAffinity>
-2.96874

> <CNNscore>
0.7143557072

> <CNNaffinity>
3.2632050514

> <CNN_VS>
2.3310892582

> <CNNaffinity_variance>
0.0897515640

$$$$
[H]C([H])([H])C([H])(C([H])([H])[H])C([H])([H])N=C=S


  7  6  0  0  0  0  0  0  0  0999 V2000
  160.0586  142.5333  183.9781 C   0  0  0  0  0  0  0  0  0  0  0  0
  158.2506  142.1676  182.2724 C   0  0  0  0  0  0  0  0  0  0  0  0
  159.5177  141.6439  182.8665 C   0  0  0  0  0  0  0  0  0  0  0  0
  159.2830  140.2617  183.3962 C   0  0  0  0  0  0  0  0  0  0  0  0
  161.3082  141.9652  184.4815 N   0  0  0  0  0  0  0  0  0  0  0  0
  161.9674  142.5069  185.4238 C   0  0  0  0  0  0  0  0  0  0  0  0
  162.3519  142.9324  186.9482 S   0  0  0  0  0  0  0  0  0  0  0  0
  2  3  1  0  0  0
  3  4  1  0  0  0
  3  1  1  0  0  0
  1  5  1  0  0  0
  5  6  2  0  0  0
  6  7  2  0  0  0
M  END
> <minimizedAffinity>
-3.37798

> <CNNscore>
0.7072332501

> <CNNaffinity>
3.9966731071

> <CNN_VS>
2.8265800476

> <CNNaffinity_variance>
0.0180989355

$$$$
[H]C([H])([H])C([H])(C([H])([H])[H])C([H])([H])N=C=S


  7  6  0  0  0  0  0  0  0  0999 V2000
  160.0023  142.5506  184.4003 C   0  0  0  0  0  0  0  0  0  0  0  0
  162.4600  142.2512  184.8275 C   0  0  0  0  0  0  0  0  0  0  0  0
  161.2325  143.0386  185.1537 C   0  0  0  0  0  0  0  0  0  0  0  0
  160.9788  142.9731  186.6293 C   0  0  0  0  0  0  0  0  0  0  0  0
  160.2797  141.2323  183.8320 N   0  0  0  0  0  0  0  0  0  0  0  0
  159.4154  140.5909  183.1558 C   0  0  0  0  0  0  0  0  0  0  0  0
  158.4967  140.1873  181.8728 S   0  0  0  0  0  0  0  0  0  0  0  0
  2  3  1  0  0  0
  3  4  1  0  0  0
  3  1  1  0  0  0
  1  5  1  0  0  0
  5  6  2  0  0  0
  6  7  2  0  0  0
M  END
> <minimizedAffinity>
-3.83731

> <CNNscore>
0.6919609904

> <CNNaffinity>
3.8498663902

> <CNN_VS>
2.6639573574

> <CNNaffinity_variance>
0.1217333674

$$$$
[H]C([H])([H])C([H])(C([H])([H])[H])C([H])([H])N=C=S


  7  6  0  0  0  0  0  0  0  0999 V2000
  155.5686  135.9504  190.0679 C   0  0  0  0  0  0  0  0  0  0  0  0
  153.9818  137.3187  191.4544 C   0  0  0  0  0  0  0  0  0  0  0  0
  155.4074  136.9413  191.2131 C   0  0  0  0  0  0  0  0  0  0  0  0
  156.2059  138.1768  190.9266 C   0  0  0  0  0  0  0  0  0  0  0  0
  156.8476  135.2566  190.2107 N   0  0  0  0  0  0  0  0  0  0  0  0
  157.4620  134.7574  189.2161 C   0  0  0  0  0  0  0  0  0  0  0  0
  158.3785  134.7198  187.8703 S   0  0  0  0  0  0  0  0  0  0  0  0
  2  3  1  0  0  0
  3  4  1  0  0  0
  3  1  1  0  0  0
  1  5  1  0  0  0
  5  6  2  0  0  0
  6  7  2  0  0  0
M  END
> <minimizedAffinity>
-2.33923

> <CNNscore>
0.6846958995

> <CNNaffinity>
3.1843516827

> <CNN_VS>
2.1803126335

> <CNNaffinity_variance>
0.1455519497

$$$$
[H]C([H])([H])C([H])(C([H])([H])[H])C([H])([H])N=C=S


  7  6  0  0  0  0  0  0  0  0999 V2000
  152.9639  136.7374  191.2343 C   0  0  0  0  0  0  0  0  0  0  0  0
  150.5571  136.4457  191.8931 C   0  0  0  0  0  0  0  0  0  0  0  0
  151.9678  136.5597  192.3724 C   0  0  0  0  0  0  0  0  0  0  0  0
  152.0771  137.7135  193.3226 C   0  0  0  0  0  0  0  0  0  0  0  0
  154.0175  137.6581  191.6587 N   0  0  0  0  0  0  0  0  0  0  0  0
  155.1845  137.6300  191.1555 C   0  0  0  0  0  0  0  0  0  0  0  0
  156.3637  137.8786  190.0598 S   0  0  0  0  0  0  0  0  0  0  0  0
  2  3  1  0  0  0
  3  4  1  0  0  0
  3  1  1  0  0  0
  1  5  1  0  0  0
  5  6  2  0  0  0
  6  7  2  0  0  0
M  END
> <minimizedAffinity>
-2.67811

> <CNNscore>
0.6801819205

> <CNNaffinity>
3.2736544609

> <CNN_VS>
2.2266805172

> <CNNaffinity_variance>
0.0645295456

$$$$
[H]C([H])([H])C([H])(C([H])([H])[H])C([H])([H])N=C=S


  7  6  0  0  0  0  0  0  0  0999 V2000
  157.3883  142.7265  181.1470 C   0  0  0  0  0  0  0  0  0  0  0  0
  158.7767  144.6676  181.9322 C   0  0  0  0  0  0  0  0  0  0  0  0
  158.7764  143.3468  181.2332 C   0  0  0  0  0  0  0  0  0  0  0  0
  159.3398  143.5151  179.8546 C   0  0  0  0  0  0  0  0  0  0  0  0
  157.5188  141.2942  180.8837 N   0  0  0  0  0  0  0  0  0  0  0  0
  158.1831  140.5233  181.6455 C   0  0  0  0  0  0  0  0  0  0  0  0
  158.5157  139.6107  182.9529 S   0  0  0  0  0  0  0  0  0  0  0  0
  2  3  1  0  0  0
  3  4  1  0  0  0
  3  1  1  0  0  0
  1  5  1  0  0  0
  5  6  2  0  0  0
  6  7  2  0  0  0
M  END
> <minimizedAffinity>
-3.68797

> <CNNscore>
0.6576543450

> <CNNaffinity>
3.9803328514

> <CNN_VS>
2.6176831722

> <CNNaffinity_variance>
0.0242212173

$$$$
[H]C([H])([H])C([H])(C([H])([H])[H])C([H])([H])N=C=S


  7  6  0  0  0  0  0  0  0  0999 V2000
  160.7800  143.4570  184.7155 C   0  0  0  0  0  0  0  0  0  0  0  0
  159.7418  142.3000  186.6892 C   0  0  0  0  0  0  0  0  0  0  0  0
  161.0021  142.5697  185.9331 C   0  0  0  0  0  0  0  0  0  0  0  0
  162.0019  143.2101  186.8478 C   0  0  0  0  0  0  0  0  0  0  0  0
  159.8230  142.8103  183.8191 N   0  0  0  0  0  0  0  0  0  0  0  0
  159.1447  143.4649  182.9664 C   0  0  0  0  0  0  0  0  0  0  0  0
  158.8278  144.2814  181.5931 S   0  0  0  0  0  0  0  0  0  0  0  0
  2  3  1  0  0  0
  3  4  1  0  0  0
  3  1  1  0  0  0
  1  5  1  0  0  0
  5  6  2  0  0  0
  6  7  2  0  0  0
M  END
> <minimizedAffinity>
-4.00339

> <CNNscore>
0.6443404555

> <CNNaffinity>
3.9479489326

> <CNN_VS>
2.5438232422

> <CNNaffinity_variance>
0.1134817451

$$$$
[H]c1sc(N([H])C(=O)C([H])([H])c2c(Cl)oc3c2c(=O)n(C([H])([H])[H])c(=O)n3C([H])([H])[H])nc1-c1c([H])c([H])c(C(F)(F)F)c(F)c1[H]


 35 38  0  0  0  0  0  0  0  0999 V2000
  154.5911  136.3436  187.6209 C   0  0  0  0  0  0  0  0  0  0  0  0
  155.0036  135.4177  188.3663 O   0  0  0  0  0  0  0  0  0  0  0  0
  154.7028  136.1516  186.2434 N   0  0  0  0  0  0  0  0  0  0  0  0
  155.1097  135.2724  185.8693 H   0  0  0  0  0  0  0  0  0  0  0  0
  154.2974  137.1188  185.2638 C   0  0  0  0  0  0  0  0  0  0  0  0
  154.9409  138.2029  184.8651 N   0  0  0  0  0  0  0  0  0  0  0  0
  154.4089  138.9666  183.9688 C   0  0  0  0  0  0  0  0  0  0  0  0
  153.1795  138.6054  183.4681 C   0  0  0  0  0  0  0  0  0  0  0  0
  152.8686  137.1680  184.3359 S   0  0  0  0  0  0  0  0  0  0  0  0
  155.0851  140.1900  183.4758 C   0  0  0  0  0  0  0  0  0  0  0  0
  156.4505  140.2648  183.4340 C   0  0  0  0  0  0  0  0  0  0  0  0
  157.1147  141.4058  182.9728 C   0  0  0  0  0  0  0  0  0  0  0  0
  156.3861  142.4810  182.5506 C   0  0  0  0  0  0  0  0  0  0  0  0
  155.0099  142.4300  182.5828 C   0  0  0  0  0  0  0  0  0  0  0  0
  154.2911  143.4924  182.1633 F   0  0  0  0  0  0  0  0  0  0  0  0
  154.3728  141.2737  183.0496 C   0  0  0  0  0  0  0  0  0  0  0  0
  157.0917  143.7039  182.0578 C   0  0  0  0  0  0  0  0  0  0  0  0
  156.2059  144.7759  182.0815 F   0  0  0  0  0  0  0  0  0  0  0  0
  157.3790  143.4697  180.7102 F   0  0  0  0  0  0  0  0  0  0  0  0
  158.2324  143.9561  182.7574 F   0  0  0  0  0  0  0  0  0  0  0  0
  154.0299  137.5393  188.2829 C   0  0  0  0  0  0  0  0  0  0  0  0
  151.7429  136.0895  193.8018 C   0  0  0  0  0  0  0  0  0  0  0  0
  151.6523  136.1307  192.3522 N   0  0  0  0  0  0  0  0  0  0  0  0
  152.6196  136.6462  191.5770 C   0  0  0  0  0  0  0  0  0  0  0  0
  153.7752  137.1823  191.8919 O   0  0  0  0  0  0  0  0  0  0  0  0
  154.4355  137.5684  190.8258 C   0  0  0  0  0  0  0  0  0  0  0  0
  156.0117  138.3232  190.8746 Cl  0  0  0  0  0  0  0  0  0  0  0  0
  153.6825  137.2785  189.7036 C   0  0  0  0  0  0  0  0  0  0  0  0
  152.5345  136.6942  190.1877 C   0  0  0  0  0  0  0  0  0  0  0  0
  151.3916  136.1794  189.6149 C   0  0  0  0  0  0  0  0  0  0  0  0
  151.2775  136.2051  188.3565 O   0  0  0  0  0  0  0  0  0  0  0  0
  150.4158  135.6595  190.3831 N   0  0  0  0  0  0  0  0  0  0  0  0
  149.2331  135.1239  189.7444 C   0  0  0  0  0  0  0  0  0  0  0  0
  150.5585  135.6427  191.7304 C   0  0  0  0  0  0  0  0  0  0  0  0
  149.6387  135.1532  192.4537 O   0  0  0  0  0  0  0  0  0  0  0  0
 22 23  1  0  0  0
 23 24  1  0  0  0
 24 25  1  0  0  0
 25 26  1  0  0  0
 26 27  1  0  0  0
 26 28  2  0  0  0
 28 21  1  0  0  0
 21  1  1  0  0  0
  1  2  2  0  0  0
  1  3  1  0  0  0
  3  5  1  0  0  0
  5  6  2  0  0  0
  6  7  1  0  0  0
  7  8  2  0  0  0
  8  9  1  0  0  0
  7 10  1  0  0  0
 10 11  2  0  0  0
 11 12  1  0  0  0
 12 13  2  0  0  0
 13 14  1  0  0  0
 14 15  1  0  0  0
 14 16  2  0  0  0
 13 17  1  0  0  0
 17 18  1  0  0  0
 17 19  1  0  0  0
 17 20  1  0  0  0
 28 29  1  0  0  0
 29 30  1  0  0  0
 30 31  2  0  0  0
 30 32  1  0  0  0
 32 33  1  0  0  0
 32 34  1  0  0  0
 34 35  2  0  0  0
 34 23  1  0  0  0
 29 24  2  0  0  0
  9  5  1  0  0  0
 16 10  1  0  0  0
  3  4  1  0  0  0
M  END
> <minimizedAffinity>
-8.53179

> <CNNscore>
0.5676050186

> <CNNaffinity>
6.4925589561

> <CNN_VS>
3.6852090359

> <CNNaffinity_variance>
0.1346942931

$$$$
[H]c1sc(N([H])C(=O)C([H])([H])c2c(Cl)oc3c2c(=O)n(C([H])([H])[H])c(=O)n3C([H])([H])[H])nc1-c1c([H])c([H])c(C(F)(F)F)c(F)c1[H]


 35 38  0  0  0  0  0  0  0  0999 V2000
  154.4633  136.2119  188.1311 C   0  0  0  0  0  0  0  0  0  0  0  0
  154.6370  135.1951  188.8516 O   0  0  0  0  0  0  0  0  0  0  0  0
  155.0534  136.2066  186.8668 N   0  0  0  0  0  0  0  0  0  0  0  0
  155.6067  135.3862  186.5515 H   0  0  0  0  0  0  0  0  0  0  0  0
  154.9653  137.2957  185.9365 C   0  0  0  0  0  0  0  0  0  0  0  0
  154.0770  137.4850  184.9756 N   0  0  0  0  0  0  0  0  0  0  0  0
  154.1639  138.5328  184.2244 C   0  0  0  0  0  0  0  0  0  0  0  0
  155.1943  139.4112  184.4680 C   0  0  0  0  0  0  0  0  0  0  0  0
  155.9800  138.6565  185.7828 S   0  0  0  0  0  0  0  0  0  0  0  0
  153.1936  138.8038  183.1372 C   0  0  0  0  0  0  0  0  0  0  0  0
  153.3044  139.9288  182.3665 C   0  0  0  0  0  0  0  0  0  0  0  0
  152.4040  140.2091  181.3337 C   0  0  0  0  0  0  0  0  0  0  0  0
  151.3816  139.3396  181.0812 C   0  0  0  0  0  0  0  0  0  0  0  0
  151.2490  138.1997  181.8433 C   0  0  0  0  0  0  0  0  0  0  0  0
  150.2394  137.3403  181.5913 F   0  0  0  0  0  0  0  0  0  0  0  0
  152.1660  137.9457  182.8706 C   0  0  0  0  0  0  0  0  0  0  0  0
  150.4155  139.6356  179.9789 C   0  0  0  0  0  0  0  0  0  0  0  0
  150.8255  140.7882  179.3173 F   0  0  0  0  0  0  0  0  0  0  0  0
  149.2049  139.9561  180.5995 F   0  0  0  0  0  0  0  0  0  0  0  0
  150.2596  138.5786  179.1345 F   0  0  0  0  0  0  0  0  0  0  0  0
  153.6505  137.3071  188.6995 C   0  0  0  0  0  0  0  0  0  0  0  0
  151.4608  135.9426  194.2793 C   0  0  0  0  0  0  0  0  0  0  0  0
  151.3545  135.9424  192.8302 N   0  0  0  0  0  0  0  0  0  0  0  0
  152.2991  136.4637  192.0312 C   0  0  0  0  0  0  0  0  0  0  0  0
  153.4423  137.0399  192.3192 O   0  0  0  0  0  0  0  0  0  0  0  0
  154.0807  137.4155  191.2362 C   0  0  0  0  0  0  0  0  0  0  0  0
  155.6356  138.2148  191.2480 Cl  0  0  0  0  0  0  0  0  0  0  0  0
  153.3249  137.0749  190.1303 C   0  0  0  0  0  0  0  0  0  0  0  0
  152.1987  136.4720  190.6421 C   0  0  0  0  0  0  0  0  0  0  0  0
  151.0650  135.9105  190.0955 C   0  0  0  0  0  0  0  0  0  0  0  0
  150.9375  135.8993  188.8382 O   0  0  0  0  0  0  0  0  0  0  0  0
  150.1119  135.3844  190.8877 N   0  0  0  0  0  0  0  0  0  0  0  0
  148.9384  134.7992  190.2762 C   0  0  0  0  0  0  0  0  0  0  0  0
  150.2686  135.4077  192.2334 C   0  0  0  0  0  0  0  0  0  0  0  0
  149.3703  134.9124  192.9793 O   0  0  0  0  0  0  0  0  0  0  0  0
 22 23  1  0  0  0
 23 24  1  0  0  0
 24 25  1  0  0  0
 25 26  1  0  0  0
 26 27  1  0  0  0
 26 28  2  0  0  0
 28 21  1  0  0  0
 21  1  1  0  0  0
  1  2  2  0  0  0
  1  3  1  0  0  0
  3  5  1  0  0  0
  5  6  2  0  0  0
  6  7  1  0  0  0
  7  8  2  0  0  0
  8  9  1  0  0  0
  7 10  1  0  0  0
 10 11  2  0  0  0
 11 12  1  0  0  0
 12 13  2  0  0  0
 13 14  1  0  0  0
 14 15  1  0  0  0
 14 16  2  0  0  0
 13 17  1  0  0  0
 17 18  1  0  0  0
 17 19  1  0  0  0
 17 20  1  0  0  0
 28 29  1  0  0  0
 29 30  1  0  0  0
 30 31  2  0  0  0
 30 32  1  0  0  0
 32 33  1  0  0  0
 32 34  1  0  0  0
 34 35  2  0  0  0
 34 23  1  0  0  0
 29 24  2  0  0  0
  9  5  1  0  0  0
 16 10  1  0  0  0
  3  4  1  0  0  0
M  END
> <minimizedAffinity>
-7.88693

> <CNNscore>
0.5394130349

> <CNNaffinity>
6.0231766701

> <CNN_VS>
3.2489800453

> <CNNaffinity_variance>
0.2349322140

$$$$
[H]c1sc(N([H])C(=O)C([H])([H])c2c(Cl)oc3c2c(=O)n(C([H])([H])[H])c(=O)n3C([H])([H])[H])nc1-c1c([H])c([H])c(C(F)(F)F)c(F)c1[H]


 35 38  0  0  0  0  0  0  0  0999 V2000
  154.7213  136.6853  187.8521 C   0  0  0  0  0  0  0  0  0  0  0  0
  155.1351  135.7638  188.6022 O   0  0  0  0  0  0  0  0  0  0  0  0
  155.0618  136.6099  186.5012 N   0  0  0  0  0  0  0  0  0  0  0  0
  155.6317  135.8163  186.1491 H   0  0  0  0  0  0  0  0  0  0  0  0
  154.6846  137.5904  185.5235 C   0  0  0  0  0  0  0  0  0  0  0  0
  155.3925  138.6097  185.0673 N   0  0  0  0  0  0  0  0  0  0  0  0
  154.8770  139.3994  184.1840 C   0  0  0  0  0  0  0  0  0  0  0  0
  153.5963  139.1336  183.7576 C   0  0  0  0  0  0  0  0  0  0  0  0
  153.2159  137.7428  184.6722 S   0  0  0  0  0  0  0  0  0  0  0  0
  155.6239  140.5531  183.6288 C   0  0  0  0  0  0  0  0  0  0  0  0
  155.0202  141.7724  183.4857 C   0  0  0  0  0  0  0  0  0  0  0  0
  155.7010  142.8780  182.9660 C   0  0  0  0  0  0  0  0  0  0  0  0
  157.0065  142.7445  182.5877 C   0  0  0  0  0  0  0  0  0  0  0  0
  157.6365  141.5268  182.7222 C   0  0  0  0  0  0  0  0  0  0  0  0
  158.9272  141.3968  182.3500 F   0  0  0  0  0  0  0  0  0  0  0  0
  156.9291  140.4378  183.2460 C   0  0  0  0  0  0  0  0  0  0  0  0
  157.7383  143.9233  182.0302 C   0  0  0  0  0  0  0  0  0  0  0  0
  158.8110  144.2233  182.8630 F   0  0  0  0  0  0  0  0  0  0  0  0
  156.8599  145.0062  182.1261 F   0  0  0  0  0  0  0  0  0  0  0  0
  158.1218  143.7262  180.7384 F   0  0  0  0  0  0  0  0  0  0  0  0
  153.9158  137.7525  188.4809 C   0  0  0  0  0  0  0  0  0  0  0  0
  151.6865  136.0131  193.9394 C   0  0  0  0  0  0  0  0  0  0  0  0
  151.6089  136.0786  192.4899 N   0  0  0  0  0  0  0  0  0  0  0  0
  152.5422  136.6832  191.7378 C   0  0  0  0  0  0  0  0  0  0  0  0
  153.6497  137.2992  192.0782 O   0  0  0  0  0  0  0  0  0  0  0  0
  154.2901  137.7576  191.0287 C   0  0  0  0  0  0  0  0  0  0  0  0
  155.8031  138.6295  191.1130 Cl  0  0  0  0  0  0  0  0  0  0  0  0
  153.5739  137.4353  189.8914 C   0  0  0  0  0  0  0  0  0  0  0  0
  152.4689  136.7545  190.3488 C   0  0  0  0  0  0  0  0  0  0  0  0
  151.3752  136.1663  189.7511 C   0  0  0  0  0  0  0  0  0  0  0  0
  151.2732  136.2104  188.4922 O   0  0  0  0  0  0  0  0  0  0  0  0
  150.4338  135.5568  190.4960 N   0  0  0  0  0  0  0  0  0  0  0  0
  149.3028  134.9462  189.8315 C   0  0  0  0  0  0  0  0  0  0  0  0
  150.5627  135.5219  191.8444 C   0  0  0  0  0  0  0  0  0  0  0  0
  149.6753  134.9479  192.5458 O   0  0  0  0  0  0  0  0  0  0  0  0
 22 23  1  0  0  0
 23 24  1  0  0  0
 24 25  1  0  0  0
 25 26  1  0  0  0
 26 27  1  0  0  0
 26 28  2  0  0  0
 28 21  1  0  0  0
 21  1  1  0  0  0
  1  2  2  0  0  0
  1  3  1  0  0  0
  3  5  1  0  0  0
  5  6  2  0  0  0
  6  7  1  0  0  0
  7  8  2  0  0  0
  8  9  1  0  0  0
  7 10  1  0  0  0
 10 11  2  0  0  0
 11 12  1  0  0  0
 12 13  2  0  0  0
 13 14  1  0  0  0
 14 15  1  0  0  0
 14 16  2  0  0  0
 13 17  1  0  0  0
 17 18  1  0  0  0
 17 19  1  0  0  0
 17 20  1  0  0  0
 28 29  1  0  0  0
 29 30  1  0  0  0
 30 31  2  0  0  0
 30 32  1  0  0  0
 32 33  1  0  0  0
 32 34  1  0  0  0
 34 35  2  0  0  0
 34 23  1  0  0  0
 29 24  2  0  0  0
  9  5  1  0  0  0
 16 10  1  0  0  0
  3  4  1  0  0  0
M  END
> <minimizedAffinity>
-8.45923

> <CNNscore>
0.5136397481

> <CNNaffinity>
6.4563775063

> <CNN_VS>
3.3162522316

> <CNNaffinity_variance>
0.1344343722

$$$$
[H]c1sc(N([H])C(=O)C([H])([H])c2c(Cl)oc3c2c(=O)n(C([H])([H])[H])c(=O)n3C([H])([H])[H])nc1-c1c([H])c([H])c(C(F)(F)F)c(F)c1[H]


 35 38  0  0  0  0  0  0  0  0999 V2000
  153.3011  137.7914  188.2029 C   0  0  0  0  0  0  0  0  0  0  0  0
  152.7721  137.4827  189.3020 O   0  0  0  0  0  0  0  0  0  0  0  0
  152.4759  137.8012  187.0780 N   0  0  0  0  0  0  0  0  0  0  0  0
  151.4689  137.5631  187.1661 H   0  0  0  0  0  0  0  0  0  0  0  0
  152.9309  138.1116  185.7528 C   0  0  0  0  0  0  0  0  0  0  0  0
  153.6688  139.1347  185.3566 N   0  0  0  0  0  0  0  0  0  0  0  0
  153.9752  139.2538  184.1070 C   0  0  0  0  0  0  0  0  0  0  0  0
  153.5090  138.2933  183.2394 C   0  0  0  0  0  0  0  0  0  0  0  0
  152.6478  137.2680  184.2991 S   0  0  0  0  0  0  0  0  0  0  0  0
  154.8058  140.3736  183.6040 C   0  0  0  0  0  0  0  0  0  0  0  0
  156.1715  140.2971  183.6303 C   0  0  0  0  0  0  0  0  0  0  0  0
  156.9795  141.3378  183.1615 C   0  0  0  0  0  0  0  0  0  0  0  0
  156.3958  142.4668  182.6616 C   0  0  0  0  0  0  0  0  0  0  0  0
  155.0225  142.5677  182.6242 C   0  0  0  0  0  0  0  0  0  0  0  0
  154.4470  143.6830  182.1280 F   0  0  0  0  0  0  0  0  0  0  0  0
  154.2394  141.5091  183.1006 C   0  0  0  0  0  0  0  0  0  0  0  0
  157.2555  143.5829  182.1604 C   0  0  0  0  0  0  0  0  0  0  0  0
  157.3842  143.4682  180.7803 F   0  0  0  0  0  0  0  0  0  0  0  0
  158.5302  143.3577  182.6874 F   0  0  0  0  0  0  0  0  0  0  0  0
  156.7857  144.8036  182.5393 F   0  0  0  0  0  0  0  0  0  0  0  0
  154.7431  138.1129  188.2183 C   0  0  0  0  0  0  0  0  0  0  0  0
  157.9138  133.8426  191.3009 C   0  0  0  0  0  0  0  0  0  0  0  0
  157.2662  134.3303  190.0950 N   0  0  0  0  0  0  0  0  0  0  0  0
  156.6527  135.5226  190.0299 C   0  0  0  0  0  0  0  0  0  0  0  0
  156.5006  136.4585  190.9370 O   0  0  0  0  0  0  0  0  0  0  0  0
  155.8307  137.4838  190.4662 C   0  0  0  0  0  0  0  0  0  0  0  0
  155.4460  138.9102  191.4010 Cl  0  0  0  0  0  0  0  0  0  0  0  0
  155.5002  137.2350  189.1474 C   0  0  0  0  0  0  0  0  0  0  0  0
  156.0247  135.9915  188.8785 C   0  0  0  0  0  0  0  0  0  0  0  0
  156.0540  135.1688  187.7732 C   0  0  0  0  0  0  0  0  0  0  0  0
  155.4948  135.5596  186.7093 O   0  0  0  0  0  0  0  0  0  0  0  0
  156.6672  133.9715  187.8276 N   0  0  0  0  0  0  0  0  0  0  0  0
  156.6813  133.1383  186.6448 C   0  0  0  0  0  0  0  0  0  0  0  0
  157.2598  133.5719  188.9787 C   0  0  0  0  0  0  0  0  0  0  0  0
  157.8370  132.4435  189.0296 O   0  0  0  0  0  0  0  0  0  0  0  0
 22 23  1  0  0  0
 23 24  1  0  0  0
 24 25  1  0  0  0
 25 26  1  0  0  0
 26 27  1  0  0  0
 26 28  2  0  0  0
 28 21  1  0  0  0
 21  1  1  0  0  0
  1  2  2  0  0  0
  1  3  1  0  0  0
  3  5  1  0  0  0
  5  6  2  0  0  0
  6  7  1  0  0  0
  7  8  2  0  0  0
  8  9  1  0  0  0
  7 10  1  0  0  0
 10 11  2  0  0  0
 11 12  1  0  0  0
 12 13  2  0  0  0
 13 14  1  0  0  0
 14 15  1  0  0  0
 14 16  2  0  0  0
 13 17  1  0  0  0
 17 18  1  0  0  0
 17 19  1  0  0  0
 17 20  1  0  0  0
 28 29  1  0  0  0
 29 30  1  0  0  0
 30 31  2  0  0  0
 30 32  1  0  0  0
 32 33  1  0  0  0
 32 34  1  0  0  0
 34 35  2  0  0  0
 34 23  1  0  0  0
 29 24  2  0  0  0
  9  5  1  0  0  0
 16 10  1  0  0  0
  3  4  1  0  0  0
M  END
> <minimizedAffinity>
-8.19482

> <CNNscore>
0.4667715728

> <CNNaffinity>
6.4575133324

> <CNN_VS>
3.0141837597

> <CNNaffinity_variance>
0.1579526365

$$$$
[H]c1sc(N([H])C(=O)C([H])([H])c2c(Cl)oc3c2c(=O)n(C([H])([H])[H])c(=O)n3C([H])([H])[H])nc1-c1c([H])c([H])c(C(F)(F)F)c(F)c1[H]


 35 38  0  0  0  0  0  0  0  0999 V2000
  154.1681  137.1369  185.0919 C   0  0  0  0  0  0  0  0  0  0  0  0
  153.5052  136.0868  185.2942 O   0  0  0  0  0  0  0  0  0  0  0  0
  153.7243  137.9864  184.0780 N   0  0  0  0  0  0  0  0  0  0  0  0
  152.8780  137.7449  183.5266 H   0  0  0  0  0  0  0  0  0  0  0  0
  154.3808  139.2089  183.7119 C   0  0  0  0  0  0  0  0  0  0  0  0
  155.5693  139.6478  184.0901 N   0  0  0  0  0  0  0  0  0  0  0  0
  155.9942  140.7893  183.6588 C   0  0  0  0  0  0  0  0  0  0  0  0
  155.1732  141.5003  182.8144 C   0  0  0  0  0  0  0  0  0  0  0  0
  153.8241  140.4602  182.6973 S   0  0  0  0  0  0  0  0  0  0  0  0
  157.3203  141.3303  184.0406 C   0  0  0  0  0  0  0  0  0  0  0  0
  157.9731  140.8625  185.1481 C   0  0  0  0  0  0  0  0  0  0  0  0
  159.2252  141.3539  185.5310 C   0  0  0  0  0  0  0  0  0  0  0  0
  159.8200  142.3295  184.7829 C   0  0  0  0  0  0  0  0  0  0  0  0
  159.1828  142.8168  183.6630 C   0  0  0  0  0  0  0  0  0  0  0  0
  159.7726  143.7793  182.9234 F   0  0  0  0  0  0  0  0  0  0  0  0
  157.9296  142.3051  183.3043 C   0  0  0  0  0  0  0  0  0  0  0  0
  161.1581  142.8591  185.1889 C   0  0  0  0  0  0  0  0  0  0  0  0
  162.1351  142.2790  184.3868 F   0  0  0  0  0  0  0  0  0  0  0  0
  161.3876  142.3831  186.4828 F   0  0  0  0  0  0  0  0  0  0  0  0
  161.2025  144.2199  185.1607 F   0  0  0  0  0  0  0  0  0  0  0  0
  155.3489  137.3618  185.9512 C   0  0  0  0  0  0  0  0  0  0  0  0
  154.7297  136.2091  191.9577 C   0  0  0  0  0  0  0  0  0  0  0  0
  155.3954  136.0126  190.6812 N   0  0  0  0  0  0  0  0  0  0  0  0
  155.0168  136.6434  189.5582 C   0  0  0  0  0  0  0  0  0  0  0  0
  154.0561  137.5116  189.3457 O   0  0  0  0  0  0  0  0  0  0  0  0
  154.0177  137.8926  188.0907 C   0  0  0  0  0  0  0  0  0  0  0  0
  152.8640  139.0420  187.4550 Cl  0  0  0  0  0  0  0  0  0  0  0  0
  155.0189  137.2418  187.3947 C   0  0  0  0  0  0  0  0  0  0  0  0
  155.6473  136.4532  188.3311 C   0  0  0  0  0  0  0  0  0  0  0  0
  156.7056  135.5708  188.3040 C   0  0  0  0  0  0  0  0  0  0  0  0
  157.3034  135.3717  187.2084 O   0  0  0  0  0  0  0  0  0  0  0  0
  157.0940  134.9336  189.4246 N   0  0  0  0  0  0  0  0  0  0  0  0
  158.2129  134.0187  189.3570 C   0  0  0  0  0  0  0  0  0  0  0  0
  156.4386  135.1614  190.5883 C   0  0  0  0  0  0  0  0  0  0  0  0
  156.8045  134.5605  191.6437 O   0  0  0  0  0  0  0  0  0  0  0  0
 22 23  1  0  0  0
 23 24  1  0  0  0
 24 25  1  0  0  0
 25 26  1  0  0  0
 26 27  1  0  0  0
 26 28  2  0  0  0
 28 21  1  0  0  0
 21  1  1  0  0  0
  1  2  2  0  0  0
  1  3  1  0  0  0
  3  5  1  0  0  0
  5  6  2  0  0  0
  6  7  1  0  0  0
  7  8  2  0  0  0
  8  9  1  0  0  0
  7 10  1  0  0  0
 10 11  2  0  0  0
 11 12  1  0  0  0
 12 13  2  0  0  0
 13 14  1  0  0  0
 14 15  1  0  0  0
 14 16  2  0  0  0
 13 17  1  0  0  0
 17 18  1  0  0  0
 17 19  1  0  0  0
 17 20  1  0  0  0
 28 29  1  0  0  0
 29 30  1  0  0  0
 30 31  2  0  0  0
 30 32  1  0  0  0
 32 33  1  0  0  0
 32 34  1  0  0  0
 34 35  2  0  0  0
 34 23  1  0  0  0
 29 24  2  0  0  0
  9  5  1  0  0  0
 16 10  1  0  0  0
  3  4  1  0  0  0
M  END
> <minimizedAffinity>
-8.73096

> <CNNscore>
0.3625887632

> <CNNaffinity>
6.5527648926

> <CNN_VS>
2.3759589195

> <CNNaffinity_variance>
0.2858023643

$$$$
[H]c1sc(N([H])C(=O)C([H])([H])c2c(Cl)oc3c2c(=O)n(C([H])([H])[H])c(=O)n3C([H])([H])[H])nc1-c1c([H])c([H])c(C(F)(F)F)c(F)c1[H]


 35 38  0  0  0  0  0  0  0  0999 V2000
  154.6110  136.1516  188.2459 C   0  0  0  0  0  0  0  0  0  0  0  0
  155.6145  136.0169  188.9929 O   0  0  0  0  0  0  0  0  0  0  0  0
  154.5499  135.3467  187.1079 N   0  0  0  0  0  0  0  0  0  0  0  0
  155.3102  134.6688  186.9055 H   0  0  0  0  0  0  0  0  0  0  0  0
  153.4839  135.3950  186.1483 C   0  0  0  0  0  0  0  0  0  0  0  0
  153.3086  136.2536  185.1583 N   0  0  0  0  0  0  0  0  0  0  0  0
  152.2725  136.1427  184.3942 C   0  0  0  0  0  0  0  0  0  0  0  0
  151.3909  135.1195  184.6557 C   0  0  0  0  0  0  0  0  0  0  0  0
  152.1257  134.3752  186.0055 S   0  0  0  0  0  0  0  0  0  0  0  0
  152.0260  137.0692  183.2638 C   0  0  0  0  0  0  0  0  0  0  0  0
  151.1078  136.7628  182.2969 C   0  0  0  0  0  0  0  0  0  0  0  0
  150.8543  137.6186  181.2202 C   0  0  0  0  0  0  0  0  0  0  0  0
  151.5395  138.7961  181.1239 C   0  0  0  0  0  0  0  0  0  0  0  0
  152.4690  139.1272  182.0851 C   0  0  0  0  0  0  0  0  0  0  0  0
  153.1439  140.2921  181.9898 F   0  0  0  0  0  0  0  0  0  0  0  0
  152.7013  138.2503  183.1519 C   0  0  0  0  0  0  0  0  0  0  0  0
  151.2730  139.7138  179.9738 C   0  0  0  0  0  0  0  0  0  0  0  0
  150.4027  139.0866  179.0887 F   0  0  0  0  0  0  0  0  0  0  0  0
  152.4868  139.8463  179.2937 F   0  0  0  0  0  0  0  0  0  0  0  0
  150.8136  140.9291  180.3817 F   0  0  0  0  0  0  0  0  0  0  0  0
  153.5999  137.1492  188.6528 C   0  0  0  0  0  0  0  0  0  0  0  0
  151.4040  136.2474  194.3233 C   0  0  0  0  0  0  0  0  0  0  0  0
  151.3192  136.0929  192.8811 N   0  0  0  0  0  0  0  0  0  0  0  0
  152.2464  136.5799  192.0412 C   0  0  0  0  0  0  0  0  0  0  0  0
  153.3531  137.2437  192.2786 O   0  0  0  0  0  0  0  0  0  0  0  0
  153.9866  137.5403  191.1685 C   0  0  0  0  0  0  0  0  0  0  0  0
  155.4966  138.4197  191.1120 Cl  0  0  0  0  0  0  0  0  0  0  0  0
  153.2661  137.0477  190.0969 C   0  0  0  0  0  0  0  0  0  0  0  0
  152.1660  136.4403  190.6578 C   0  0  0  0  0  0  0  0  0  0  0  0
  151.0718  135.7652  190.1617 C   0  0  0  0  0  0  0  0  0  0  0  0
  150.9635  135.6182  188.9112 O   0  0  0  0  0  0  0  0  0  0  0  0
  150.1364  135.2722  190.9953 N   0  0  0  0  0  0  0  0  0  0  0  0
  149.0046  134.5647  190.4367 C   0  0  0  0  0  0  0  0  0  0  0  0
  150.2719  135.4418  192.3327 C   0  0  0  0  0  0  0  0  0  0  0  0
  149.3902  134.9776  193.1175 O   0  0  0  0  0  0  0  0  0  0  0  0
 22 23  1  0  0  0
 23 24  1  0  0  0
 24 25  1  0  0  0
 25 26  1  0  0  0
 26 27  1  0  0  0
 26 28  2  0  0  0
 28 21  1  0  0  0
 21  1  1  0  0  0
  1  2  2  0  0  0
  1  3  1  0  0  0
  3  5  1  0  0  0
  5  6  2  0  0  0
  6  7  1  0  0  0
  7  8  2  0  0  0
  8  9  1  0  0  0
  7 10  1  0  0  0
 10 11  2  0  0  0
 11 12  1  0  0  0
 12 13  2  0  0  0
 13 14  1  0  0  0
 14 15  1  0  0  0
 14 16  2  0  0  0
 13 17  1  0  0  0
 17 18  1  0  0  0
 17 19  1  0  0  0
 17 20  1  0  0  0
 28 29  1  0  0  0
 29 30  1  0  0  0
 30 31  2  0  0  0
 30 32  1  0  0  0
 32 33  1  0  0  0
 32 34  1  0  0  0
 34 35  2  0  0  0
 34 23  1  0  0  0
 29 24  2  0  0  0
  9  5  1  0  0  0
 16 10  1  0  0  0
  3  4  1  0  0  0
M  END
> <minimizedAffinity>
-7.11479

> <CNNscore>
0.3532559872

> <CNNaffinity>
5.9427461624

> <CNN_VS>
2.0993106365

> <CNNaffinity_variance>
0.1415787190

$$$$
[H]c1sc(N([H])C(=O)C([H])([H])c2c(Cl)oc3c2c(=O)n(C([H])([H])[H])c(=O)n3C([H])([H])[H])nc1-c1c([H])c([H])c(C(F)(F)F)c(F)c1[H]


 35 38  0  0  0  0  0  0  0  0999 V2000
  152.8289  136.9873  188.6399 C   0  0  0  0  0  0  0  0  0  0  0  0
  152.9003  137.1940  189.8790 O   0  0  0  0  0  0  0  0  0  0  0  0
  151.6592  136.3995  188.1572 N   0  0  0  0  0  0  0  0  0  0  0  0
  150.8900  136.1531  188.8100 H   0  0  0  0  0  0  0  0  0  0  0  0
  151.4326  136.0817  186.7762 C   0  0  0  0  0  0  0  0  0  0  0  0
  151.4101  136.9005  185.7383 N   0  0  0  0  0  0  0  0  0  0  0  0
  151.1796  136.4276  184.5581 C   0  0  0  0  0  0  0  0  0  0  0  0
  150.9657  135.0735  184.4418 C   0  0  0  0  0  0  0  0  0  0  0  0
  151.1135  134.5659  186.0654 S   0  0  0  0  0  0  0  0  0  0  0  0
  151.1501  137.2936  183.3556 C   0  0  0  0  0  0  0  0  0  0  0  0
  152.2899  137.5300  182.6368 C   0  0  0  0  0  0  0  0  0  0  0  0
  152.2909  138.3418  181.4980 C   0  0  0  0  0  0  0  0  0  0  0  0
  151.1241  138.9192  181.0853 C   0  0  0  0  0  0  0  0  0  0  0  0
  149.9629  138.6962  181.7921 C   0  0  0  0  0  0  0  0  0  0  0  0
  148.8103  139.2657  181.3819 F   0  0  0  0  0  0  0  0  0  0  0  0
  149.9929  137.8784  182.9285 C   0  0  0  0  0  0  0  0  0  0  0  0
  151.1202  139.7892  179.8690 C   0  0  0  0  0  0  0  0  0  0  0  0
  150.3315  139.1931  178.8908 F   0  0  0  0  0  0  0  0  0  0  0  0
  152.4276  139.7715  179.3751 F   0  0  0  0  0  0  0  0  0  0  0  0
  150.7277  141.0627  180.1492 F   0  0  0  0  0  0  0  0  0  0  0  0
  153.9928  137.3901  187.8236 C   0  0  0  0  0  0  0  0  0  0  0  0
  158.9965  133.9948  188.9306 C   0  0  0  0  0  0  0  0  0  0  0  0
  157.7986  134.2924  188.1639 N   0  0  0  0  0  0  0  0  0  0  0  0
  156.9902  135.3257  188.4488 C   0  0  0  0  0  0  0  0  0  0  0  0
  157.0667  136.2397  189.3872 O   0  0  0  0  0  0  0  0  0  0  0  0
  156.0641  137.0837  189.3228 C   0  0  0  0  0  0  0  0  0  0  0  0
  155.8493  138.4289  190.4185 Cl  0  0  0  0  0  0  0  0  0  0  0  0
  155.2438  136.7246  188.2699 C   0  0  0  0  0  0  0  0  0  0  0  0
  155.8374  135.6109  187.7212 C   0  0  0  0  0  0  0  0  0  0  0  0
  155.5431  134.7746  186.6662 C   0  0  0  0  0  0  0  0  0  0  0  0
  154.5049  135.0011  185.9819 O   0  0  0  0  0  0  0  0  0  0  0  0
  156.3474  133.7359  186.3714 N   0  0  0  0  0  0  0  0  0  0  0  0
  156.0077  132.8834  185.2528 C   0  0  0  0  0  0  0  0  0  0  0  0
  157.4551  133.5109  187.1186 C   0  0  0  0  0  0  0  0  0  0  0  0
  158.2124  132.5320  186.8408 O   0  0  0  0  0  0  0  0  0  0  0  0
 22 23  1  0  0  0
 23 24  1  0  0  0
 24 25  1  0  0  0
 25 26  1  0  0  0
 26 27  1  0  0  0
 26 28  2  0  0  0
 28 21  1  0  0  0
 21  1  1  0  0  0
  1  2  2  0  0  0
  1  3  1  0  0  0
  3  5  1  0  0  0
  5  6  2  0  0  0
  6  7  1  0  0  0
  7  8  2  0  0  0
  8  9  1  0  0  0
  7 10  1  0  0  0
 10 11  2  0  0  0
 11 12  1  0  0  0
 12 13  2  0  0  0
 13 14  1  0  0  0
 14 15  1  0  0  0
 14 16  2  0  0  0
 13 17  1  0  0  0
 17 18  1  0  0  0
 17 19  1  0  0  0
 17 20  1  0  0  0
 28 29  1  0  0  0
 29 30  1  0  0  0
 30 31  2  0  0  0
 30 32  1  0  0  0
 32 33  1  0  0  0
 32 34  1  0  0  0
 34 35  2  0  0  0
 34 23  1  0  0  0
 29 24  2  0  0  0
  9  5  1  0  0  0
 16 10  1  0  0  0
  3  4  1  0  0  0
M  END
> <minimizedAffinity>
-6.72441

> <CNNscore>
0.3421096206

> <CNNaffinity>
5.9227457047

> <CNN_VS>
2.0262281895

> <CNNaffinity_variance>
0.0625108927

$$$$
[H]c1sc(N([H])C(=O)C([H])([H])c2c(Cl)oc3c2c(=O)n(C([H])([H])[H])c(=O)n3C([H])([H])[H])nc1-c1c([H])c([H])c(C(F)(F)F)c(F)c1[H]


 35 38  0  0  0  0  0  0  0  0999 V2000
  153.3231  137.1203  185.0896 C   0  0  0  0  0  0  0  0  0  0  0  0
  153.3052  135.9356  185.5128 O   0  0  0  0  0  0  0  0  0  0  0  0
  153.4141  137.3037  183.7095 N   0  0  0  0  0  0  0  0  0  0  0  0
  153.4611  136.4829  183.0750 H   0  0  0  0  0  0  0  0  0  0  0  0
  153.4656  138.5891  183.0733 C   0  0  0  0  0  0  0  0  0  0  0  0
  154.4693  139.4491  183.0400 N   0  0  0  0  0  0  0  0  0  0  0  0
  154.3258  140.5726  182.4180 C   0  0  0  0  0  0  0  0  0  0  0  0
  153.1151  140.8191  181.8130 C   0  0  0  0  0  0  0  0  0  0  0  0
  152.2524  139.3938  182.1870 S   0  0  0  0  0  0  0  0  0  0  0  0
  155.4168  141.5728  182.3389 C   0  0  0  0  0  0  0  0  0  0  0  0
  155.1471  142.9102  182.4410 C   0  0  0  0  0  0  0  0  0  0  0  0
  156.1566  143.8755  182.3709 C   0  0  0  0  0  0  0  0  0  0  0  0
  157.4518  143.4796  182.1951 C   0  0  0  0  0  0  0  0  0  0  0  0
  157.7489  142.1385  182.0897 C   0  0  0  0  0  0  0  0  0  0  0  0
  159.0294  141.7486  181.9181 F   0  0  0  0  0  0  0  0  0  0  0  0
  156.7168  141.1950  182.1638 C   0  0  0  0  0  0  0  0  0  0  0  0
  158.5346  144.5079  182.1181 C   0  0  0  0  0  0  0  0  0  0  0  0
  159.1411  144.4316  180.8689 F   0  0  0  0  0  0  0  0  0  0  0  0
  159.5065  144.1182  183.0439 F   0  0  0  0  0  0  0  0  0  0  0  0
  158.0760  145.7592  182.3982 F   0  0  0  0  0  0  0  0  0  0  0  0
  153.2450  138.1957  186.0998 C   0  0  0  0  0  0  0  0  0  0  0  0
  156.5356  137.0659  191.1679 C   0  0  0  0  0  0  0  0  0  0  0  0
  155.2828  137.0661  190.4319 N   0  0  0  0  0  0  0  0  0  0  0  0
  155.1836  137.4964  189.1642 C   0  0  0  0  0  0  0  0  0  0  0  0
  156.0940  137.9708  188.3468 O   0  0  0  0  0  0  0  0  0  0  0  0
  155.5812  138.2815  187.1798 C   0  0  0  0  0  0  0  0  0  0  0  0
  156.5074  138.9398  185.8512 Cl  0  0  0  0  0  0  0  0  0  0  0  0
  154.2277  138.0023  187.1971 C   0  0  0  0  0  0  0  0  0  0  0  0
  153.9839  137.5049  188.4568 C   0  0  0  0  0  0  0  0  0  0  0  0
  152.8667  137.0428  189.1184 C   0  0  0  0  0  0  0  0  0  0  0  0
  151.7593  137.0350  188.5096 O   0  0  0  0  0  0  0  0  0  0  0  0
  152.9553  136.6082  190.3896 N   0  0  0  0  0  0  0  0  0  0  0  0
  151.7611  136.1256  191.0487 C   0  0  0  0  0  0  0  0  0  0  0  0
  154.1526  136.6260  191.0237 C   0  0  0  0  0  0  0  0  0  0  0  0
  154.2354  136.2169  192.2215 O   0  0  0  0  0  0  0  0  0  0  0  0
 22 23  1  0  0  0
 23 24  1  0  0  0
 24 25  1  0  0  0
 25 26  1  0  0  0
 26 27  1  0  0  0
 26 28  2  0  0  0
 28 21  1  0  0  0
 21  1  1  0  0  0
  1  2  2  0  0  0
  1  3  1  0  0  0
  3  5  1  0  0  0
  5  6  2  0  0  0
  6  7  1  0  0  0
  7  8  2  0  0  0
  8  9  1  0  0  0
  7 10  1  0  0  0
 10 11  2  0  0  0
 11 12  1  0  0  0
 12 13  2  0  0  0
 13 14  1  0  0  0
 14 15  1  0  0  0
 14 16  2  0  0  0
 13 17  1  0  0  0
 17 18  1  0  0  0
 17 19  1  0  0  0
 17 20  1  0  0  0
 28 29  1  0  0  0
 29 30  1  0  0  0
 30 31  2  0  0  0
 30 32  1  0  0  0
 32 33  1  0  0  0
 32 34  1  0  0  0
 34 35  2  0  0  0
 34 23  1  0  0  0
 29 24  2  0  0  0
  9  5  1  0  0  0
 16 10  1  0  0  0
  3  4  1  0  0  0
M  END
> <minimizedAffinity>
-8.48708

> <CNNscore>
0.3157818019

> <CNNaffinity>
6.3646292686

> <CNN_VS>
2.0098340511

> <CNNaffinity_variance>
0.3490957916

$$$$
[H]c1sc(N([H])C(=O)C([H])([H])c2c(Cl)oc3c2c(=O)n(C([H])([H])[H])c(=O)n3C([H])([H])[H])nc1-c1c([H])c([H])c(C(F)(F)F)c(F)c1[H]


 35 38  0  0  0  0  0  0  0  0999 V2000
  153.6109  137.0449  184.9928 C   0  0  0  0  0  0  0  0  0  0  0  0
  153.0766  135.9059  184.9799 O   0  0  0  0  0  0  0  0  0  0  0  0
  153.9105  137.6233  183.7589 N   0  0  0  0  0  0  0  0  0  0  0  0
  153.6908  137.1190  182.8780 H   0  0  0  0  0  0  0  0  0  0  0  0
  154.5378  138.9049  183.6056 C   0  0  0  0  0  0  0  0  0  0  0  0
  155.7791  139.2520  183.9004 N   0  0  0  0  0  0  0  0  0  0  0  0
  156.1659  140.4683  183.6988 C   0  0  0  0  0  0  0  0  0  0  0  0
  155.2498  141.3535  183.1793 C   0  0  0  0  0  0  0  0  0  0  0  0
  153.8722  140.3582  183.0140 S   0  0  0  0  0  0  0  0  0  0  0  0
  157.5464  140.9151  184.0014 C   0  0  0  0  0  0  0  0  0  0  0  0
  158.5259  140.8516  183.0484 C   0  0  0  0  0  0  0  0  0  0  0  0
  159.8362  141.2672  183.3060 C   0  0  0  0  0  0  0  0  0  0  0  0
  160.1551  141.7513  184.5425 C   0  0  0  0  0  0  0  0  0  0  0  0
  159.1863  141.8254  185.5190 C   0  0  0  0  0  0  0  0  0  0  0  0
  159.5024  142.3060  186.7398 F   0  0  0  0  0  0  0  0  0  0  0  0
  157.8828  141.4020  185.2315 C   0  0  0  0  0  0  0  0  0  0  0  0
  161.5551  142.1956  184.8233 C   0  0  0  0  0  0  0  0  0  0  0  0
  161.8093  142.0529  186.1831 F   0  0  0  0  0  0  0  0  0  0  0  0
  161.5851  143.5692  184.5666 F   0  0  0  0  0  0  0  0  0  0  0  0
  162.4666  141.5408  184.0521 F   0  0  0  0  0  0  0  0  0  0  0  0
  153.8651  137.6527  186.3153 C   0  0  0  0  0  0  0  0  0  0  0  0
  157.2345  134.7599  190.5661 C   0  0  0  0  0  0  0  0  0  0  0  0
  156.4055  135.8716  190.1323 N   0  0  0  0  0  0  0  0  0  0  0  0
  155.8762  135.9475  188.9010 C   0  0  0  0  0  0  0  0  0  0  0  0
  155.9554  135.1244  187.8821 O   0  0  0  0  0  0  0  0  0  0  0  0
  155.2859  135.5716  186.8461 C   0  0  0  0  0  0  0  0  0  0  0  0
  155.1752  134.7288  185.3183 Cl  0  0  0  0  0  0  0  0  0  0  0  0
  154.7088  136.7835  187.1754 C   0  0  0  0  0  0  0  0  0  0  0  0
  155.0867  137.0142  188.4783 C   0  0  0  0  0  0  0  0  0  0  0  0
  154.8575  138.0205  189.3916 C   0  0  0  0  0  0  0  0  0  0  0  0
  154.1456  139.0057  189.0452 O   0  0  0  0  0  0  0  0  0  0  0  0
  155.3830  137.9539  190.6294 N   0  0  0  0  0  0  0  0  0  0  0  0
  155.1155  139.0275  191.5618 C   0  0  0  0  0  0  0  0  0  0  0  0
  156.1439  136.8889  190.9797 C   0  0  0  0  0  0  0  0  0  0  0  0
  156.6392  136.8267  192.1457 O   0  0  0  0  0  0  0  0  0  0  0  0
 22 23  1  0  0  0
 23 24  1  0  0  0
 24 25  1  0  0  0
 25 26  1  0  0  0
 26 27  1  0  0  0
 26 28  2  0  0  0
 28 21  1  0  0  0
 21  1  1  0  0  0
  1  2  2  0  0  0
  1  3  1  0  0  0
  3  5  1  0  0  0
  5  6  2  0  0  0
  6  7  1  0  0  0
  7  8  2  0  0  0
  8  9  1  0  0  0
  7 10  1  0  0  0
 10 11  2  0  0  0
 11 12  1  0  0  0
 12 13  2  0  0  0
 13 14  1  0  0  0
 14 15  1  0  0  0
 14 16  2  0  0  0
 13 17  1  0  0  0
 17 18  1  0  0  0
 17 19  1  0  0  0
 17 20  1  0  0  0
 28 29  1  0  0  0
 29 30  1  0  0  0
 30 31  2  0  0  0
 30 32  1  0  0  0
 32 33  1  0  0  0
 32 34  1  0  0  0
 34 35  2  0  0  0
 34 23  1  0  0  0
 29 24  2  0  0  0
  9  5  1  0  0  0
 16 10  1  0  0  0
  3  4  1  0  0  0
M  END
> <minimizedAffinity>
-8.79150

> <CNNscore>
0.3005822897

> <CNNaffinity>
6.5969214439

> <CNN_VS>
1.9829177856

> <CNNaffinity_variance>
0.2403411865

$$$$
[H]c1nc(OC([H])([H])[H])c(C(F)(F)F)c([H])c1-c1nc(N([H])C(=O)[C@@]([H])(n2c([H])nc3c2c(=O)n(C([H])([H])c2noc(C([H])([H])[H])c2[H])c(=O)n3C([H])([H])[H])C([H])([H])[H])c([H])c([H])c1[H]


 43 47  0  0  0  0  0  0  0  0999 V2000
  153.5350  138.2981  188.0376 N   0  0  0  0  0  0  0  0  0  0  0  0
  154.7427  138.1236  188.7694 C   0  0  0  0  0  0  0  0  0  0  0  0
  155.8531  137.9602  188.1988 O   0  0  0  0  0  0  0  0  0  0  0  0
  152.6153  138.4326  188.5231 H   0  0  0  0  0  0  0  0  0  0  0  0
  154.2065  139.1956  184.5181 C   0  0  0  0  0  0  0  0  0  0  0  0
  153.4608  138.2721  183.8296 C   0  0  0  0  0  0  0  0  0  0  0  0
  152.7301  137.3417  184.5332 C   0  0  0  0  0  0  0  0  0  0  0  0
  152.7763  137.3751  185.9031 C   0  0  0  0  0  0  0  0  0  0  0  0
  153.5263  138.3038  186.6018 C   0  0  0  0  0  0  0  0  0  0  0  0
  154.2111  139.1769  185.8637 N   0  0  0  0  0  0  0  0  0  0  0  0
  156.5704  142.0207  182.3922 C   0  0  0  0  0  0  0  0  0  0  0  0
  155.3635  142.3540  182.8722 N   0  0  0  0  0  0  0  0  0  0  0  0
  154.5734  141.4751  183.5601 C   0  0  0  0  0  0  0  0  0  0  0  0
  154.9900  140.1960  183.7908 C   0  0  0  0  0  0  0  0  0  0  0  0
  156.2399  139.8462  183.2950 C   0  0  0  0  0  0  0  0  0  0  0  0
  157.0245  140.7513  182.6009 C   0  0  0  0  0  0  0  0  0  0  0  0
  158.3662  140.3633  182.0736 C   0  0  0  0  0  0  0  0  0  0  0  0
  158.2929  140.3987  180.6906 F   0  0  0  0  0  0  0  0  0  0  0  0
  159.2852  141.2482  182.5624 F   0  0  0  0  0  0  0  0  0  0  0  0
  158.6521  139.0558  182.4219 F   0  0  0  0  0  0  0  0  0  0  0  0
  157.3972  144.2992  182.1565 C   0  0  0  0  0  0  0  0  0  0  0  0
  157.3435  142.9612  181.6918 O   0  0  0  0  0  0  0  0  0  0  0  0
  154.6586  138.1401  190.2538 C   0  0  0  0  0  0  0  0  0  0  0  0
  156.0677  138.3096  190.7476 C   0  0  0  0  0  0  0  0  0  0  0  0
  153.9967  136.9396  190.6743 N   0  0  0  0  0  0  0  0  0  0  0  0
  152.7073  136.7099  190.9822 C   0  0  0  0  0  0  0  0  0  0  0  0
  152.5471  135.4118  191.3310 N   0  0  0  0  0  0  0  0  0  0  0  0
  153.7239  134.7792  191.2560 C   0  0  0  0  0  0  0  0  0  0  0  0
  154.1535  133.5235  191.4815 N   0  0  0  0  0  0  0  0  0  0  0  0
  153.1752  132.5435  191.9120 C   0  0  0  0  0  0  0  0  0  0  0  0
  155.4482  133.1832  191.3145 C   0  0  0  0  0  0  0  0  0  0  0  0
  155.8375  131.9986  191.5305 O   0  0  0  0  0  0  0  0  0  0  0  0
  156.3738  134.0703  190.9171 N   0  0  0  0  0  0  0  0  0  0  0  0
  155.9519  135.3360  190.6877 C   0  0  0  0  0  0  0  0  0  0  0  0
  156.7670  136.2314  190.3104 O   0  0  0  0  0  0  0  0  0  0  0  0
  154.6314  135.7317  190.8460 C   0  0  0  0  0  0  0  0  0  0  0  0
  157.7740  133.7760  190.7178 C   0  0  0  0  0  0  0  0  0  0  0  0
  158.1022  133.2397  189.3948 C   0  0  0  0  0  0  0  0  0  0  0  0
  159.3239  132.7007  189.0429 C   0  0  0  0  0  0  0  0  0  0  0  0
  159.1845  132.3288  187.7245 C   0  0  0  0  0  0  0  0  0  0  0  0
  160.2002  131.6945  186.8487 C   0  0  0  0  0  0  0  0  0  0  0  0
  157.9697  132.6239  187.3195 O   0  0  0  0  0  0  0  0  0  0  0  0
  157.3309  133.1575  188.2928 N   0  0  0  0  0  0  0  0  0  0  0  0
 21 22  1  0  0  0
 22 11  1  0  0  0
 11 12  2  0  0  0
 12 13  1  0  0  0
 13 14  2  0  0  0
 14 15  1  0  0  0
 15 16  2  0  0  0
 16 17  1  0  0  0
 17 18  1  0  0  0
 17 19  1  0  0  0
 17 20  1  0  0  0
 14  5  1  0  0  0
  5  6  2  0  0  0
  6  7  1  0  0  0
  7  8  2  0  0  0
  8  9  1  0  0  0
  9  1  1  0  0  0
  1  2  1  0  0  0
  2  3  2  0  0  0
  2 23  1  0  0  0
 23 24  1  0  0  0
 23 25  1  0  0  0
 25 26  1  0  0  0
 26 27  2  0  0  0
 27 28  1  0  0  0
 28 29  1  0  0  0
 29 30  1  0  0  0
 29 31  1  0  0  0
 31 32  2  0  0  0
 31 33  1  0  0  0
 33 37  1  0  0  0
 37 38  1  0  0  0
 38 39  1  0  0  0
 39 40  2  0  0  0
 40 41  1  0  0  0
 40 42  1  0  0  0
 42 43  1  0  0  0
 33 34  1  0  0  0
 34 35  2  0  0  0
 34 36  1  0  0  0
  9 10  2  0  0  0
 16 11  1  0  0  0
 10  5  1  0  0  0
 36 25  1  0  0  0
 36 28  2  0  0  0
 43 38  2  0  0  0
  1  4  1  0  0  0
M  END
> <minimizedAffinity>
-8.20055

> <CNNscore>
0.4454468191

> <CNNaffinity>
6.8121862411

> <CNN_VS>
3.0344667435

> <CNNaffinity_variance>
0.2508873940

$$$$
[H]c1nc(OC([H])([H])[H])c(C(F)(F)F)c([H])c1-c1nc(N([H])C(=O)[C@@]([H])(n2c([H])nc3c2c(=O)n(C([H])([H])c2noc(C([H])([H])[H])c2[H])c(=O)n3C([H])([H])[H])C([H])([H])[H])c([H])c([H])c1[H]


 43 47  0  0  0  0  0  0  0  0999 V2000
  153.4177  139.1948  182.1682 N   0  0  0  0  0  0  0  0  0  0  0  0
  153.9598  139.0176  183.4717 C   0  0  0  0  0  0  0  0  0  0  0  0
  153.2915  138.5116  184.4112 O   0  0  0  0  0  0  0  0  0  0  0  0
  153.9830  139.6182  181.3931 H   0  0  0  0  0  0  0  0  0  0  0  0
  149.9807  137.8754  182.4681 C   0  0  0  0  0  0  0  0  0  0  0  0
  149.4920  138.0303  181.1953 C   0  0  0  0  0  0  0  0  0  0  0  0
  150.3036  138.5778  180.2276 C   0  0  0  0  0  0  0  0  0  0  0  0
  151.5768  138.9486  180.5763 C   0  0  0  0  0  0  0  0  0  0  0  0
  152.0741  138.7946  181.8577 C   0  0  0  0  0  0  0  0  0  0  0  0
  151.2397  138.2592  182.7484 N   0  0  0  0  0  0  0  0  0  0  0  0
  147.6065  136.0959  185.5153 C   0  0  0  0  0  0  0  0  0  0  0  0
  147.2130  137.2231  184.9048 N   0  0  0  0  0  0  0  0  0  0  0  0
  147.9476  137.8260  183.9214 C   0  0  0  0  0  0  0  0  0  0  0  0
  149.1362  137.2936  183.5129 C   0  0  0  0  0  0  0  0  0  0  0  0
  149.5478  136.1257  184.1429 C   0  0  0  0  0  0  0  0  0  0  0  0
  148.7891  135.5310  185.1366 C   0  0  0  0  0  0  0  0  0  0  0  0
  149.2423  134.2757  185.8056 C   0  0  0  0  0  0  0  0  0  0  0  0
  148.1499  133.4263  185.8745 F   0  0  0  0  0  0  0  0  0  0  0  0
  150.2601  133.7449  185.0648 F   0  0  0  0  0  0  0  0  0  0  0  0
  149.6191  134.5430  187.1092 F   0  0  0  0  0  0  0  0  0  0  0  0
  146.8133  136.0862  187.8177 C   0  0  0  0  0  0  0  0  0  0  0  0
  146.8149  135.5159  186.5201 O   0  0  0  0  0  0  0  0  0  0  0  0
  155.3629  139.4530  183.7006 C   0  0  0  0  0  0  0  0  0  0  0  0
  155.6837  139.0896  185.1229 C   0  0  0  0  0  0  0  0  0  0  0  0
  155.4518  140.8488  183.3843 N   0  0  0  0  0  0  0  0  0  0  0  0
  154.4936  141.7870  183.2752 C   0  0  0  0  0  0  0  0  0  0  0  0
  155.0552  142.9758  182.9537 N   0  0  0  0  0  0  0  0  0  0  0  0
  156.3815  142.8310  182.8489 C   0  0  0  0  0  0  0  0  0  0  0  0
  157.4148  143.6439  182.5598 N   0  0  0  0  0  0  0  0  0  0  0  0
  157.1198  145.0362  182.2818 C   0  0  0  0  0  0  0  0  0  0  0  0
  158.6828  143.1844  182.5284 C   0  0  0  0  0  0  0  0  0  0  0  0
  159.6442  143.9605  182.2548 O   0  0  0  0  0  0  0  0  0  0  0  0
  158.9833  141.9010  182.7816 N   0  0  0  0  0  0  0  0  0  0  0  0
  157.9510  141.0752  183.0733 C   0  0  0  0  0  0  0  0  0  0  0  0
  158.1544  139.8487  183.3234 O   0  0  0  0  0  0  0  0  0  0  0  0
  156.6318  141.5028  183.1174 C   0  0  0  0  0  0  0  0  0  0  0  0
  160.3152  141.3418  182.7660 C   0  0  0  0  0  0  0  0  0  0  0  0
  161.1573  141.7403  183.8964 C   0  0  0  0  0  0  0  0  0  0  0  0
  160.6879  142.2762  185.0794 C   0  0  0  0  0  0  0  0  0  0  0  0
  161.8122  142.4962  185.8434 C   0  0  0  0  0  0  0  0  0  0  0  0
  161.8815  143.0623  187.2130 C   0  0  0  0  0  0  0  0  0  0  0  0
  162.8738  142.1195  185.1667 O   0  0  0  0  0  0  0  0  0  0  0  0
  162.4971  141.6760  184.0259 N   0  0  0  0  0  0  0  0  0  0  0  0
 21 22  1  0  0  0
 22 11  1  0  0  0
 11 12  2  0  0  0
 12 13  1  0  0  0
 13 14  2  0  0  0
 14 15  1  0  0  0
 15 16  2  0  0  0
 16 17  1  0  0  0
 17 18  1  0  0  0
 17 19  1  0  0  0
 17 20  1  0  0  0
 14  5  1  0  0  0
  5  6  2  0  0  0
  6  7  1  0  0  0
  7  8  2  0  0  0
  8  9  1  0  0  0
  9  1  1  0  0  0
  1  2  1  0  0  0
  2  3  2  0  0  0
  2 23  1  0  0  0
 23 24  1  0  0  0
 23 25  1  0  0  0
 25 26  1  0  0  0
 26 27  2  0  0  0
 27 28  1  0  0  0
 28 29  1  0  0  0
 29 30  1  0  0  0
 29 31  1  0  0  0
 31 32  2  0  0  0
 31 33  1  0  0  0
 33 37  1  0  0  0
 37 38  1  0  0  0
 38 39  1  0  0  0
 39 40  2  0  0  0
 40 41  1  0  0  0
 40 42  1  0  0  0
 42 43  1  0  0  0
 33 34  1  0  0  0
 34 35  2  0  0  0
 34 36  1  0  0  0
  9 10  2  0  0  0
 16 11  1  0  0  0
 10  5  1  0  0  0
 36 25  1  0  0  0
 36 28  2  0  0  0
 43 38  2  0  0  0
  1  4  1  0  0  0
M  END
> <minimizedAffinity>
-8.30448

> <CNNscore>
0.3919904530

> <CNNaffinity>
7.1567649841

> <CNN_VS>
2.8053834438

> <CNNaffinity_variance>
0.0219992381

$$$$
[H]c1nc(OC([H])([H])[H])c(C(F)(F)F)c([H])c1-c1nc(N([H])C(=O)[C@@]([H])(n2c([H])nc3c2c(=O)n(C([H])([H])c2noc(C([H])([H])[H])c2[H])c(=O)n3C([H])([H])[H])C([H])([H])[H])c([H])c([H])c1[H]


 43 47  0  0  0  0  0  0  0  0999 V2000
  153.5602  137.1648  185.1191 N   0  0  0  0  0  0  0  0  0  0  0  0
  154.1942  138.3418  185.6060 C   0  0  0  0  0  0  0  0  0  0  0  0
  153.7145  139.0166  186.5546 O   0  0  0  0  0  0  0  0  0  0  0  0
  153.9681  136.6107  184.3278 H   0  0  0  0  0  0  0  0  0  0  0  0
  150.9982  136.1079  187.5609 C   0  0  0  0  0  0  0  0  0  0  0  0
  149.9552  135.7327  186.7519 C   0  0  0  0  0  0  0  0  0  0  0  0
  150.0971  135.8310  185.3863 C   0  0  0  0  0  0  0  0  0  0  0  0
  151.2829  136.3028  184.8853 C   0  0  0  0  0  0  0  0  0  0  0  0
  152.3372  136.6824  185.6962 C   0  0  0  0  0  0  0  0  0  0  0  0
  152.1376  136.5637  187.0086 N   0  0  0  0  0  0  0  0  0  0  0  0
  150.7370  135.8713  191.7993 C   0  0  0  0  0  0  0  0  0  0  0  0
  149.7372  135.4317  191.0215 N   0  0  0  0  0  0  0  0  0  0  0  0
  149.7827  135.4904  189.6560 C   0  0  0  0  0  0  0  0  0  0  0  0
  150.8706  136.0100  189.0161 C   0  0  0  0  0  0  0  0  0  0  0  0
  151.9090  136.4669  189.8182 C   0  0  0  0  0  0  0  0  0  0  0  0
  151.8432  136.3983  191.1994 C   0  0  0  0  0  0  0  0  0  0  0  0
  152.9660  136.8923  192.0503 C   0  0  0  0  0  0  0  0  0  0  0  0
  153.9593  137.3495  191.1996 F   0  0  0  0  0  0  0  0  0  0  0  0
  152.4822  137.8843  192.8554 F   0  0  0  0  0  0  0  0  0  0  0  0
  153.5116  135.8447  192.7697 F   0  0  0  0  0  0  0  0  0  0  0  0
  150.4770  134.5195  193.8082 C   0  0  0  0  0  0  0  0  0  0  0  0
  150.6412  135.7883  193.1981 O   0  0  0  0  0  0  0  0  0  0  0  0
  155.4625  138.7626  184.9540 C   0  0  0  0  0  0  0  0  0  0  0  0
  156.4959  138.8041  186.0441 C   0  0  0  0  0  0  0  0  0  0  0  0
  155.2242  140.0060  184.2807 N   0  0  0  0  0  0  0  0  0  0  0  0
  154.0734  140.6045  183.9235 C   0  0  0  0  0  0  0  0  0  0  0  0
  154.3437  141.7761  183.3019 N   0  0  0  0  0  0  0  0  0  0  0  0
  155.6682  141.9580  183.2448 C   0  0  0  0  0  0  0  0  0  0  0  0
  156.4852  142.9096  182.7558 N   0  0  0  0  0  0  0  0  0  0  0  0
  155.8743  144.0601  182.1187 C   0  0  0  0  0  0  0  0  0  0  0  0
  157.8264  142.8017  182.8524 C   0  0  0  0  0  0  0  0  0  0  0  0
  158.5820  143.7044  182.3878 O   0  0  0  0  0  0  0  0  0  0  0  0
  158.4174  141.7478  183.4369 N   0  0  0  0  0  0  0  0  0  0  0  0
  157.6045  140.7851  183.9319 C   0  0  0  0  0  0  0  0  0  0  0  0
  158.0878  139.7583  184.4979 O   0  0  0  0  0  0  0  0  0  0  0  0
  156.2207  140.8532  183.8557 C   0  0  0  0  0  0  0  0  0  0  0  0
  159.8441  141.5676  183.5755 C   0  0  0  0  0  0  0  0  0  0  0  0
  160.3915  142.0016  184.8630 C   0  0  0  0  0  0  0  0  0  0  0  0
  161.7332  142.1985  185.1237 C   0  0  0  0  0  0  0  0  0  0  0  0
  161.7869  142.5981  186.4403 C   0  0  0  0  0  0  0  0  0  0  0  0
  162.9913  142.9430  187.2350 C   0  0  0  0  0  0  0  0  0  0  0  0
  160.5677  142.6369  186.9292 O   0  0  0  0  0  0  0  0  0  0  0  0
  159.7461  142.2888  186.0106 N   0  0  0  0  0  0  0  0  0  0  0  0
 21 22  1  0  0  0
 22 11  1  0  0  0
 11 12  2  0  0  0
 12 13  1  0  0  0
 13 14  2  0  0  0
 14 15  1  0  0  0
 15 16  2  0  0  0
 16 17  1  0  0  0
 17 18  1  0  0  0
 17 19  1  0  0  0
 17 20  1  0  0  0
 14  5  1  0  0  0
  5  6  2  0  0  0
  6  7  1  0  0  0
  7  8  2  0  0  0
  8  9  1  0  0  0
  9  1  1  0  0  0
  1  2  1  0  0  0
  2  3  2  0  0  0
  2 23  1  0  0  0
 23 24  1  0  0  0
 23 25  1  0  0  0
 25 26  1  0  0  0
 26 27  2  0  0  0
 27 28  1  0  0  0
 28 29  1  0  0  0
 29 30  1  0  0  0
 29 31  1  0  0  0
 31 32  2  0  0  0
 31 33  1  0  0  0
 33 37  1  0  0  0
 37 38  1  0  0  0
 38 39  1  0  0  0
 39 40  2  0  0  0
 40 41  1  0  0  0
 40 42  1  0  0  0
 42 43  1  0  0  0
 33 34  1  0  0  0
 34 35  2  0  0  0
 34 36  1  0  0  0
  9 10  2  0  0  0
 16 11  1  0  0  0
 10  5  1  0  0  0
 36 25  1  0  0  0
 36 28  2  0  0  0
 43 38  2  0  0  0
  1  4  1  0  0  0
M  END
> <minimizedAffinity>
-8.92848

> <CNNscore>
0.3702455461

> <CNNaffinity>
6.8855257034

> <CNN_VS>
2.5493352413

> <CNNaffinity_variance>
0.0899090990

$$$$
[H]c1nc(OC([H])([H])[H])c(C(F)(F)F)c([H])c1-c1nc(N([H])C(=O)[C@@]([H])(n2c([H])nc3c2c(=O)n(C([H])([H])c2noc(C([H])([H])[H])c2[H])c(=O)n3C([H])([H])[H])C([H])([H])[H])c([H])c([H])c1[H]


 43 47  0  0  0  0  0  0  0  0999 V2000
  153.5994  138.1298  183.6860 N   0  0  0  0  0  0  0  0  0  0  0  0
  154.3392  138.6981  184.7604 C   0  0  0  0  0  0  0  0  0  0  0  0
  153.8629  138.7978  185.9216 O   0  0  0  0  0  0  0  0  0  0  0  0
  154.0056  138.0524  182.7223 H   0  0  0  0  0  0  0  0  0  0  0  0
  150.5926  136.6207  185.2108 C   0  0  0  0  0  0  0  0  0  0  0  0
  149.6814  136.6767  184.1864 C   0  0  0  0  0  0  0  0  0  0  0  0
  150.0614  137.2198  182.9801 C   0  0  0  0  0  0  0  0  0  0  0  0
  151.3441  137.6861  182.8490 C   0  0  0  0  0  0  0  0  0  0  0  0
  152.2664  137.6321  183.8784 C   0  0  0  0  0  0  0  0  0  0  0  0
  151.8374  137.0954  185.0203 N   0  0  0  0  0  0  0  0  0  0  0  0
  149.5864  134.9926  189.0089 C   0  0  0  0  0  0  0  0  0  0  0  0
  148.7809  134.8221  187.9505 N   0  0  0  0  0  0  0  0  0  0  0  0
  149.0686  135.3297  186.7137 C   0  0  0  0  0  0  0  0  0  0  0  0
  150.2112  136.0455  186.5020 C   0  0  0  0  0  0  0  0  0  0  0  0
  151.0488  136.2247  187.5960 C   0  0  0  0  0  0  0  0  0  0  0  0
  150.7391  135.7025  188.8402 C   0  0  0  0  0  0  0  0  0  0  0  0
  151.6477  135.9017  190.0079 C   0  0  0  0  0  0  0  0  0  0  0  0
  150.9053  136.5019  191.0118 F   0  0  0  0  0  0  0  0  0  0  0  0
  152.1274  134.6792  190.3844 F   0  0  0  0  0  0  0  0  0  0  0  0
  152.6566  136.7879  189.6774 F   0  0  0  0  0  0  0  0  0  0  0  0
  147.9818  133.8298  190.4244 C   0  0  0  0  0  0  0  0  0  0  0  0
  149.2452  134.4505  190.2589 O   0  0  0  0  0  0  0  0  0  0  0  0
  155.7158  139.1799  184.4716 C   0  0  0  0  0  0  0  0  0  0  0  0
  156.4880  139.0219  185.7510 C   0  0  0  0  0  0  0  0  0  0  0  0
  155.6210  140.5192  183.9683 N   0  0  0  0  0  0  0  0  0  0  0  0
  154.5598  141.3367  183.8428 C   0  0  0  0  0  0  0  0  0  0  0  0
  154.9549  142.5166  183.3098 N   0  0  0  0  0  0  0  0  0  0  0  0
  156.2731  142.4859  183.0811 C   0  0  0  0  0  0  0  0  0  0  0  0
  157.1792  143.3449  182.5779 N   0  0  0  0  0  0  0  0  0  0  0  0
  156.7085  144.6496  182.1545 C   0  0  0  0  0  0  0  0  0  0  0  0
  158.4811  143.0088  182.4689 C   0  0  0  0  0  0  0  0  0  0  0  0
  159.3215  143.8270  181.9936 O   0  0  0  0  0  0  0  0  0  0  0  0
  158.9430  141.8086  182.8530 N   0  0  0  0  0  0  0  0  0  0  0  0
  158.0396  140.9373  183.3604 C   0  0  0  0  0  0  0  0  0  0  0  0
  158.3989  139.7833  183.7446 O   0  0  0  0  0  0  0  0  0  0  0  0
  156.6916  141.2388  183.4916 C   0  0  0  0  0  0  0  0  0  0  0  0
  160.3206  141.3826  182.7657 C   0  0  0  0  0  0  0  0  0  0  0  0
  161.1564  141.7846  183.8995 C   0  0  0  0  0  0  0  0  0  0  0  0
  160.6938  142.4228  185.0334 C   0  0  0  0  0  0  0  0  0  0  0  0
  161.8082  142.6047  185.8214 C   0  0  0  0  0  0  0  0  0  0  0  0
  161.8793  143.2445  187.1580 C   0  0  0  0  0  0  0  0  0  0  0  0
  162.8581  142.1115  185.2038 O   0  0  0  0  0  0  0  0  0  0  0  0
  162.4832  141.6299  184.0780 N   0  0  0  0  0  0  0  0  0  0  0  0
 21 22  1  0  0  0
 22 11  1  0  0  0
 11 12  2  0  0  0
 12 13  1  0  0  0
 13 14  2  0  0  0
 14 15  1  0  0  0
 15 16  2  0  0  0
 16 17  1  0  0  0
 17 18  1  0  0  0
 17 19  1  0  0  0
 17 20  1  0  0  0
 14  5  1  0  0  0
  5  6  2  0  0  0
  6  7  1  0  0  0
  7  8  2  0  0  0
  8  9  1  0  0  0
  9  1  1  0  0  0
  1  2  1  0  0  0
  2  3  2  0  0  0
  2 23  1  0  0  0
 23 24  1  0  0  0
 23 25  1  0  0  0
 25 26  1  0  0  0
 26 27  2  0  0  0
 27 28  1  0  0  0
 28 29  1  0  0  0
 29 30  1  0  0  0
 29 31  1  0  0  0
 31 32  2  0  0  0
 31 33  1  0  0  0
 33 37  1  0  0  0
 37 38  1  0  0  0
 38 39  1  0  0  0
 39 40  2  0  0  0
 40 41  1  0  0  0
 40 42  1  0  0  0
 42 43  1  0  0  0
 33 34  1  0  0  0
 34 35  2  0  0  0
 34 36  1  0  0  0
  9 10  2  0  0  0
 16 11  1  0  0  0
 10  5  1  0  0  0
 36 25  1  0  0  0
 36 28  2  0  0  0
 43 38  2  0  0  0
  1  4  1  0  0  0
M  END
> <minimizedAffinity>
-8.51211

> <CNNscore>
0.3117192984

> <CNNaffinity>
6.8690886497

> <CNN_VS>
2.1412274837

> <CNNaffinity_variance>
0.0843081027

$$$$
[H]c1nc(OC([H])([H])[H])c(C(F)(F)F)c([H])c1-c1nc(N([H])C(=O)[C@@]([H])(n2c([H])nc3c2c(=O)n(C([H])([H])c2noc(C([H])([H])[H])c2[H])c(=O)n3C([H])([H])[H])C([H])([H])[H])c([H])c([H])c1[H]


 43 47  0  0  0  0  0  0  0  0999 V2000
  153.8737  137.8410  188.2729 N   0  0  0  0  0  0  0  0  0  0  0  0
  155.1095  137.3437  188.7727 C   0  0  0  0  0  0  0  0  0  0  0  0
  156.0266  136.9415  188.0096 O   0  0  0  0  0  0  0  0  0  0  0  0
  153.1161  138.1727  188.9177 H   0  0  0  0  0  0  0  0  0  0  0  0
  154.0930  138.7426  184.6977 C   0  0  0  0  0  0  0  0  0  0  0  0
  153.0584  138.0281  184.1482 C   0  0  0  0  0  0  0  0  0  0  0  0
  152.2809  137.2386  184.9648 C   0  0  0  0  0  0  0  0  0  0  0  0
  152.5728  137.1975  186.3038 C   0  0  0  0  0  0  0  0  0  0  0  0
  153.6145  137.9156  186.8627 C   0  0  0  0  0  0  0  0  0  0  0  0
  154.3296  138.6603  186.0199 N   0  0  0  0  0  0  0  0  0  0  0  0
  156.6274  141.1619  182.2868 C   0  0  0  0  0  0  0  0  0  0  0  0
  155.2942  141.2127  182.1523 N   0  0  0  0  0  0  0  0  0  0  0  0
  154.4458  140.4512  182.9076 C   0  0  0  0  0  0  0  0  0  0  0  0
  154.9320  139.5905  183.8488 C   0  0  0  0  0  0  0  0  0  0  0  0
  156.3129  139.5345  183.9914 C   0  0  0  0  0  0  0  0  0  0  0  0
  157.1546  140.3141  183.2165 C   0  0  0  0  0  0  0  0  0  0  0  0
  158.6370  140.2452  183.3797 C   0  0  0  0  0  0  0  0  0  0  0  0
  159.1753  139.9357  182.1413 F   0  0  0  0  0  0  0  0  0  0  0  0
  159.0690  141.4568  183.8397 F   0  0  0  0  0  0  0  0  0  0  0  0
  158.9723  139.2059  184.2284 F   0  0  0  0  0  0  0  0  0  0  0  0
  157.4205  143.3734  181.6455 C   0  0  0  0  0  0  0  0  0  0  0  0
  157.4556  141.9654  181.4861 O   0  0  0  0  0  0  0  0  0  0  0  0
  155.2943  137.3109  190.2477 C   0  0  0  0  0  0  0  0  0  0  0  0
  156.5646  138.0646  190.5239 C   0  0  0  0  0  0  0  0  0  0  0  0
  155.2862  135.9392  190.6657 N   0  0  0  0  0  0  0  0  0  0  0  0
  156.2549  135.0061  190.6338 C   0  0  0  0  0  0  0  0  0  0  0  0
  155.7819  133.8419  191.1369 N   0  0  0  0  0  0  0  0  0  0  0  0
  154.5041  133.9981  191.5025 C   0  0  0  0  0  0  0  0  0  0  0  0
  153.5581  133.2077  192.0435 N   0  0  0  0  0  0  0  0  0  0  0  0
  153.9166  131.8345  192.3414 C   0  0  0  0  0  0  0  0  0  0  0  0
  152.3180  133.6720  192.3016 C   0  0  0  0  0  0  0  0  0  0  0  0
  151.4389  132.9170  192.8104 O   0  0  0  0  0  0  0  0  0  0  0  0
  151.9602  134.9379  192.0358 N   0  0  0  0  0  0  0  0  0  0  0  0
  152.9044  135.7410  191.4914 C   0  0  0  0  0  0  0  0  0  0  0  0
  152.6424  136.9498  191.2113 O   0  0  0  0  0  0  0  0  0  0  0  0
  154.1919  135.3077  191.2089 C   0  0  0  0  0  0  0  0  0  0  0  0
  150.6536  135.5011  192.2860 C   0  0  0  0  0  0  0  0  0  0  0  0
  149.6380  135.1521  191.2897 C   0  0  0  0  0  0  0  0  0  0  0  0
  149.4508  135.8098  190.0901 C   0  0  0  0  0  0  0  0  0  0  0  0
  148.4049  135.1530  189.4813 C   0  0  0  0  0  0  0  0  0  0  0  0
  147.7912  135.4501  188.1637 C   0  0  0  0  0  0  0  0  0  0  0  0
  147.9980  134.1756  190.2598 O   0  0  0  0  0  0  0  0  0  0  0  0
  148.7159  134.1697  191.3203 N   0  0  0  0  0  0  0  0  0  0  0  0
 21 22  1  0  0  0
 22 11  1  0  0  0
 11 12  2  0  0  0
 12 13  1  0  0  0
 13 14  2  0  0  0
 14 15  1  0  0  0
 15 16  2  0  0  0
 16 17  1  0  0  0
 17 18  1  0  0  0
 17 19  1  0  0  0
 17 20  1  0  0  0
 14  5  1  0  0  0
  5  6  2  0  0  0
  6  7  1  0  0  0
  7  8  2  0  0  0
  8  9  1  0  0  0
  9  1  1  0  0  0
  1  2  1  0  0  0
  2  3  2  0  0  0
  2 23  1  0  0  0
 23 24  1  0  0  0
 23 25  1  0  0  0
 25 26  1  0  0  0
 26 27  2  0  0  0
 27 28  1  0  0  0
 28 29  1  0  0  0
 29 30  1  0  0  0
 29 31  1  0  0  0
 31 32  2  0  0  0
 31 33  1  0  0  0
 33 37  1  0  0  0
 37 38  1  0  0  0
 38 39  1  0  0  0
 39 40  2  0  0  0
 40 41  1  0  0  0
 40 42  1  0  0  0
 42 43  1  0  0  0
 33 34  1  0  0  0
 34 35  2  0  0  0
 34 36  1  0  0  0
  9 10  2  0  0  0
 16 11  1  0  0  0
 10  5  1  0  0  0
 36 25  1  0  0  0
 36 28  2  0  0  0
 43 38  2  0  0  0
  1  4  1  0  0  0
M  END
> <minimizedAffinity>
-7.83034

> <CNNscore>
0.2789961398

> <CNNaffinity>
6.4845809937

> <CNN_VS>
1.8091731071

> <CNNaffinity_variance>
0.2281242907

$$$$
[H]c1nc(OC([H])([H])[H])c(C(F)(F)F)c([H])c1-c1nc(N([H])C(=O)[C@@]([H])(n2c([H])nc3c2c(=O)n(C([H])([H])c2noc(C([H])([H])[H])c2[H])c(=O)n3C([H])([H])[H])C([H])([H])[H])c([H])c([H])c1[H]


 43 47  0  0  0  0  0  0  0  0999 V2000
  153.1522  139.4767  181.2811 N   0  0  0  0  0  0  0  0  0  0  0  0
  153.3505  139.3602  182.6852 C   0  0  0  0  0  0  0  0  0  0  0  0
  152.4563  138.9167  183.4527 O   0  0  0  0  0  0  0  0  0  0  0  0
  153.9037  139.8483  180.6510 H   0  0  0  0  0  0  0  0  0  0  0  0
  150.0574  137.6318  180.4676 C   0  0  0  0  0  0  0  0  0  0  0  0
  149.5370  138.3681  179.4331 C   0  0  0  0  0  0  0  0  0  0  0  0
  150.2127  139.4864  179.0000 C   0  0  0  0  0  0  0  0  0  0  0  0
  151.3868  139.8223  179.6235 C   0  0  0  0  0  0  0  0  0  0  0  0
  151.9155  139.0837  180.6666 C   0  0  0  0  0  0  0  0  0  0  0  0
  151.2144  138.0132  181.0393 N   0  0  0  0  0  0  0  0  0  0  0  0
  148.1185  134.0962  181.8199 C   0  0  0  0  0  0  0  0  0  0  0  0
  147.5021  135.2856  181.8781 N   0  0  0  0  0  0  0  0  0  0  0  0
  148.0912  136.4446  181.4540 C   0  0  0  0  0  0  0  0  0  0  0  0
  149.3570  136.4375  180.9436 C   0  0  0  0  0  0  0  0  0  0  0  0
  149.9995  135.2071  180.8816 C   0  0  0  0  0  0  0  0  0  0  0  0
  149.3853  134.0450  181.3164 C   0  0  0  0  0  0  0  0  0  0  0  0
  150.0863  132.7289  181.2440 C   0  0  0  0  0  0  0  0  0  0  0  0
  150.2744  132.2886  182.5440 F   0  0  0  0  0  0  0  0  0  0  0  0
  149.3060  131.8731  180.5194 F   0  0  0  0  0  0  0  0  0  0  0  0
  151.3450  132.8921  180.6949 F   0  0  0  0  0  0  0  0  0  0  0  0
  147.1878  132.7864  183.6499 C   0  0  0  0  0  0  0  0  0  0  0  0
  147.4693  132.9344  182.2686 O   0  0  0  0  0  0  0  0  0  0  0  0
  154.6662  139.7831  183.2337 C   0  0  0  0  0  0  0  0  0  0  0  0
  154.6255  139.4651  184.7018 C   0  0  0  0  0  0  0  0  0  0  0  0
  154.8602  141.1655  182.9059 N   0  0  0  0  0  0  0  0  0  0  0  0
  153.9748  142.1198  182.5663 C   0  0  0  0  0  0  0  0  0  0  0  0
  154.6257  143.2851  182.3413 N   0  0  0  0  0  0  0  0  0  0  0  0
  155.9387  143.1086  182.5301 C   0  0  0  0  0  0  0  0  0  0  0  0
  157.0325  143.8892  182.4492 N   0  0  0  0  0  0  0  0  0  0  0  0
  156.8435  145.2776  182.0758 C   0  0  0  0  0  0  0  0  0  0  0  0
  158.2640  143.4018  182.7056 C   0  0  0  0  0  0  0  0  0  0  0  0
  159.2832  144.1478  182.6254 O   0  0  0  0  0  0  0  0  0  0  0  0
  158.4667  142.1213  183.0531 N   0  0  0  0  0  0  0  0  0  0  0  0
  157.3731  141.3279  183.1371 C   0  0  0  0  0  0  0  0  0  0  0  0
  157.4833  140.1062  183.4589 O   0  0  0  0  0  0  0  0  0  0  0  0
  156.0879  141.7849  182.8828 C   0  0  0  0  0  0  0  0  0  0  0  0
  159.7544  141.5334  183.3416 C   0  0  0  0  0  0  0  0  0  0  0  0
  160.3165  141.9042  184.6425 C   0  0  0  0  0  0  0  0  0  0  0  0
  161.6509  142.1693  184.8788 C   0  0  0  0  0  0  0  0  0  0  0  0
  161.7238  142.4708  186.2203 C   0  0  0  0  0  0  0  0  0  0  0  0
  162.9300  142.8337  187.0042 C   0  0  0  0  0  0  0  0  0  0  0  0
  160.5219  142.3916  186.7458 O   0  0  0  0  0  0  0  0  0  0  0  0
  159.6934  142.0603  185.8272 N   0  0  0  0  0  0  0  0  0  0  0  0
 21 22  1  0  0  0
 22 11  1  0  0  0
 11 12  2  0  0  0
 12 13  1  0  0  0
 13 14  2  0  0  0
 14 15  1  0  0  0
 15 16  2  0  0  0
 16 17  1  0  0  0
 17 18  1  0  0  0
 17 19  1  0  0  0
 17 20  1  0  0  0
 14  5  1  0  0  0
  5  6  2  0  0  0
  6  7  1  0  0  0
  7  8  2  0  0  0
  8  9  1  0  0  0
  9  1  1  0  0  0
  1  2  1  0  0  0
  2  3  2  0  0  0
  2 23  1  0  0  0
 23 24  1  0  0  0
 23 25  1  0  0  0
 25 26  1  0  0  0
 26 27  2  0  0  0
 27 28  1  0  0  0
 28 29  1  0  0  0
 29 30  1  0  0  0
 29 31  1  0  0  0
 31 32  2  0  0  0
 31 33  1  0  0  0
 33 37  1  0  0  0
 37 38  1  0  0  0
 38 39  1  0  0  0
 39 40  2  0  0  0
 40 41  1  0  0  0
 40 42  1  0  0  0
 42 43  1  0  0  0
 33 34  1  0  0  0
 34 35  2  0  0  0
 34 36  1  0  0  0
  9 10  2  0  0  0
 16 11  1  0  0  0
 10  5  1  0  0  0
 36 25  1  0  0  0
 36 28  2  0  0  0
 43 38  2  0  0  0
  1  4  1  0  0  0
M  END
> <minimizedAffinity>
-8.61098

> <CNNscore>
0.2788524032

> <CNNaffinity>
6.8744964600

> <CNN_VS>
1.9169698954

> <CNNaffinity_variance>
0.0550830849

$$$$
[H]c1nc(OC([H])([H])[H])c(C(F)(F)F)c([H])c1-c1nc(N([H])C(=O)[C@@]([H])(n2c([H])nc3c2c(=O)n(C([H])([H])c2noc(C([H])([H])[H])c2[H])c(=O)n3C([H])([H])[H])C([H])([H])[H])c([H])c([H])c1[H]


 43 47  0  0  0  0  0  0  0  0999 V2000
  152.9785  138.1243  182.8888 N   0  0  0  0  0  0  0  0  0  0  0  0
  152.4494  139.1765  182.0905 C   0  0  0  0  0  0  0  0  0  0  0  0
  152.7647  140.3812  182.2769 O   0  0  0  0  0  0  0  0  0  0  0  0
  152.7085  137.1243  182.7255 H   0  0  0  0  0  0  0  0  0  0  0  0
  154.5425  138.3326  186.2286 C   0  0  0  0  0  0  0  0  0  0  0  0
  155.7464  138.9316  185.9549 C   0  0  0  0  0  0  0  0  0  0  0  0
  156.0470  139.2689  184.6547 C   0  0  0  0  0  0  0  0  0  0  0  0
  155.1254  138.9914  183.6782 C   0  0  0  0  0  0  0  0  0  0  0  0
  153.9107  138.3877  183.9487 C   0  0  0  0  0  0  0  0  0  0  0  0
  153.6794  138.0858  185.2261 N   0  0  0  0  0  0  0  0  0  0  0  0
  153.6542  137.3154  190.2615 C   0  0  0  0  0  0  0  0  0  0  0  0
  152.7966  137.0251  189.2725 N   0  0  0  0  0  0  0  0  0  0  0  0
  153.0451  137.3356  187.9641 C   0  0  0  0  0  0  0  0  0  0  0  0
  154.2005  137.9668  187.6043 C   0  0  0  0  0  0  0  0  0  0  0  0
  155.0921  138.2696  188.6261 C   0  0  0  0  0  0  0  0  0  0  0  0
  154.8214  137.9466  189.9448 C   0  0  0  0  0  0  0  0  0  0  0  0
  155.7879  138.2769  191.0336 C   0  0  0  0  0  0  0  0  0  0  0  0
  157.0331  138.4345  190.4473 F   0  0  0  0  0  0  0  0  0  0  0  0
  155.3601  139.4204  191.6468 F   0  0  0  0  0  0  0  0  0  0  0  0
  155.8948  137.2133  191.9110 F   0  0  0  0  0  0  0  0  0  0  0  0
  152.0668  136.4623  191.8996 C   0  0  0  0  0  0  0  0  0  0  0  0
  153.3516  136.9747  191.5901 O   0  0  0  0  0  0  0  0  0  0  0  0
  151.4969  138.8103  181.0092 C   0  0  0  0  0  0  0  0  0  0  0  0
  151.4401  139.9953  180.0869 C   0  0  0  0  0  0  0  0  0  0  0  0
  150.2527  138.4421  181.6196 N   0  0  0  0  0  0  0  0  0  0  0  0
  149.2065  139.1957  182.0039 C   0  0  0  0  0  0  0  0  0  0  0  0
  148.2476  138.4041  182.5389 N   0  0  0  0  0  0  0  0  0  0  0  0
  148.6526  137.1289  182.5115 C   0  0  0  0  0  0  0  0  0  0  0  0
  148.1317  135.9490  182.8970 N   0  0  0  0  0  0  0  0  0  0  0  0
  146.8119  135.9589  183.4976 C   0  0  0  0  0  0  0  0  0  0  0  0
  148.8098  134.7944  182.7328 C   0  0  0  0  0  0  0  0  0  0  0  0
  148.3073  133.6926  183.1003 O   0  0  0  0  0  0  0  0  0  0  0  0
  150.0324  134.7571  182.1801 N   0  0  0  0  0  0  0  0  0  0  0  0
  150.5652  135.9386  181.7890 C   0  0  0  0  0  0  0  0  0  0  0  0
  151.7164  135.9853  181.2591 O   0  0  0  0  0  0  0  0  0  0  0  0
  149.9053  137.1500  181.9377 C   0  0  0  0  0  0  0  0  0  0  0  0
  150.8138  133.5597  181.9736 C   0  0  0  0  0  0  0  0  0  0  0  0
  151.8683  133.3408  182.9665 C   0  0  0  0  0  0  0  0  0  0  0  0
  153.2000  133.1284  182.6692 C   0  0  0  0  0  0  0  0  0  0  0  0
  153.8188  132.9741  183.8895 C   0  0  0  0  0  0  0  0  0  0  0  0
  155.2570  132.7210  184.1516 C   0  0  0  0  0  0  0  0  0  0  0  0
  152.9230  133.0862  184.8444 O   0  0  0  0  0  0  0  0  0  0  0  0
  151.7790  133.3010  184.3106 N   0  0  0  0  0  0  0  0  0  0  0  0
 21 22  1  0  0  0
 22 11  1  0  0  0
 11 12  2  0  0  0
 12 13  1  0  0  0
 13 14  2  0  0  0
 14 15  1  0  0  0
 15 16  2  0  0  0
 16 17  1  0  0  0
 17 18  1  0  0  0
 17 19  1  0  0  0
 17 20  1  0  0  0
 14  5  1  0  0  0
  5  6  2  0  0  0
  6  7  1  0  0  0
  7  8  2  0  0  0
  8  9  1  0  0  0
  9  1  1  0  0  0
  1  2  1  0  0  0
  2  3  2  0  0  0
  2 23  1  0  0  0
 23 24  1  0  0  0
 23 25  1  0  0  0
 25 26  1  0  0  0
 26 27  2  0  0  0
 27 28  1  0  0  0
 28 29  1  0  0  0
 29 30  1  0  0  0
 29 31  1  0  0  0
 31 32  2  0  0  0
 31 33  1  0  0  0
 33 37  1  0  0  0
 37 38  1  0  0  0
 38 39  1  0  0  0
 39 40  2  0  0  0
 40 41  1  0  0  0
 40 42  1  0  0  0
 42 43  1  0  0  0
 33 34  1  0  0  0
 34 35  2  0  0  0
 34 36  1  0  0  0
  9 10  2  0  0  0
 16 11  1  0  0  0
 10  5  1  0  0  0
 36 25  1  0  0  0
 36 28  2  0  0  0
 43 38  2  0  0  0
  1  4  1  0  0  0
M  END
> <minimizedAffinity>
-6.85513

> <CNNscore>
0.2633534968

> <CNNaffinity>
6.4344367981

> <CNN_VS>
1.6945314407

> <CNNaffinity_variance>
0.1327457726

$$$$
[H]c1nc(OC([H])([H])[H])c(C(F)(F)F)c([H])c1-c1nc(N([H])C(=O)[C@@]([H])(n2c([H])nc3c2c(=O)n(C([H])([H])c2noc(C([H])([H])[H])c2[H])c(=O)n3C([H])([H])[H])C([H])([H])[H])c([H])c([H])c1[H]


 43 47  0  0  0  0  0  0  0  0999 V2000
  153.4695  137.9398  183.8979 N   0  0  0  0  0  0  0  0  0  0  0  0
  153.1546  137.8309  185.2812 C   0  0  0  0  0  0  0  0  0  0  0  0
  153.2322  138.8137  186.0644 O   0  0  0  0  0  0  0  0  0  0  0  0
  153.4022  137.1144  183.2546 H   0  0  0  0  0  0  0  0  0  0  0  0
  155.4855  140.9029  183.0043 C   0  0  0  0  0  0  0  0  0  0  0  0
  154.6320  141.6082  182.1937 C   0  0  0  0  0  0  0  0  0  0  0  0
  153.3786  141.1005  181.9371 C   0  0  0  0  0  0  0  0  0  0  0  0
  153.0302  139.9025  182.5056 C   0  0  0  0  0  0  0  0  0  0  0  0
  153.8868  139.1876  183.3232 C   0  0  0  0  0  0  0  0  0  0  0  0
  155.0851  139.7318  183.5328 N   0  0  0  0  0  0  0  0  0  0  0  0
  159.3454  142.5143  183.7749 C   0  0  0  0  0  0  0  0  0  0  0  0
  158.9793  141.3287  184.2832 N   0  0  0  0  0  0  0  0  0  0  0  0
  157.7482  140.7770  184.0591 C   0  0  0  0  0  0  0  0  0  0  0  0
  156.8227  141.4245  183.2928 C   0  0  0  0  0  0  0  0  0  0  0  0
  157.1978  142.6534  182.7642 C   0  0  0  0  0  0  0  0  0  0  0  0
  158.4495  143.1946  183.0031 C   0  0  0  0  0  0  0  0  0  0  0  0
  158.8406  144.5160  182.4288 C   0  0  0  0  0  0  0  0  0  0  0  0
  157.6737  145.2185  182.1756 F   0  0  0  0  0  0  0  0  0  0  0  0
  159.6373  145.1533  183.3374 F   0  0  0  0  0  0  0  0  0  0  0  0
  159.4671  144.3357  181.2091 F   0  0  0  0  0  0  0  0  0  0  0  0
  161.2025  142.8484  185.3143 C   0  0  0  0  0  0  0  0  0  0  0  0
  160.6226  143.0375  184.0349 O   0  0  0  0  0  0  0  0  0  0  0  0
  152.7226  136.5016  185.7881 C   0  0  0  0  0  0  0  0  0  0  0  0
  153.3190  135.4871  184.8538 C   0  0  0  0  0  0  0  0  0  0  0  0
  151.2910  136.5011  185.8688 N   0  0  0  0  0  0  0  0  0  0  0  0
  150.3626  136.9412  185.0001 C   0  0  0  0  0  0  0  0  0  0  0  0
  149.1265  136.7328  185.5108 N   0  0  0  0  0  0  0  0  0  0  0  0
  149.2302  136.1566  186.7142 C   0  0  0  0  0  0  0  0  0  0  0  0
  148.3627  135.7358  187.6537 N   0  0  0  0  0  0  0  0  0  0  0  0
  146.9471  135.9026  187.3871 C   0  0  0  0  0  0  0  0  0  0  0  0
  148.7902  135.1778  188.8051 C   0  0  0  0  0  0  0  0  0  0  0  0
  147.9628  134.7871  189.6793 O   0  0  0  0  0  0  0  0  0  0  0  0
  150.0941  135.0119  189.0769 N   0  0  0  0  0  0  0  0  0  0  0  0
  150.9747  135.4318  188.1384 C   0  0  0  0  0  0  0  0  0  0  0  0
  152.2235  135.3098  188.3223 O   0  0  0  0  0  0  0  0  0  0  0  0
  150.5817  136.0108  186.9402 C   0  0  0  0  0  0  0  0  0  0  0  0
  150.6215  134.4231  190.2860 C   0  0  0  0  0  0  0  0  0  0  0  0
  150.6827  135.3340  191.4316 C   0  0  0  0  0  0  0  0  0  0  0  0
  151.6554  136.2949  191.6243 C   0  0  0  0  0  0  0  0  0  0  0  0
  151.3228  136.9076  192.8118 C   0  0  0  0  0  0  0  0  0  0  0  0
  152.0365  138.0167  193.4911 C   0  0  0  0  0  0  0  0  0  0  0  0
  150.2324  136.3535  193.2921 O   0  0  0  0  0  0  0  0  0  0  0  0
  149.8525  135.4315  192.4887 N   0  0  0  0  0  0  0  0  0  0  0  0
 21 22  1  0  0  0
 22 11  1  0  0  0
 11 12  2  0  0  0
 12 13  1  0  0  0
 13 14  2  0  0  0
 14 15  1  0  0  0
 15 16  2  0  0  0
 16 17  1  0  0  0
 17 18  1  0  0  0
 17 19  1  0  0  0
 17 20  1  0  0  0
 14  5  1  0  0  0
  5  6  2  0  0  0
  6  7  1  0  0  0
  7  8  2  0  0  0
  8  9  1  0  0  0
  9  1  1  0  0  0
  1  2  1  0  0  0
  2  3  2  0  0  0
  2 23  1  0  0  0
 23 24  1  0  0  0
 23 25  1  0  0  0
 25 26  1  0  0  0
 26 27  2  0  0  0
 27 28  1  0  0  0
 28 29  1  0  0  0
 29 30  1  0  0  0
 29 31  1  0  0  0
 31 32  2  0  0  0
 31 33  1  0  0  0
 33 37  1  0  0  0
 37 38  1  0  0  0
 38 39  1  0  0  0
 39 40  2  0  0  0
 40 41  1  0  0  0
 40 42  1  0  0  0
 42 43  1  0  0  0
 33 34  1  0  0  0
 34 35  2  0  0  0
 34 36  1  0  0  0
  9 10  2  0  0  0
 16 11  1  0  0  0
 10  5  1  0  0  0
 36 25  1  0  0  0
 36 28  2  0  0  0
 43 38  2  0  0  0
  1  4  1  0  0  0
M  END
> <minimizedAffinity>
-8.68683

> <CNNscore>
0.2533074319

> <CNNaffinity>
6.5086908340

> <CNN_VS>
1.6486997604

> <CNNaffinity_variance>
0.0757923648

$$$$
[H]c1nc(OC([H])([H])[H])c(C(F)(F)F)c([H])c1-c1nc(N([H])C(=O)[C@@]([H])(n2c([H])nc3c2c(=O)n(C([H])([H])c2noc(C([H])([H])[H])c2[H])c(=O)n3C([H])([H])[H])C([H])([H])[H])c([H])c([H])c1[H]


 43 47  0  0  0  0  0  0  0  0999 V2000
  151.3604  137.3253  186.6098 N   0  0  0  0  0  0  0  0  0  0  0  0
  150.8038  136.3788  187.5147 C   0  0  0  0  0  0  0  0  0  0  0  0
  151.5090  135.7637  188.3571 O   0  0  0  0  0  0  0  0  0  0  0  0
  150.7638  137.8314  185.9115 H   0  0  0  0  0  0  0  0  0  0  0  0
  154.6923  138.5915  185.6412 C   0  0  0  0  0  0  0  0  0  0  0  0
  155.4795  138.1854  186.6892 C   0  0  0  0  0  0  0  0  0  0  0  0
  154.9053  137.4881  187.7279 C   0  0  0  0  0  0  0  0  0  0  0  0
  153.5608  137.2251  187.6736 C   0  0  0  0  0  0  0  0  0  0  0  0
  152.7630  137.6322  186.6196 C   0  0  0  0  0  0  0  0  0  0  0  0
  153.3779  138.3028  185.6458 N   0  0  0  0  0  0  0  0  0  0  0  0
  156.5135  140.7165  182.4387 C   0  0  0  0  0  0  0  0  0  0  0  0
  155.1792  140.6647  182.5609 N   0  0  0  0  0  0  0  0  0  0  0  0
  154.5557  139.9922  183.5754 C   0  0  0  0  0  0  0  0  0  0  0  0
  155.2816  139.3326  184.5246 C   0  0  0  0  0  0  0  0  0  0  0  0
  156.6646  139.3835  184.4017 C   0  0  0  0  0  0  0  0  0  0  0  0
  157.2764  140.0701  183.3668 C   0  0  0  0  0  0  0  0  0  0  0  0
  158.7637  140.1178  183.2461 C   0  0  0  0  0  0  0  0  0  0  0  0
  159.0853  139.7503  181.9496 F   0  0  0  0  0  0  0  0  0  0  0  0
  159.1714  141.3890  183.5360 F   0  0  0  0  0  0  0  0  0  0  0  0
  159.3371  139.1744  184.0791 F   0  0  0  0  0  0  0  0  0  0  0  0
  157.1335  142.8380  181.4162 C   0  0  0  0  0  0  0  0  0  0  0  0
  157.1052  141.4214  181.3777 O   0  0  0  0  0  0  0  0  0  0  0  0
  149.3398  136.1300  187.4392 C   0  0  0  0  0  0  0  0  0  0  0  0
  148.9117  135.7460  188.8274 C   0  0  0  0  0  0  0  0  0  0  0  0
  149.1091  135.1421  186.4258 N   0  0  0  0  0  0  0  0  0  0  0  0
  149.1781  133.7995  186.4768 C   0  0  0  0  0  0  0  0  0  0  0  0
  148.8771  133.2819  185.2628 N   0  0  0  0  0  0  0  0  0  0  0  0
  148.6087  134.2747  184.4065 C   0  0  0  0  0  0  0  0  0  0  0  0
  148.2628  134.3536  183.1079 N   0  0  0  0  0  0  0  0  0  0  0  0
  148.1185  133.1123  182.3723 C   0  0  0  0  0  0  0  0  0  0  0  0
  148.0565  135.5436  182.5069 C   0  0  0  0  0  0  0  0  0  0  0  0
  147.7319  135.6021  181.2851 O   0  0  0  0  0  0  0  0  0  0  0  0
  148.1835  136.7068  183.1643 N   0  0  0  0  0  0  0  0  0  0  0  0
  148.5311  136.6383  184.4709 C   0  0  0  0  0  0  0  0  0  0  0  0
  148.6712  137.6941  185.1593 O   0  0  0  0  0  0  0  0  0  0  0  0
  148.7532  135.4381  185.1308 C   0  0  0  0  0  0  0  0  0  0  0  0
  147.9778  138.0143  182.5853 C   0  0  0  0  0  0  0  0  0  0  0  0
  149.1403  138.5584  181.8794 C   0  0  0  0  0  0  0  0  0  0  0  0
  149.1086  139.1057  180.6120 C   0  0  0  0  0  0  0  0  0  0  0  0
  150.4072  139.4829  180.3526 C   0  0  0  0  0  0  0  0  0  0  0  0
  150.9367  140.1268  179.1254 C   0  0  0  0  0  0  0  0  0  0  0  0
  151.1583  139.1832  181.3884 O   0  0  0  0  0  0  0  0  0  0  0  0
  150.4225  138.6416  182.2858 N   0  0  0  0  0  0  0  0  0  0  0  0
 21 22  1  0  0  0
 22 11  1  0  0  0
 11 12  2  0  0  0
 12 13  1  0  0  0
 13 14  2  0  0  0
 14 15  1  0  0  0
 15 16  2  0  0  0
 16 17  1  0  0  0
 17 18  1  0  0  0
 17 19  1  0  0  0
 17 20  1  0  0  0
 14  5  1  0  0  0
  5  6  2  0  0  0
  6  7  1  0  0  0
  7  8  2  0  0  0
  8  9  1  0  0  0
  9  1  1  0  0  0
  1  2  1  0  0  0
  2  3  2  0  0  0
  2 23  1  0  0  0
 23 24  1  0  0  0
 23 25  1  0  0  0
 25 26  1  0  0  0
 26 27  2  0  0  0
 27 28  1  0  0  0
 28 29  1  0  0  0
 29 30  1  0  0  0
 29 31  1  0  0  0
 31 32  2  0  0  0
 31 33  1  0  0  0
 33 37  1  0  0  0
 37 38  1  0  0  0
 38 39  1  0  0  0
 39 40  2  0  0  0
 40 41  1  0  0  0
 40 42  1  0  0  0
 42 43  1  0  0  0
 33 34  1  0  0  0
 34 35  2  0  0  0
 34 36  1  0  0  0
  9 10  2  0  0  0
 16 11  1  0  0  0
 10  5  1  0  0  0
 36 25  1  0  0  0
 36 28  2  0  0  0
 43 38  2  0  0  0
  1  4  1  0  0  0
M  END
> <minimizedAffinity>
-7.45376

> <CNNscore>
0.2311419994

> <CNNaffinity>
6.4869017601

> <CNN_VS>
1.4993954897

> <CNNaffinity_variance>
0.2355360091

$$$$
[H]c1nc(C([H])([H])[H])c(C(F)(F)F)c([H])c1-c1nc(N([H])C(=O)[C@@]([H])(n2c([H])nc3c2c(=O)n(C([H])([H])c2noc(C([H])([H])[H])n2)c(=O)n3C([H])([H])[H])C([H])([H])[H])c([H])s1


 41 45  0  0  0  0  0  0  0  0999 V2000
  150.2328  139.4259  179.0377 C   0  0  0  0  0  0  0  0  0  0  0  0
  150.5438  138.7501  180.3194 C   0  0  0  0  0  0  0  0  0  0  0  0
  149.5953  138.8434  181.3735 N   0  0  0  0  0  0  0  0  0  0  0  0
  148.4617  139.6225  181.3752 C   0  0  0  0  0  0  0  0  0  0  0  0
  147.7820  139.4967  182.4926 N   0  0  0  0  0  0  0  0  0  0  0  0
  148.4611  138.6253  183.2526 C   0  0  0  0  0  0  0  0  0  0  0  0
  148.2095  138.1508  184.4707 N   0  0  0  0  0  0  0  0  0  0  0  0
  147.0127  138.6096  185.1573 C   0  0  0  0  0  0  0  0  0  0  0  0
  149.0581  137.2689  185.0303 C   0  0  0  0  0  0  0  0  0  0  0  0
  148.7681  136.8540  186.1860 O   0  0  0  0  0  0  0  0  0  0  0  0
  150.1564  136.8442  184.4068 N   0  0  0  0  0  0  0  0  0  0  0  0
  150.4410  137.3052  183.1714 C   0  0  0  0  0  0  0  0  0  0  0  0
  151.4771  136.9141  182.5650 O   0  0  0  0  0  0  0  0  0  0  0  0
  149.5972  138.2073  182.5677 C   0  0  0  0  0  0  0  0  0  0  0  0
  151.0711  135.9003  184.9974 C   0  0  0  0  0  0  0  0  0  0  0  0
  152.1897  136.5283  185.7000 C   0  0  0  0  0  0  0  0  0  0  0  0
  153.4850  136.5243  185.3076 N   0  0  0  0  0  0  0  0  0  0  0  0
  154.1954  137.1900  186.1939 O   0  0  0  0  0  0  0  0  0  0  0  0
  153.4401  137.6297  187.1443 C   0  0  0  0  0  0  0  0  0  0  0  0
  153.8283  138.4239  188.3384 C   0  0  0  0  0  0  0  0  0  0  0  0
  152.1879  137.2308  186.8592 N   0  0  0  0  0  0  0  0  0  0  0  0
  151.9590  138.9377  180.8018 C   0  0  0  0  0  0  0  0  0  0  0  0
  152.8355  138.2371  180.3122 O   0  0  0  0  0  0  0  0  0  0  0  0
  152.1671  139.9043  181.7739 N   0  0  0  0  0  0  0  0  0  0  0  0
  151.3438  140.4872  182.1618 H   0  0  0  0  0  0  0  0  0  0  0  0
  153.4641  140.2236  182.3496 C   0  0  0  0  0  0  0  0  0  0  0  0
  153.8090  139.8790  183.6246 C   0  0  0  0  0  0  0  0  0  0  0  0
  155.4212  140.5076  183.7274 S   0  0  0  0  0  0  0  0  0  0  0  0
  155.5321  141.1537  182.1578 C   0  0  0  0  0  0  0  0  0  0  0  0
  154.3632  140.8650  181.6467 N   0  0  0  0  0  0  0  0  0  0  0  0
  156.6671  141.8686  181.5169 C   0  0  0  0  0  0  0  0  0  0  0  0
  157.2298  141.3735  180.3808 C   0  0  0  0  0  0  0  0  0  0  0  0
  158.2675  141.9918  179.7609 N   0  0  0  0  0  0  0  0  0  0  0  0
  158.7567  143.1410  180.2948 C   0  0  0  0  0  0  0  0  0  0  0  0
  159.8939  143.8125  179.6085 C   0  0  0  0  0  0  0  0  0  0  0  0
  158.1881  143.6423  181.4436 C   0  0  0  0  0  0  0  0  0  0  0  0
  157.1158  143.0096  182.0901 C   0  0  0  0  0  0  0  0  0  0  0  0
  158.7057  144.8898  182.0396 C   0  0  0  0  0  0  0  0  0  0  0  0
  157.7058  145.5843  182.6954 F   0  0  0  0  0  0  0  0  0  0  0  0
  159.6886  144.6435  182.9952 F   0  0  0  0  0  0  0  0  0  0  0  0
  159.2654  145.7350  181.1022 F   0  0  0  0  0  0  0  0  0  0  0  0
  1  2  1  0  0  0
  2 22  1  0  0  0
 22 23  2  0  0  0
 22 24  1  0  0  0
 24 26  1  0  0  0
 26 27  2  0  0  0
 27 28  1  0  0  0
 28 29  1  0  0  0
 29 30  2  0  0  0
 29 31  1  0  0  0
 31 32  2  0  0  0
 32 33  1  0  0  0
 33 34  2  0  0  0
 34 35  1  0  0  0
 34 36  1  0  0  0
 36 37  2  0  0  0
 36 38  1  0  0  0
 38 39  1  0  0  0
 38 40  1  0  0  0
 38 41  1  0  0  0
  2  3  1  0  0  0
  3  4  1  0  0  0
  4  5  2  0  0  0
  5  6  1  0  0  0
  6  7  1  0  0  0
  7  8  1  0  0  0
  7  9  1  0  0  0
  9 10  2  0  0  0
  9 11  1  0  0  0
 11 15  1  0  0  0
 15 16  1  0  0  0
 16 17  2  0  0  0
 17 18  1  0  0  0
 18 19  1  0  0  0
 19 20  1  0  0  0
 19 21  2  0  0  0
 11 12  1  0  0  0
 12 13  2  0  0  0
 12 14  1  0  0  0
 30 26  1  0  0  0
 37 31  1  0  0  0
 14  3  1  0  0  0
 14  6  2  0  0  0
 21 16  1  0  0  0
 24 25  1  0  0  0
M  END
> <minimizedAffinity>
-8.61456

> <CNNscore>
0.4571807981

> <CNNaffinity>
7.1351447105

> <CNN_VS>
3.2620511055

> <CNNaffinity_variance>
0.2880072892

$$$$
[H]c1nc(C([H])([H])[H])c(C(F)(F)F)c([H])c1-c1nc(N([H])C(=O)[C@@]([H])(n2c([H])nc3c2c(=O)n(C([H])([H])c2noc(C([H])([H])[H])n2)c(=O)n3C([H])([H])[H])C([H])([H])[H])c([H])s1


 41 45  0  0  0  0  0  0  0  0999 V2000
  150.2601  139.5718  179.1380 C   0  0  0  0  0  0  0  0  0  0  0  0
  150.4952  138.8055  180.3845 C   0  0  0  0  0  0  0  0  0  0  0  0
  149.5259  138.8963  181.4197 N   0  0  0  0  0  0  0  0  0  0  0  0
  148.4674  139.7736  181.4621 C   0  0  0  0  0  0  0  0  0  0  0  0
  147.7439  139.6169  182.5478 N   0  0  0  0  0  0  0  0  0  0  0  0
  148.3177  138.6256  183.2451 C   0  0  0  0  0  0  0  0  0  0  0  0
  147.9860  138.0750  184.4109 N   0  0  0  0  0  0  0  0  0  0  0  0
  146.8140  138.5825  185.1060 C   0  0  0  0  0  0  0  0  0  0  0  0
  148.7338  137.0745  184.9116 C   0  0  0  0  0  0  0  0  0  0  0  0
  148.3712  136.5918  186.0195 O   0  0  0  0  0  0  0  0  0  0  0  0
  149.8088  136.6046  184.2799 N   0  0  0  0  0  0  0  0  0  0  0  0
  150.1727  137.1403  183.0965 C   0  0  0  0  0  0  0  0  0  0  0  0
  151.1882  136.7080  182.4833 O   0  0  0  0  0  0  0  0  0  0  0  0
  149.4329  138.1641  182.5537 C   0  0  0  0  0  0  0  0  0  0  0  0
  150.6159  135.5340  184.8078 C   0  0  0  0  0  0  0  0  0  0  0  0
  151.7110  135.9913  185.6626 C   0  0  0  0  0  0  0  0  0  0  0  0
  152.8686  135.3319  185.9019 N   0  0  0  0  0  0  0  0  0  0  0  0
  153.6044  136.0564  186.7187 O   0  0  0  0  0  0  0  0  0  0  0  0
  152.9957  137.1521  187.0282 C   0  0  0  0  0  0  0  0  0  0  0  0
  153.4630  138.2477  187.9163 C   0  0  0  0  0  0  0  0  0  0  0  0
  151.8157  137.1344  186.3833 N   0  0  0  0  0  0  0  0  0  0  0  0
  151.9055  138.8774  180.9101 C   0  0  0  0  0  0  0  0  0  0  0  0
  152.8113  138.4664  180.1963 O   0  0  0  0  0  0  0  0  0  0  0  0
  152.0757  139.4135  182.1774 N   0  0  0  0  0  0  0  0  0  0  0  0
  151.2279  139.7573  182.7527 H   0  0  0  0  0  0  0  0  0  0  0  0
  153.3624  139.5649  182.8387 C   0  0  0  0  0  0  0  0  0  0  0  0
  153.8013  138.7030  183.8020 C   0  0  0  0  0  0  0  0  0  0  0  0
  155.3481  139.3813  184.1925 S   0  0  0  0  0  0  0  0  0  0  0  0
  155.3185  140.6950  183.1123 C   0  0  0  0  0  0  0  0  0  0  0  0
  154.1594  140.5542  182.5227 N   0  0  0  0  0  0  0  0  0  0  0  0
  156.3459  141.7454  182.8862 C   0  0  0  0  0  0  0  0  0  0  0  0
  156.0713  142.8038  182.0757 C   0  0  0  0  0  0  0  0  0  0  0  0
  156.9780  143.7865  181.8400 N   0  0  0  0  0  0  0  0  0  0  0  0
  158.1971  143.7069  182.4339 C   0  0  0  0  0  0  0  0  0  0  0  0
  159.1848  144.7887  182.1704 C   0  0  0  0  0  0  0  0  0  0  0  0
  158.4755  142.6369  183.2536 C   0  0  0  0  0  0  0  0  0  0  0  0
  157.5442  141.6177  183.5022 C   0  0  0  0  0  0  0  0  0  0  0  0
  159.7947  142.5321  183.9078 C   0  0  0  0  0  0  0  0  0  0  0  0
  160.7470  142.0330  183.0381 F   0  0  0  0  0  0  0  0  0  0  0  0
  160.2714  143.7728  184.3239 F   0  0  0  0  0  0  0  0  0  0  0  0
  159.7719  141.7200  185.0243 F   0  0  0  0  0  0  0  0  0  0  0  0
  1  2  1  0  0  0
  2 22  1  0  0  0
 22 23  2  0  0  0
 22 24  1  0  0  0
 24 26  1  0  0  0
 26 27  2  0  0  0
 27 28  1  0  0  0
 28 29  1  0  0  0
 29 30  2  0  0  0
 29 31  1  0  0  0
 31 32  2  0  0  0
 32 33  1  0  0  0
 33 34  2  0  0  0
 34 35  1  0  0  0
 34 36  1  0  0  0
 36 37  2  0  0  0
 36 38  1  0  0  0
 38 39  1  0  0  0
 38 40  1  0  0  0
 38 41  1  0  0  0
  2  3  1  0  0  0
  3  4  1  0  0  0
  4  5  2  0  0  0
  5  6  1  0  0  0
  6  7  1  0  0  0
  7  8  1  0  0  0
  7  9  1  0  0  0
  9 10  2  0  0  0
  9 11  1  0  0  0
 11 15  1  0  0  0
 15 16  1  0  0  0
 16 17  2  0  0  0
 17 18  1  0  0  0
 18 19  1  0  0  0
 19 20  1  0  0  0
 19 21  2  0  0  0
 11 12  1  0  0  0
 12 13  2  0  0  0
 12 14  1  0  0  0
 30 26  1  0  0  0
 37 31  1  0  0  0
 14  3  1  0  0  0
 14  6  2  0  0  0
 21 16  1  0  0  0
 24 25  1  0  0  0
M  END
> <minimizedAffinity>
-8.28133

> <CNNscore>
0.3939380944

> <CNNaffinity>
7.0353746414

> <CNN_VS>
2.7715020180

> <CNNaffinity_variance>
0.3352920115

$$$$
[H]c1nc(C([H])([H])[H])c(C(F)(F)F)c([H])c1-c1nc(N([H])C(=O)[C@@]([H])(n2c([H])nc3c2c(=O)n(C([H])([H])c2noc(C([H])([H])[H])n2)c(=O)n3C([H])([H])[H])C([H])([H])[H])c([H])s1


 41 45  0  0  0  0  0  0  0  0999 V2000
  154.3627  137.3007  183.4895 C   0  0  0  0  0  0  0  0  0  0  0  0
  153.8718  138.5392  184.1387 C   0  0  0  0  0  0  0  0  0  0  0  0
  154.1876  139.7845  183.5314 N   0  0  0  0  0  0  0  0  0  0  0  0
  153.2992  140.6280  182.9060 C   0  0  0  0  0  0  0  0  0  0  0  0
  153.8901  141.7061  182.4423 N   0  0  0  0  0  0  0  0  0  0  0  0
  155.1885  141.5909  182.7567 C   0  0  0  0  0  0  0  0  0  0  0  0
  156.2173  142.4025  182.5216 N   0  0  0  0  0  0  0  0  0  0  0  0
  155.9685  143.6440  181.8069 C   0  0  0  0  0  0  0  0  0  0  0  0
  157.4473  142.0587  182.9458 C   0  0  0  0  0  0  0  0  0  0  0  0
  158.3830  142.8668  182.6945 O   0  0  0  0  0  0  0  0  0  0  0  0
  157.6822  140.9226  183.6013 N   0  0  0  0  0  0  0  0  0  0  0  0
  156.6620  140.0776  183.8559 C   0  0  0  0  0  0  0  0  0  0  0  0
  156.8654  138.9967  184.4758 O   0  0  0  0  0  0  0  0  0  0  0  0
  155.3914  140.3953  183.4379 C   0  0  0  0  0  0  0  0  0  0  0  0
  158.9953  140.5456  184.0594 C   0  0  0  0  0  0  0  0  0  0  0  0
  159.4968  141.3777  185.1528 C   0  0  0  0  0  0  0  0  0  0  0  0
  158.8475  141.6605  186.3062 N   0  0  0  0  0  0  0  0  0  0  0  0
  159.6149  142.4373  187.0416 O   0  0  0  0  0  0  0  0  0  0  0  0
  160.7293  142.6798  186.4366 C   0  0  0  0  0  0  0  0  0  0  0  0
  161.8726  143.5050  186.9048 C   0  0  0  0  0  0  0  0  0  0  0  0
  160.6794  142.0314  185.2594 N   0  0  0  0  0  0  0  0  0  0  0  0
  154.0371  138.5719  185.6361 C   0  0  0  0  0  0  0  0  0  0  0  0
  153.3611  139.3671  186.2762 O   0  0  0  0  0  0  0  0  0  0  0  0
  154.9512  137.6858  186.1855 N   0  0  0  0  0  0  0  0  0  0  0  0
  155.5150  137.0104  185.5580 H   0  0  0  0  0  0  0  0  0  0  0  0
  155.2346  137.5757  187.6079 C   0  0  0  0  0  0  0  0  0  0  0  0
  156.3059  138.1851  188.1948 C   0  0  0  0  0  0  0  0  0  0  0  0
  156.1138  137.7023  189.8485 S   0  0  0  0  0  0  0  0  0  0  0  0
  154.7009  136.7722  189.6690 C   0  0  0  0  0  0  0  0  0  0  0  0
  154.4526  136.8739  188.3887 N   0  0  0  0  0  0  0  0  0  0  0  0
  153.9324  136.0269  190.7005 C   0  0  0  0  0  0  0  0  0  0  0  0
  153.9896  134.6677  190.7429 C   0  0  0  0  0  0  0  0  0  0  0  0
  153.3052  133.9452  191.6664 N   0  0  0  0  0  0  0  0  0  0  0  0
  152.5400  134.6037  192.5752 C   0  0  0  0  0  0  0  0  0  0  0  0
  151.7935  133.8039  193.5843 C   0  0  0  0  0  0  0  0  0  0  0  0
  152.4816  135.9782  192.5329 C   0  0  0  0  0  0  0  0  0  0  0  0
  153.1858  136.7319  191.5820 C   0  0  0  0  0  0  0  0  0  0  0  0
  151.6553  136.7123  193.5115 C   0  0  0  0  0  0  0  0  0  0  0  0
  150.3106  136.4435  193.3335 F   0  0  0  0  0  0  0  0  0  0  0  0
  151.9475  136.3437  194.8225 F   0  0  0  0  0  0  0  0  0  0  0  0
  151.8289  138.0799  193.4348 F   0  0  0  0  0  0  0  0  0  0  0  0
  1  2  1  0  0  0
  2 22  1  0  0  0
 22 23  2  0  0  0
 22 24  1  0  0  0
 24 26  1  0  0  0
 26 27  2  0  0  0
 27 28  1  0  0  0
 28 29  1  0  0  0
 29 30  2  0  0  0
 29 31  1  0  0  0
 31 32  2  0  0  0
 32 33  1  0  0  0
 33 34  2  0  0  0
 34 35  1  0  0  0
 34 36  1  0  0  0
 36 37  2  0  0  0
 36 38  1  0  0  0
 38 39  1  0  0  0
 38 40  1  0  0  0
 38 41  1  0  0  0
  2  3  1  0  0  0
  3  4  1  0  0  0
  4  5  2  0  0  0
  5  6  1  0  0  0
  6  7  1  0  0  0
  7  8  1  0  0  0
  7  9  1  0  0  0
  9 10  2  0  0  0
  9 11  1  0  0  0
 11 15  1  0  0  0
 15 16  1  0  0  0
 16 17  2  0  0  0
 17 18  1  0  0  0
 18 19  1  0  0  0
 19 20  1  0  0  0
 19 21  2  0  0  0
 11 12  1  0  0  0
 12 13  2  0  0  0
 12 14  1  0  0  0
 30 26  1  0  0  0
 37 31  1  0  0  0
 14  3  1  0  0  0
 14  6  2  0  0  0
 21 16  1  0  0  0
 24 25  1  0  0  0
M  END
> <minimizedAffinity>
-8.28685

> <CNNscore>
0.3317286968

> <CNNaffinity>
6.7243394852

> <CNN_VS>
2.2306563854

> <CNNaffinity_variance>
0.3442531228

$$$$
[H]c1nc(C([H])([H])[H])c(C(F)(F)F)c([H])c1-c1nc(N([H])C(=O)[C@@]([H])(n2c([H])nc3c2c(=O)n(C([H])([H])c2noc(C([H])([H])[H])n2)c(=O)n3C([H])([H])[H])C([H])([H])[H])c([H])s1


 41 45  0  0  0  0  0  0  0  0999 V2000
  151.9523  137.7552  186.1460 C   0  0  0  0  0  0  0  0  0  0  0  0
  152.7285  137.1112  185.0601 C   0  0  0  0  0  0  0  0  0  0  0  0
  153.4485  135.9244  185.3642 N   0  0  0  0  0  0  0  0  0  0  0  0
  153.3042  134.7078  184.7388 C   0  0  0  0  0  0  0  0  0  0  0  0
  154.1097  133.7996  185.2413 N   0  0  0  0  0  0  0  0  0  0  0  0
  154.8046  134.4067  186.2143 C   0  0  0  0  0  0  0  0  0  0  0  0
  155.7461  133.9419  187.0328 N   0  0  0  0  0  0  0  0  0  0  0  0
  156.1409  132.5479  186.9107 C   0  0  0  0  0  0  0  0  0  0  0  0
  156.3028  134.7632  187.9419 C   0  0  0  0  0  0  0  0  0  0  0  0
  157.1895  134.2673  188.6900 O   0  0  0  0  0  0  0  0  0  0  0  0
  155.9458  136.0416  188.0590 N   0  0  0  0  0  0  0  0  0  0  0  0
  154.9947  136.5445  187.2453 C   0  0  0  0  0  0  0  0  0  0  0  0
  154.6435  137.7534  187.3415 O   0  0  0  0  0  0  0  0  0  0  0  0
  154.4033  135.7354  186.3041 C   0  0  0  0  0  0  0  0  0  0  0  0
  156.5359  136.9288  189.0291 C   0  0  0  0  0  0  0  0  0  0  0  0
  155.6188  137.3225  190.0984 C   0  0  0  0  0  0  0  0  0  0  0  0
  155.6333  138.4954  190.7738 N   0  0  0  0  0  0  0  0  0  0  0  0
  154.6580  138.4837  191.6581 O   0  0  0  0  0  0  0  0  0  0  0  0
  154.0057  137.3710  191.6010 C   0  0  0  0  0  0  0  0  0  0  0  0
  152.8392  136.9428  192.4155 C   0  0  0  0  0  0  0  0  0  0  0  0
  154.5847  136.6322  190.6380 N   0  0  0  0  0  0  0  0  0  0  0  0
  153.5252  138.0638  184.2067 C   0  0  0  0  0  0  0  0  0  0  0  0
  153.5490  137.8763  182.9971 O   0  0  0  0  0  0  0  0  0  0  0  0
  154.1776  139.0969  184.8620 N   0  0  0  0  0  0  0  0  0  0  0  0
  154.1126  139.2014  185.9357 H   0  0  0  0  0  0  0  0  0  0  0  0
  154.9848  140.1093  184.1992 C   0  0  0  0  0  0  0  0  0  0  0  0
  154.4641  140.9931  183.2986 C   0  0  0  0  0  0  0  0  0  0  0  0
  155.8671  141.9174  182.8719 S   0  0  0  0  0  0  0  0  0  0  0  0
  156.9966  141.1177  183.8610 C   0  0  0  0  0  0  0  0  0  0  0  0
  156.2654  140.2084  184.4523 N   0  0  0  0  0  0  0  0  0  0  0  0
  158.4514  141.3780  184.0216 C   0  0  0  0  0  0  0  0  0  0  0  0
  159.3228  141.0000  183.0468 C   0  0  0  0  0  0  0  0  0  0  0  0
  160.6591  141.2169  183.1498 N   0  0  0  0  0  0  0  0  0  0  0  0
  161.1375  141.8311  184.2630 C   0  0  0  0  0  0  0  0  0  0  0  0
  162.6036  142.0653  184.3674 C   0  0  0  0  0  0  0  0  0  0  0  0
  160.2568  142.2135  185.2492 C   0  0  0  0  0  0  0  0  0  0  0  0
  158.8750  141.9931  185.1503 C   0  0  0  0  0  0  0  0  0  0  0  0
  160.7572  142.8819  186.4667 C   0  0  0  0  0  0  0  0  0  0  0  0
  161.6921  142.0995  187.1194 F   0  0  0  0  0  0  0  0  0  0  0  0
  161.4007  144.0825  186.1765 F   0  0  0  0  0  0  0  0  0  0  0  0
  159.7498  143.1773  187.3636 F   0  0  0  0  0  0  0  0  0  0  0  0
  1  2  1  0  0  0
  2 22  1  0  0  0
 22 23  2  0  0  0
 22 24  1  0  0  0
 24 26  1  0  0  0
 26 27  2  0  0  0
 27 28  1  0  0  0
 28 29  1  0  0  0
 29 30  2  0  0  0
 29 31  1  0  0  0
 31 32  2  0  0  0
 32 33  1  0  0  0
 33 34  2  0  0  0
 34 35  1  0  0  0
 34 36  1  0  0  0
 36 37  2  0  0  0
 36 38  1  0  0  0
 38 39  1  0  0  0
 38 40  1  0  0  0
 38 41  1  0  0  0
  2  3  1  0  0  0
  3  4  1  0  0  0
  4  5  2  0  0  0
  5  6  1  0  0  0
  6  7  1  0  0  0
  7  8  1  0  0  0
  7  9  1  0  0  0
  9 10  2  0  0  0
  9 11  1  0  0  0
 11 15  1  0  0  0
 15 16  1  0  0  0
 16 17  2  0  0  0
 17 18  1  0  0  0
 18 19  1  0  0  0
 19 20  1  0  0  0
 19 21  2  0  0  0
 11 12  1  0  0  0
 12 13  2  0  0  0
 12 14  1  0  0  0
 30 26  1  0  0  0
 37 31  1  0  0  0
 14  3  1  0  0  0
 14  6  2  0  0  0
 21 16  1  0  0  0
 24 25  1  0  0  0
M  END
> <minimizedAffinity>
-8.41395

> <CNNscore>
0.3031348586

> <CNNaffinity>
7.0090265274

> <CNN_VS>
2.1246802807

> <CNNaffinity_variance>
0.4317526817

$$$$
[H]c1nc(C([H])([H])[H])c(C(F)(F)F)c([H])c1-c1nc(N([H])C(=O)[C@@]([H])(n2c([H])nc3c2c(=O)n(C([H])([H])c2noc(C([H])([H])[H])n2)c(=O)n3C([H])([H])[H])C([H])([H])[H])c([H])s1


 41 45  0  0  0  0  0  0  0  0999 V2000
  153.8387  135.6540  184.5440 C   0  0  0  0  0  0  0  0  0  0  0  0
  153.2817  136.6070  185.5328 C   0  0  0  0  0  0  0  0  0  0  0  0
  151.8708  136.6552  185.6957 N   0  0  0  0  0  0  0  0  0  0  0  0
  150.9722  137.2012  184.8089 C   0  0  0  0  0  0  0  0  0  0  0  0
  149.7345  137.0947  185.2370 N   0  0  0  0  0  0  0  0  0  0  0  0
  149.7964  136.4716  186.4227 C   0  0  0  0  0  0  0  0  0  0  0  0
  148.8347  136.1191  187.2731 N   0  0  0  0  0  0  0  0  0  0  0  0
  147.4574  136.4294  186.9255 C   0  0  0  0  0  0  0  0  0  0  0  0
  149.1564  135.4918  188.4194 C   0  0  0  0  0  0  0  0  0  0  0  0
  148.2033  135.1820  189.1859 O   0  0  0  0  0  0  0  0  0  0  0  0
  150.4164  135.2043  188.7439 N   0  0  0  0  0  0  0  0  0  0  0  0
  151.4150  135.5477  187.9046 C   0  0  0  0  0  0  0  0  0  0  0  0
  152.6149  135.2835  188.1952 O   0  0  0  0  0  0  0  0  0  0  0  0
  151.1248  136.1899  186.7241 C   0  0  0  0  0  0  0  0  0  0  0  0
  150.7709  134.5331  189.9687 C   0  0  0  0  0  0  0  0  0  0  0  0
  150.7838  135.4126  191.1373 C   0  0  0  0  0  0  0  0  0  0  0  0
  149.8443  135.4648  192.1102 N   0  0  0  0  0  0  0  0  0  0  0  0
  150.2009  136.3759  192.9911 O   0  0  0  0  0  0  0  0  0  0  0  0
  151.3197  136.9235  192.6514 C   0  0  0  0  0  0  0  0  0  0  0  0
  152.0763  137.9900  193.3568 C   0  0  0  0  0  0  0  0  0  0  0  0
  151.7021  136.3407  191.5014 N   0  0  0  0  0  0  0  0  0  0  0  0
  153.9038  137.9790  185.5031 C   0  0  0  0  0  0  0  0  0  0  0  0
  153.8494  138.6618  186.5179 O   0  0  0  0  0  0  0  0  0  0  0  0
  154.5024  138.3704  184.3152 N   0  0  0  0  0  0  0  0  0  0  0  0
  154.5127  137.7141  183.4567 H   0  0  0  0  0  0  0  0  0  0  0  0
  155.1547  139.6540  184.1086 C   0  0  0  0  0  0  0  0  0  0  0  0
  154.4666  140.7844  183.7736 C   0  0  0  0  0  0  0  0  0  0  0  0
  155.7462  141.9494  183.6721 S   0  0  0  0  0  0  0  0  0  0  0  0
  157.0444  140.9208  184.0594 C   0  0  0  0  0  0  0  0  0  0  0  0
  156.4518  139.7690  184.2420 N   0  0  0  0  0  0  0  0  0  0  0  0
  158.4926  141.2394  184.1665 C   0  0  0  0  0  0  0  0  0  0  0  0
  159.3496  140.8545  183.1817 C   0  0  0  0  0  0  0  0  0  0  0  0
  160.6792  141.1232  183.2366 N   0  0  0  0  0  0  0  0  0  0  0  0
  161.1658  141.7979  184.3105 C   0  0  0  0  0  0  0  0  0  0  0  0
  162.6245  142.0886  184.3623 C   0  0  0  0  0  0  0  0  0  0  0  0
  160.2997  142.1873  185.3069 C   0  0  0  0  0  0  0  0  0  0  0  0
  158.9247  141.9137  185.2575 C   0  0  0  0  0  0  0  0  0  0  0  0
  160.8091  142.9211  186.4822 C   0  0  0  0  0  0  0  0  0  0  0  0
  159.8098  143.1277  187.4155 F   0  0  0  0  0  0  0  0  0  0  0  0
  161.8099  142.2150  187.1453 F   0  0  0  0  0  0  0  0  0  0  0  0
  161.3425  144.1510  186.1516 F   0  0  0  0  0  0  0  0  0  0  0  0
  1  2  1  0  0  0
  2 22  1  0  0  0
 22 23  2  0  0  0
 22 24  1  0  0  0
 24 26  1  0  0  0
 26 27  2  0  0  0
 27 28  1  0  0  0
 28 29  1  0  0  0
 29 30  2  0  0  0
 29 31  1  0  0  0
 31 32  2  0  0  0
 32 33  1  0  0  0
 33 34  2  0  0  0
 34 35  1  0  0  0
 34 36  1  0  0  0
 36 37  2  0  0  0
 36 38  1  0  0  0
 38 39  1  0  0  0
 38 40  1  0  0  0
 38 41  1  0  0  0
  2  3  1  0  0  0
  3  4  1  0  0  0
  4  5  2  0  0  0
  5  6  1  0  0  0
  6  7  1  0  0  0
  7  8  1  0  0  0
  7  9  1  0  0  0
  9 10  2  0  0  0
  9 11  1  0  0  0
 11 15  1  0  0  0
 15 16  1  0  0  0
 16 17  2  0  0  0
 17 18  1  0  0  0
 18 19  1  0  0  0
 19 20  1  0  0  0
 19 21  2  0  0  0
 11 12  1  0  0  0
 12 13  2  0  0  0
 12 14  1  0  0  0
 30 26  1  0  0  0
 37 31  1  0  0  0
 14  3  1  0  0  0
 14  6  2  0  0  0
 21 16  1  0  0  0
 24 25  1  0  0  0
M  END
> <minimizedAffinity>
-8.72949

> <CNNscore>
0.2976323366

> <CNNaffinity>
6.5279259682

> <CNN_VS>
1.9429218769

> <CNNaffinity_variance>
0.1313869506

$$$$
[H]c1nc(C([H])([H])[H])c(C(F)(F)F)c([H])c1-c1nc(N([H])C(=O)[C@@]([H])(n2c([H])nc3c2c(=O)n(C([H])([H])c2noc(C([H])([H])[H])n2)c(=O)n3C([H])([H])[H])C([H])([H])[H])c([H])s1


 41 45  0  0  0  0  0  0  0  0999 V2000
  151.8620  135.3569  186.4779 C   0  0  0  0  0  0  0  0  0  0  0  0
  153.1749  135.4414  185.7955 C   0  0  0  0  0  0  0  0  0  0  0  0
  154.3353  135.0708  186.5272 N   0  0  0  0  0  0  0  0  0  0  0  0
  155.3166  134.2049  186.1036 C   0  0  0  0  0  0  0  0  0  0  0  0
  156.2650  134.0615  187.0016 N   0  0  0  0  0  0  0  0  0  0  0  0
  155.9226  134.8367  188.0408 C   0  0  0  0  0  0  0  0  0  0  0  0
  156.5331  135.0551  189.2035 N   0  0  0  0  0  0  0  0  0  0  0  0
  157.7899  134.3714  189.4629 C   0  0  0  0  0  0  0  0  0  0  0  0
  155.9795  135.8927  190.0995 C   0  0  0  0  0  0  0  0  0  0  0  0
  156.6032  136.0607  191.1833 O   0  0  0  0  0  0  0  0  0  0  0  0
  154.8283  136.5225  189.8682 N   0  0  0  0  0  0  0  0  0  0  0  0
  154.1836  136.3235  188.7001 C   0  0  0  0  0  0  0  0  0  0  0  0
  153.0917  136.9116  188.4632 O   0  0  0  0  0  0  0  0  0  0  0  0
  154.7188  135.4746  187.7604 C   0  0  0  0  0  0  0  0  0  0  0  0
  154.2275  137.4211  190.8210 C   0  0  0  0  0  0  0  0  0  0  0  0
  153.3251  136.7597  191.7632 C   0  0  0  0  0  0  0  0  0  0  0  0
  151.9726  136.7621  191.7121 N   0  0  0  0  0  0  0  0  0  0  0  0
  151.5119  136.0616  192.7272 O   0  0  0  0  0  0  0  0  0  0  0  0
  152.4845  135.6006  193.4402 C   0  0  0  0  0  0  0  0  0  0  0  0
  152.4138  134.7655  194.6671 C   0  0  0  0  0  0  0  0  0  0  0  0
  153.6226  136.0215  192.8604 N   0  0  0  0  0  0  0  0  0  0  0  0
  153.3826  136.6946  184.9851 C   0  0  0  0  0  0  0  0  0  0  0  0
  154.3691  137.3802  185.2211 O   0  0  0  0  0  0  0  0  0  0  0  0
  152.4314  136.9804  184.0175 N   0  0  0  0  0  0  0  0  0  0  0  0
  151.5833  136.3284  183.8638 H   0  0  0  0  0  0  0  0  0  0  0  0
  152.4744  138.1408  183.1416 C   0  0  0  0  0  0  0  0  0  0  0  0
  151.5303  138.3764  182.1843 C   0  0  0  0  0  0  0  0  0  0  0  0
  152.1031  139.8592  181.4928 S   0  0  0  0  0  0  0  0  0  0  0  0
  153.4848  140.0638  182.4636 C   0  0  0  0  0  0  0  0  0  0  0  0
  153.4412  139.0172  183.2470 N   0  0  0  0  0  0  0  0  0  0  0  0
  154.4951  141.1541  182.4377 C   0  0  0  0  0  0  0  0  0  0  0  0
  154.0943  142.4547  182.4513 C   0  0  0  0  0  0  0  0  0  0  0  0
  154.9805  143.4830  182.4287 N   0  0  0  0  0  0  0  0  0  0  0  0
  156.3086  143.2005  182.3912 C   0  0  0  0  0  0  0  0  0  0  0  0
  157.2730  144.3338  182.3671 C   0  0  0  0  0  0  0  0  0  0  0  0
  156.7146  141.8854  182.3773 C   0  0  0  0  0  0  0  0  0  0  0  0
  155.8054  140.8174  182.4006 C   0  0  0  0  0  0  0  0  0  0  0  0
  158.1535  141.5577  182.3362 C   0  0  0  0  0  0  0  0  0  0  0  0
  158.3538  140.1933  182.2336 F   0  0  0  0  0  0  0  0  0  0  0  0
  158.7858  142.1201  181.2301 F   0  0  0  0  0  0  0  0  0  0  0  0
  158.8329  142.0041  183.4523 F   0  0  0  0  0  0  0  0  0  0  0  0
  1  2  1  0  0  0
  2 22  1  0  0  0
 22 23  2  0  0  0
 22 24  1  0  0  0
 24 26  1  0  0  0
 26 27  2  0  0  0
 27 28  1  0  0  0
 28 29  1  0  0  0
 29 30  2  0  0  0
 29 31  1  0  0  0
 31 32  2  0  0  0
 32 33  1  0  0  0
 33 34  2  0  0  0
 34 35  1  0  0  0
 34 36  1  0  0  0
 36 37  2  0  0  0
 36 38  1  0  0  0
 38 39  1  0  0  0
 38 40  1  0  0  0
 38 41  1  0  0  0
  2  3  1  0  0  0
  3  4  1  0  0  0
  4  5  2  0  0  0
  5  6  1  0  0  0
  6  7  1  0  0  0
  7  8  1  0  0  0
  7  9  1  0  0  0
  9 10  2  0  0  0
  9 11  1  0  0  0
 11 15  1  0  0  0
 15 16  1  0  0  0
 16 17  2  0  0  0
 17 18  1  0  0  0
 18 19  1  0  0  0
 19 20  1  0  0  0
 19 21  2  0  0  0
 11 12  1  0  0  0
 12 13  2  0  0  0
 12 14  1  0  0  0
 30 26  1  0  0  0
 37 31  1  0  0  0
 14  3  1  0  0  0
 14  6  2  0  0  0
 21 16  1  0  0  0
 24 25  1  0  0  0
M  END
> <minimizedAffinity>
-7.67189

> <CNNscore>
0.2908923924

> <CNNaffinity>
6.6254577637

> <CNN_VS>
1.9272952080

> <CNNaffinity_variance>
0.1843124777

$$$$
[H]c1nc(C([H])([H])[H])c(C(F)(F)F)c([H])c1-c1nc(N([H])C(=O)[C@@]([H])(n2c([H])nc3c2c(=O)n(C([H])([H])c2noc(C([H])([H])[H])n2)c(=O)n3C([H])([H])[H])C([H])([H])[H])c([H])s1


 41 45  0  0  0  0  0  0  0  0999 V2000
  152.2637  136.5054  184.5563 C   0  0  0  0  0  0  0  0  0  0  0  0
  153.2013  136.8914  185.6371 C   0  0  0  0  0  0  0  0  0  0  0  0
  152.8385  136.5907  186.9778 N   0  0  0  0  0  0  0  0  0  0  0  0
  151.5591  136.4048  187.4474 C   0  0  0  0  0  0  0  0  0  0  0  0
  151.5429  136.1390  188.7342 N   0  0  0  0  0  0  0  0  0  0  0  0
  152.8216  136.1450  189.1380 C   0  0  0  0  0  0  0  0  0  0  0  0
  153.3572  135.9351  190.3385 N   0  0  0  0  0  0  0  0  0  0  0  0
  152.4671  135.6442  191.4508 C   0  0  0  0  0  0  0  0  0  0  0  0
  154.6928  135.9963  190.4918 C   0  0  0  0  0  0  0  0  0  0  0  0
  155.1430  135.7887  191.6520 O   0  0  0  0  0  0  0  0  0  0  0  0
  155.5142  136.2622  189.4769 N   0  0  0  0  0  0  0  0  0  0  0  0
  155.0042  136.4800  188.2471 C   0  0  0  0  0  0  0  0  0  0  0  0
  155.7669  136.7333  187.2734 O   0  0  0  0  0  0  0  0  0  0  0  0
  153.6443  136.4257  188.0521 C   0  0  0  0  0  0  0  0  0  0  0  0
  156.9453  136.3299  189.6308 C   0  0  0  0  0  0  0  0  0  0  0  0
  157.6199  135.0503  189.4150 C   0  0  0  0  0  0  0  0  0  0  0  0
  158.2985  134.6806  188.3038 N   0  0  0  0  0  0  0  0  0  0  0  0
  158.7645  133.4622  188.4811 O   0  0  0  0  0  0  0  0  0  0  0  0
  158.4303  133.0123  189.6443 C   0  0  0  0  0  0  0  0  0  0  0  0
  158.7455  131.6919  190.2481 C   0  0  0  0  0  0  0  0  0  0  0  0
  157.7177  133.9824  190.2440 N   0  0  0  0  0  0  0  0  0  0  0  0
  153.7886  138.2719  185.4967 C   0  0  0  0  0  0  0  0  0  0  0  0
  153.4568  139.1276  186.3070 O   0  0  0  0  0  0  0  0  0  0  0  0
  154.6750  138.4726  184.4495 N   0  0  0  0  0  0  0  0  0  0  0  0
  154.9224  137.6691  183.7706 H   0  0  0  0  0  0  0  0  0  0  0  0
  155.3396  139.7352  184.1671 C   0  0  0  0  0  0  0  0  0  0  0  0
  154.6685  140.8372  183.7212 C   0  0  0  0  0  0  0  0  0  0  0  0
  155.9558  141.9889  183.5750 S   0  0  0  0  0  0  0  0  0  0  0  0
  157.2353  140.9915  184.0867 C   0  0  0  0  0  0  0  0  0  0  0  0
  156.6317  139.8583  184.3371 N   0  0  0  0  0  0  0  0  0  0  0  0
  158.6800  141.3153  184.2200 C   0  0  0  0  0  0  0  0  0  0  0  0
  159.5526  140.9537  183.2400 C   0  0  0  0  0  0  0  0  0  0  0  0
  160.8799  141.2280  183.3185 N   0  0  0  0  0  0  0  0  0  0  0  0
  161.3480  141.8844  184.4117 C   0  0  0  0  0  0  0  0  0  0  0  0
  162.8044  142.1815  184.4893 C   0  0  0  0  0  0  0  0  0  0  0  0
  160.4663  142.2504  185.4032 C   0  0  0  0  0  0  0  0  0  0  0  0
  159.0936  141.9707  185.3296 C   0  0  0  0  0  0  0  0  0  0  0  0
  160.9555  142.9640  186.5993 C   0  0  0  0  0  0  0  0  0  0  0  0
  159.9468  143.1312  187.5304 F   0  0  0  0  0  0  0  0  0  0  0  0
  161.9639  142.2591  187.2521 F   0  0  0  0  0  0  0  0  0  0  0  0
  161.4699  144.2104  186.3019 F   0  0  0  0  0  0  0  0  0  0  0  0
  1  2  1  0  0  0
  2 22  1  0  0  0
 22 23  2  0  0  0
 22 24  1  0  0  0
 24 26  1  0  0  0
 26 27  2  0  0  0
 27 28  1  0  0  0
 28 29  1  0  0  0
 29 30  2  0  0  0
 29 31  1  0  0  0
 31 32  2  0  0  0
 32 33  1  0  0  0
 33 34  2  0  0  0
 34 35  1  0  0  0
 34 36  1  0  0  0
 36 37  2  0  0  0
 36 38  1  0  0  0
 38 39  1  0  0  0
 38 40  1  0  0  0
 38 41  1  0  0  0
  2  3  1  0  0  0
  3  4  1  0  0  0
  4  5  2  0  0  0
  5  6  1  0  0  0
  6  7  1  0  0  0
  7  8  1  0  0  0
  7  9  1  0  0  0
  9 10  2  0  0  0
  9 11  1  0  0  0
 11 15  1  0  0  0
 15 16  1  0  0  0
 16 17  2  0  0  0
 17 18  1  0  0  0
 18 19  1  0  0  0
 19 20  1  0  0  0
 19 21  2  0  0  0
 11 12  1  0  0  0
 12 13  2  0  0  0
 12 14  1  0  0  0
 30 26  1  0  0  0
 37 31  1  0  0  0
 14  3  1  0  0  0
 14  6  2  0  0  0
 21 16  1  0  0  0
 24 25  1  0  0  0
M  END
> <minimizedAffinity>
-8.44654

> <CNNscore>
0.2846607268

> <CNNaffinity>
6.9076523781

> <CNN_VS>
1.9663373232

> <CNNaffinity_variance>
0.3513456285

$$$$
[H]c1nc(C([H])([H])[H])c(C(F)(F)F)c([H])c1-c1nc(N([H])C(=O)[C@@]([H])(n2c([H])nc3c2c(=O)n(C([H])([H])c2noc(C([H])([H])[H])n2)c(=O)n3C([H])([H])[H])C([H])([H])[H])c([H])s1


 41 45  0  0  0  0  0  0  0  0999 V2000
  156.5438  137.5809  190.9750 C   0  0  0  0  0  0  0  0  0  0  0  0
  155.0838  137.6857  190.7428 C   0  0  0  0  0  0  0  0  0  0  0  0
  154.2413  136.6963  191.3177 N   0  0  0  0  0  0  0  0  0  0  0  0
  153.1425  136.9311  192.1112 C   0  0  0  0  0  0  0  0  0  0  0  0
  152.5651  135.8139  192.4921 N   0  0  0  0  0  0  0  0  0  0  0  0
  153.2789  134.8156  191.9517 C   0  0  0  0  0  0  0  0  0  0  0  0
  153.1239  133.4953  192.0238 N   0  0  0  0  0  0  0  0  0  0  0  0
  152.0138  132.9717  192.8034 C   0  0  0  0  0  0  0  0  0  0  0  0
  153.9873  132.6873  191.3815 C   0  0  0  0  0  0  0  0  0  0  0  0
  153.7905  131.4455  191.4858 O   0  0  0  0  0  0  0  0  0  0  0  0
  155.0065  133.1605  190.6654 N   0  0  0  0  0  0  0  0  0  0  0  0
  155.1923  134.4934  190.5717 C   0  0  0  0  0  0  0  0  0  0  0  0
  156.1524  134.9601  189.8976 O   0  0  0  0  0  0  0  0  0  0  0  0
  154.3303  135.3501  191.2145 C   0  0  0  0  0  0  0  0  0  0  0  0
  155.9363  132.3037  189.9742 C   0  0  0  0  0  0  0  0  0  0  0  0
  157.1509  132.0191  190.7377 C   0  0  0  0  0  0  0  0  0  0  0  0
  158.4114  131.9695  190.2472 N   0  0  0  0  0  0  0  0  0  0  0  0
  159.2360  131.6866  191.2338 O   0  0  0  0  0  0  0  0  0  0  0  0
  158.5885  131.5480  192.3421 C   0  0  0  0  0  0  0  0  0  0  0  0
  159.1250  131.2287  193.6903 C   0  0  0  0  0  0  0  0  0  0  0  0
  157.2894  131.7502  192.0589 N   0  0  0  0  0  0  0  0  0  0  0  0
  154.6950  138.0184  189.3255 C   0  0  0  0  0  0  0  0  0  0  0  0
  153.9237  138.9510  189.1403 O   0  0  0  0  0  0  0  0  0  0  0  0
  155.2491  137.2366  188.3234 N   0  0  0  0  0  0  0  0  0  0  0  0
  155.9245  136.4271  188.5609 H   0  0  0  0  0  0  0  0  0  0  0  0
  154.9908  137.4178  186.9035 C   0  0  0  0  0  0  0  0  0  0  0  0
  154.2897  136.5119  186.1609 C   0  0  0  0  0  0  0  0  0  0  0  0
  154.3113  137.2583  184.5965 S   0  0  0  0  0  0  0  0  0  0  0  0
  155.2008  138.6503  185.0021 C   0  0  0  0  0  0  0  0  0  0  0  0
  155.4311  138.4804  186.2785 N   0  0  0  0  0  0  0  0  0  0  0  0
  155.6175  139.7822  184.1331 C   0  0  0  0  0  0  0  0  0  0  0  0
  156.8459  139.7749  183.5471 C   0  0  0  0  0  0  0  0  0  0  0  0
  157.2693  140.7861  182.7462 N   0  0  0  0  0  0  0  0  0  0  0  0
  156.4373  141.8369  182.5253 C   0  0  0  0  0  0  0  0  0  0  0  0
  156.9092  142.9408  181.6457 C   0  0  0  0  0  0  0  0  0  0  0  0
  155.1949  141.8450  183.1177 C   0  0  0  0  0  0  0  0  0  0  0  0
  154.7500  140.8041  183.9463 C   0  0  0  0  0  0  0  0  0  0  0  0
  154.2763  142.9781  182.8904 C   0  0  0  0  0  0  0  0  0  0  0  0
  153.9194  143.5806  184.0828 F   0  0  0  0  0  0  0  0  0  0  0  0
  154.8619  143.9783  182.1180 F   0  0  0  0  0  0  0  0  0  0  0  0
  153.1174  142.6015  182.2411 F   0  0  0  0  0  0  0  0  0  0  0  0
  1  2  1  0  0  0
  2 22  1  0  0  0
 22 23  2  0  0  0
 22 24  1  0  0  0
 24 26  1  0  0  0
 26 27  2  0  0  0
 27 28  1  0  0  0
 28 29  1  0  0  0
 29 30  2  0  0  0
 29 31  1  0  0  0
 31 32  2  0  0  0
 32 33  1  0  0  0
 33 34  2  0  0  0
 34 35  1  0  0  0
 34 36  1  0  0  0
 36 37  2  0  0  0
 36 38  1  0  0  0
 38 39  1  0  0  0
 38 40  1  0  0  0
 38 41  1  0  0  0
  2  3  1  0  0  0
  3  4  1  0  0  0
  4  5  2  0  0  0
  5  6  1  0  0  0
  6  7  1  0  0  0
  7  8  1  0  0  0
  7  9  1  0  0  0
  9 10  2  0  0  0
  9 11  1  0  0  0
 11 15  1  0  0  0
 15 16  1  0  0  0
 16 17  2  0  0  0
 17 18  1  0  0  0
 18 19  1  0  0  0
 19 20  1  0  0  0
 19 21  2  0  0  0
 11 12  1  0  0  0
 12 13  2  0  0  0
 12 14  1  0  0  0
 30 26  1  0  0  0
 37 31  1  0  0  0
 14  3  1  0  0  0
 14  6  2  0  0  0
 21 16  1  0  0  0
 24 25  1  0  0  0
M  END
> <minimizedAffinity>
-7.76301

> <CNNscore>
0.2836357653

> <CNNaffinity>
6.4165863991

> <CNN_VS>
1.8199733496

> <CNNaffinity_variance>
0.1948845387

$$$$
[H]c1nc(C([H])([H])[H])c(C(F)(F)F)c([H])c1-c1nc(N([H])C(=O)[C@@]([H])(n2c([H])nc3c2c(=O)n(C([H])([H])c2noc(C([H])([H])[H])n2)c(=O)n3C([H])([H])[H])C([H])([H])[H])c([H])s1


 41 45  0  0  0  0  0  0  0  0999 V2000
  151.6143  135.4453  185.6050 C   0  0  0  0  0  0  0  0  0  0  0  0
  152.7962  135.1192  184.7725 C   0  0  0  0  0  0  0  0  0  0  0  0
  153.8973  134.4727  185.3962 N   0  0  0  0  0  0  0  0  0  0  0  0
  154.3016  133.1756  185.1812 C   0  0  0  0  0  0  0  0  0  0  0  0
  155.3533  132.8636  185.9044 N   0  0  0  0  0  0  0  0  0  0  0  0
  155.6629  133.9584  186.6141 C   0  0  0  0  0  0  0  0  0  0  0  0
  156.6356  134.1790  187.4958 N   0  0  0  0  0  0  0  0  0  0  0  0
  157.5588  133.0953  187.7915 C   0  0  0  0  0  0  0  0  0  0  0  0
  156.7398  135.3846  188.0847 C   0  0  0  0  0  0  0  0  0  0  0  0
  157.6810  135.5352  188.9115 O   0  0  0  0  0  0  0  0  0  0  0  0
  155.8974  136.3820  187.8183 N   0  0  0  0  0  0  0  0  0  0  0  0
  154.9003  136.1918  186.9297 C   0  0  0  0  0  0  0  0  0  0  0  0
  154.0925  137.1253  186.6645 O   0  0  0  0  0  0  0  0  0  0  0  0
  154.7624  134.9734  186.3081 C   0  0  0  0  0  0  0  0  0  0  0  0
  156.0006  137.6761  188.4435 C   0  0  0  0  0  0  0  0  0  0  0  0
  155.2932  137.7690  189.7204 C   0  0  0  0  0  0  0  0  0  0  0  0
  155.5270  138.6720  190.7011 N   0  0  0  0  0  0  0  0  0  0  0  0
  154.6934  138.4407  191.6935 O   0  0  0  0  0  0  0  0  0  0  0  0
  153.9272  137.4383  191.4195 C   0  0  0  0  0  0  0  0  0  0  0  0
  152.8519  136.8438  192.2549 C   0  0  0  0  0  0  0  0  0  0  0  0
  154.2813  137.0035  190.1972 N   0  0  0  0  0  0  0  0  0  0  0  0
  153.2298  136.2190  183.8381 C   0  0  0  0  0  0  0  0  0  0  0  0
  153.9822  135.9323  182.9158 O   0  0  0  0  0  0  0  0  0  0  0  0
  152.7357  137.4892  184.0929 N   0  0  0  0  0  0  0  0  0  0  0  0
  152.0738  137.6698  184.9279 H   0  0  0  0  0  0  0  0  0  0  0  0
  153.0432  138.6651  183.2938 C   0  0  0  0  0  0  0  0  0  0  0  0
  152.1811  139.1690  182.3630 C   0  0  0  0  0  0  0  0  0  0  0  0
  153.0763  140.5271  181.7637 S   0  0  0  0  0  0  0  0  0  0  0  0
  154.4636  140.3519  182.7323 C   0  0  0  0  0  0  0  0  0  0  0  0
  154.1817  139.2929  183.4465 N   0  0  0  0  0  0  0  0  0  0  0  0
  155.6934  141.1865  182.7674 C   0  0  0  0  0  0  0  0  0  0  0  0
  155.6335  142.5026  182.4256 C   0  0  0  0  0  0  0  0  0  0  0  0
  156.7300  143.3031  182.4427 N   0  0  0  0  0  0  0  0  0  0  0  0
  157.9229  142.7696  182.8135 C   0  0  0  0  0  0  0  0  0  0  0  0
  159.1195  143.6544  182.8300 C   0  0  0  0  0  0  0  0  0  0  0  0
  157.9841  141.4388  183.1593 C   0  0  0  0  0  0  0  0  0  0  0  0
  156.8560  140.6051  183.1442 C   0  0  0  0  0  0  0  0  0  0  0  0
  159.2713  140.8401  183.5646 C   0  0  0  0  0  0  0  0  0  0  0  0
  159.1801  139.4626  183.6443 F   0  0  0  0  0  0  0  0  0  0  0  0
  160.2824  141.1026  182.6435 F   0  0  0  0  0  0  0  0  0  0  0  0
  159.7145  141.3078  184.7858 F   0  0  0  0  0  0  0  0  0  0  0  0
  1  2  1  0  0  0
  2 22  1  0  0  0
 22 23  2  0  0  0
 22 24  1  0  0  0
 24 26  1  0  0  0
 26 27  2  0  0  0
 27 28  1  0  0  0
 28 29  1  0  0  0
 29 30  2  0  0  0
 29 31  1  0  0  0
 31 32  2  0  0  0
 32 33  1  0  0  0
 33 34  2  0  0  0
 34 35  1  0  0  0
 34 36  1  0  0  0
 36 37  2  0  0  0
 36 38  1  0  0  0
 38 39  1  0  0  0
 38 40  1  0  0  0
 38 41  1  0  0  0
  2  3  1  0  0  0
  3  4  1  0  0  0
  4  5  2  0  0  0
  5  6  1  0  0  0
  6  7  1  0  0  0
  7  8  1  0  0  0
  7  9  1  0  0  0
  9 10  2  0  0  0
  9 11  1  0  0  0
 11 15  1  0  0  0
 15 16  1  0  0  0
 16 17  2  0  0  0
 17 18  1  0  0  0
 18 19  1  0  0  0
 19 20  1  0  0  0
 19 21  2  0  0  0
 11 12  1  0  0  0
 12 13  2  0  0  0
 12 14  1  0  0  0
 30 26  1  0  0  0
 37 31  1  0  0  0
 14  3  1  0  0  0
 14  6  2  0  0  0
 21 16  1  0  0  0
 24 25  1  0  0  0
M  END
> <minimizedAffinity>
-7.70673

> <CNNscore>
0.2815537453

> <CNNaffinity>
6.8004393578

> <CNN_VS>
1.9146891832

> <CNNaffinity_variance>
0.3680317402

$$$$
[H]c1c(C#N)sc(-c2nn([H])c3c([H])c(OC(F)(F)F)c([H])c([H])c23)c1[H]


 22 24  0  0  0  0  0  0  0  0999 V2000
  153.7163  136.8278  188.5340 C   0  0  0  0  0  0  0  0  0  0  0  0
  153.4090  137.7630  187.5732 C   0  0  0  0  0  0  0  0  0  0  0  0
  152.1524  137.8213  186.9713 C   0  0  0  0  0  0  0  0  0  0  0  0
  151.2102  136.9164  187.3580 C   0  0  0  0  0  0  0  0  0  0  0  0
  149.9343  136.7120  186.9797 C   0  0  0  0  0  0  0  0  0  0  0  0
  149.4865  135.6566  187.7159 N   0  0  0  0  0  0  0  0  0  0  0  0
  150.3949  135.2023  188.5151 N   0  0  0  0  0  0  0  0  0  0  0  0
  151.4936  135.9517  188.3343 C   0  0  0  0  0  0  0  0  0  0  0  0
  152.7545  135.9389  188.8979 C   0  0  0  0  0  0  0  0  0  0  0  0
  150.2871  134.4031  189.1740 H   0  0  0  0  0  0  0  0  0  0  0  0
  149.0469  137.3773  186.0031 C   0  0  0  0  0  0  0  0  0  0  0  0
  148.0783  138.3093  186.1156 C   0  0  0  0  0  0  0  0  0  0  0  0
  147.4371  138.7166  184.9897 C   0  0  0  0  0  0  0  0  0  0  0  0
  147.8203  138.1506  183.8153 C   0  0  0  0  0  0  0  0  0  0  0  0
  149.0461  137.0789  184.2900 S   0  0  0  0  0  0  0  0  0  0  0  0
  147.2967  138.4106  182.4797 C   0  0  0  0  0  0  0  0  0  0  0  0
  146.8673  138.6189  181.4325 N   0  0  0  0  0  0  0  0  0  0  0  0
  154.9831  136.7988  189.1145 O   0  0  0  0  0  0  0  0  0  0  0  0
  156.1449  138.4740  188.1254 F   0  0  0  0  0  0  0  0  0  0  0  0
  155.6279  138.0389  189.3217 C   0  0  0  0  0  0  0  0  0  0  0  0
  156.6130  137.9416  190.2793 F   0  0  0  0  0  0  0  0  0  0  0  0
  154.6750  138.9608  189.7468 F   0  0  0  0  0  0  0  0  0  0  0  0
 19 20  1  0  0  0
 20 21  1  0  0  0
 20 22  1  0  0  0
 20 18  1  0  0  0
 18  1  1  0  0  0
  1  2  2  0  0  0
  2  3  1  0  0  0
  3  4  2  0  0  0
  4  5  1  0  0  0
  5  6  2  0  0  0
  6  7  1  0  0  0
  7  8  1  0  0  0
  8  9  2  0  0  0
  5 11  1  0  0  0
 11 12  2  0  0  0
 12 13  1  0  0  0
 13 14  2  0  0  0
 14 15  1  0  0  0
 14 16  1  0  0  0
 16 17  3  0  0  0
  9  1  1  0  0  0
 15 11  1  0  0  0
  8  4  1  0  0  0
  7 10  1  0  0  0
M  END
> <minimizedAffinity>
-4.59928

> <CNNscore>
0.5294219255

> <CNNaffinity>
4.9772458076

> <CNN_VS>
2.6350631714

> <CNNaffinity_variance>
0.1254840791

$$$$
[H]c1c(C#N)sc(-c2nn([H])c3c([H])c(OC(F)(F)F)c([H])c([H])c23)c1[H]


 22 24  0  0  0  0  0  0  0  0999 V2000
  157.7622  134.6894  188.3312 C   0  0  0  0  0  0  0  0  0  0  0  0
  157.0327  135.7744  188.7583 C   0  0  0  0  0  0  0  0  0  0  0  0
  156.0173  135.6575  189.7070 C   0  0  0  0  0  0  0  0  0  0  0  0
  155.7516  134.4226  190.2174 C   0  0  0  0  0  0  0  0  0  0  0  0
  154.8583  133.9849  191.1247 C   0  0  0  0  0  0  0  0  0  0  0  0
  155.0588  132.6418  191.2348 N   0  0  0  0  0  0  0  0  0  0  0  0
  156.0081  132.2279  190.4617 N   0  0  0  0  0  0  0  0  0  0  0  0
  156.4777  133.2982  189.8018 C   0  0  0  0  0  0  0  0  0  0  0  0
  157.4727  133.4709  188.8595 C   0  0  0  0  0  0  0  0  0  0  0  0
  156.3412  131.2453  190.3727 H   0  0  0  0  0  0  0  0  0  0  0  0
  153.8150  134.6572  191.9269 C   0  0  0  0  0  0  0  0  0  0  0  0
  153.7891  135.8000  192.6429 C   0  0  0  0  0  0  0  0  0  0  0  0
  152.6384  136.1399  193.2794 C   0  0  0  0  0  0  0  0  0  0  0  0
  151.5817  135.2956  193.1492 C   0  0  0  0  0  0  0  0  0  0  0  0
  152.1973  134.0635  192.1594 S   0  0  0  0  0  0  0  0  0  0  0  0
  150.2491  135.4287  193.7253 C   0  0  0  0  0  0  0  0  0  0  0  0
  149.1977  135.5167  194.1850 N   0  0  0  0  0  0  0  0  0  0  0  0
  158.7704  134.8433  187.3812 O   0  0  0  0  0  0  0  0  0  0  0  0
  160.9389  135.4823  187.2280 F   0  0  0  0  0  0  0  0  0  0  0  0
  160.0924  134.5569  187.7891 C   0  0  0  0  0  0  0  0  0  0  0  0
  160.4612  133.2760  187.4423 F   0  0  0  0  0  0  0  0  0  0  0  0
  160.1599  134.6864  189.1738 F   0  0  0  0  0  0  0  0  0  0  0  0
 19 20  1  0  0  0
 20 21  1  0  0  0
 20 22  1  0  0  0
 20 18  1  0  0  0
 18  1  1  0  0  0
  1  2  2  0  0  0
  2  3  1  0  0  0
  3  4  2  0  0  0
  4  5  1  0  0  0
  5  6  2  0  0  0
  6  7  1  0  0  0
  7  8  1  0  0  0
  8  9  2  0  0  0
  5 11  1  0  0  0
 11 12  2  0  0  0
 12 13  1  0  0  0
 13 14  2  0  0  0
 14 15  1  0  0  0
 14 16  1  0  0  0
 16 17  3  0  0  0
  9  1  1  0  0  0
 15 11  1  0  0  0
  8  4  1  0  0  0
  7 10  1  0  0  0
M  END
> <minimizedAffinity>
-4.75378

> <CNNscore>
0.4433993101

> <CNNaffinity>
4.8848333359

> <CNN_VS>
2.1659317017

> <CNNaffinity_variance>
0.4104513228

$$$$
[H]c1c(C#N)sc(-c2nn([H])c3c([H])c(OC(F)(F)F)c([H])c([H])c23)c1[H]


 22 24  0  0  0  0  0  0  0  0999 V2000
  155.7105  137.5422  188.6946 C   0  0  0  0  0  0  0  0  0  0  0  0
  155.2308  138.0543  187.5115 C   0  0  0  0  0  0  0  0  0  0  0  0
  154.8936  137.2369  186.4332 C   0  0  0  0  0  0  0  0  0  0  0  0
  155.0500  135.8906  186.5716 C   0  0  0  0  0  0  0  0  0  0  0  0
  154.8213  134.8568  185.7398 C   0  0  0  0  0  0  0  0  0  0  0  0
  155.1654  133.7335  186.4300 N   0  0  0  0  0  0  0  0  0  0  0  0
  155.5869  134.0057  187.6209 N   0  0  0  0  0  0  0  0  0  0  0  0
  155.5365  135.3393  187.7647 C   0  0  0  0  0  0  0  0  0  0  0  0
  155.8551  136.1949  188.8011 C   0  0  0  0  0  0  0  0  0  0  0  0
  155.9049  133.3139  188.3313 H   0  0  0  0  0  0  0  0  0  0  0  0
  154.3141  134.7621  184.3551 C   0  0  0  0  0  0  0  0  0  0  0  0
  153.3463  135.4116  183.6761 C   0  0  0  0  0  0  0  0  0  0  0  0
  153.1274  135.0747  182.3786 C   0  0  0  0  0  0  0  0  0  0  0  0
  153.9072  134.0960  181.8492 C   0  0  0  0  0  0  0  0  0  0  0  0
  154.9151  133.6683  183.1444 S   0  0  0  0  0  0  0  0  0  0  0  0
  153.8746  133.5551  180.4957 C   0  0  0  0  0  0  0  0  0  0  0  0
  153.8507  133.1117  179.4339 N   0  0  0  0  0  0  0  0  0  0  0  0
  156.0375  138.3893  189.7520 O   0  0  0  0  0  0  0  0  0  0  0  0
  155.1002  139.5680  191.4451 F   0  0  0  0  0  0  0  0  0  0  0  0
  155.2408  138.3077  190.9160 C   0  0  0  0  0  0  0  0  0  0  0  0
  155.7837  137.4421  191.8395 F   0  0  0  0  0  0  0  0  0  0  0  0
  153.9797  137.8445  190.5504 F   0  0  0  0  0  0  0  0  0  0  0  0
 19 20  1  0  0  0
 20 21  1  0  0  0
 20 22  1  0  0  0
 20 18  1  0  0  0
 18  1  1  0  0  0
  1  2  2  0  0  0
  2  3  1  0  0  0
  3  4  2  0  0  0
  4  5  1  0  0  0
  5  6  2  0  0  0
  6  7  1  0  0  0
  7  8  1  0  0  0
  8  9  2  0  0  0
  5 11  1  0  0  0
 11 12  2  0  0  0
 12 13  1  0  0  0
 13 14  2  0  0  0
 14 15  1  0  0  0
 14 16  1  0  0  0
 16 17  3  0  0  0
  9  1  1  0  0  0
 15 11  1  0  0  0
  8  4  1  0  0  0
  7 10  1  0  0  0
M  END
> <minimizedAffinity>
-4.40846

> <CNNscore>
0.4120952785

> <CNNaffinity>
4.8149471283

> <CNN_VS>
1.9842169285

> <CNNaffinity_variance>
0.2349682152

$$$$
[H]c1c(C#N)sc(-c2nn([H])c3c([H])c(OC(F)(F)F)c([H])c([H])c23)c1[H]


 22 24  0  0  0  0  0  0  0  0999 V2000
  154.0762  137.5722  189.7089 C   0  0  0  0  0  0  0  0  0  0  0  0
  154.2275  138.4045  188.6244 C   0  0  0  0  0  0  0  0  0  0  0  0
  153.5506  138.1882  187.4245 C   0  0  0  0  0  0  0  0  0  0  0  0
  152.7169  137.1142  187.3396 C   0  0  0  0  0  0  0  0  0  0  0  0
  151.9390  136.6410  186.3477 C   0  0  0  0  0  0  0  0  0  0  0  0
  151.3277  135.5294  186.8447 N   0  0  0  0  0  0  0  0  0  0  0  0
  151.6752  135.2895  188.0661 N   0  0  0  0  0  0  0  0  0  0  0  0
  152.5423  136.2481  188.4277 C   0  0  0  0  0  0  0  0  0  0  0  0
  153.2372  136.5092  189.5924 C   0  0  0  0  0  0  0  0  0  0  0  0
  151.3405  134.4978  188.6541 H   0  0  0  0  0  0  0  0  0  0  0  0
  151.6758  137.0882  184.9641 C   0  0  0  0  0  0  0  0  0  0  0  0
  150.5646  137.1353  184.2008 C   0  0  0  0  0  0  0  0  0  0  0  0
  150.6682  137.6158  182.9346 C   0  0  0  0  0  0  0  0  0  0  0  0
  151.8976  138.0199  182.5203 C   0  0  0  0  0  0  0  0  0  0  0  0
  152.8724  137.7293  183.8775 S   0  0  0  0  0  0  0  0  0  0  0  0
  152.2730  138.5680  181.2226 C   0  0  0  0  0  0  0  0  0  0  0  0
  152.5587  139.0145  180.2011 N   0  0  0  0  0  0  0  0  0  0  0  0
  154.7688  137.8189  190.8931 O   0  0  0  0  0  0  0  0  0  0  0  0
  156.3127  136.4108  190.0168 F   0  0  0  0  0  0  0  0  0  0  0  0
  156.1152  137.3949  190.9550 C   0  0  0  0  0  0  0  0  0  0  0  0
  156.4464  136.9494  192.2154 F   0  0  0  0  0  0  0  0  0  0  0  0
  156.9291  138.4771  190.6308 F   0  0  0  0  0  0  0  0  0  0  0  0
 19 20  1  0  0  0
 20 21  1  0  0  0
 20 22  1  0  0  0
 20 18  1  0  0  0
 18  1  1  0  0  0
  1  2  2  0  0  0
  2  3  1  0  0  0
  3  4  2  0  0  0
  4  5  1  0  0  0
  5  6  2  0  0  0
  6  7  1  0  0  0
  7  8  1  0  0  0
  8  9  2  0  0  0
  5 11  1  0  0  0
 11 12  2  0  0  0
 12 13  1  0  0  0
 13 14  2  0  0  0
 14 15  1  0  0  0
 14 16  1  0  0  0
 16 17  3  0  0  0
  9  1  1  0  0  0
 15 11  1  0  0  0
  8  4  1  0  0  0
  7 10  1  0  0  0
M  END
> <minimizedAffinity>
-5.26979

> <CNNscore>
0.4104268849

> <CNNaffinity>
4.9633064270

> <CNN_VS>
2.0370743275

> <CNNaffinity_variance>
0.1862960309

$$$$
[H]c1c(C#N)sc(-c2nn([H])c3c([H])c(OC(F)(F)F)c([H])c([H])c23)c1[H]


 22 24  0  0  0  0  0  0  0  0999 V2000
  153.2100  136.8363  187.2229 C   0  0  0  0  0  0  0  0  0  0  0  0
  153.6714  137.2943  186.0108 C   0  0  0  0  0  0  0  0  0  0  0  0
  152.8270  137.4686  184.9147 C   0  0  0  0  0  0  0  0  0  0  0  0
  151.5061  137.1714  185.0653 C   0  0  0  0  0  0  0  0  0  0  0  0
  150.4575  137.2294  184.2226 C   0  0  0  0  0  0  0  0  0  0  0  0
  149.3762  136.8061  184.9353 N   0  0  0  0  0  0  0  0  0  0  0  0
  149.6877  136.4941  186.1502 N   0  0  0  0  0  0  0  0  0  0  0  0
  151.0064  136.7028  186.2880 C   0  0  0  0  0  0  0  0  0  0  0  0
  151.8868  136.5485  187.3410 C   0  0  0  0  0  0  0  0  0  0  0  0
  149.0321  136.1463  186.8807 H   0  0  0  0  0  0  0  0  0  0  0  0
  150.3139  137.6340  182.8086 C   0  0  0  0  0  0  0  0  0  0  0  0
  151.1084  138.3085  181.9523 C   0  0  0  0  0  0  0  0  0  0  0  0
  150.6654  138.5178  180.6855 C   0  0  0  0  0  0  0  0  0  0  0  0
  149.4391  138.0278  180.3655 C   0  0  0  0  0  0  0  0  0  0  0  0
  148.9318  137.2961  181.8091 S   0  0  0  0  0  0  0  0  0  0  0  0
  148.7415  138.1164  179.0884 C   0  0  0  0  0  0  0  0  0  0  0  0
  148.2056  138.1810  178.0720 N   0  0  0  0  0  0  0  0  0  0  0  0
  154.0828  136.6740  188.2975 O   0  0  0  0  0  0  0  0  0  0  0  0
  153.6572  138.8794  188.5968 F   0  0  0  0  0  0  0  0  0  0  0  0
  154.4433  137.8344  189.0185 C   0  0  0  0  0  0  0  0  0  0  0  0
  155.7800  138.1287  188.8653 F   0  0  0  0  0  0  0  0  0  0  0  0
  154.1828  137.6087  190.3675 F   0  0  0  0  0  0  0  0  0  0  0  0
 19 20  1  0  0  0
 20 21  1  0  0  0
 20 22  1  0  0  0
 20 18  1  0  0  0
 18  1  1  0  0  0
  1  2  2  0  0  0
  2  3  1  0  0  0
  3  4  2  0  0  0
  4  5  1  0  0  0
  5  6  2  0  0  0
  6  7  1  0  0  0
  7  8  1  0  0  0
  8  9  2  0  0  0
  5 11  1  0  0  0
 11 12  2  0  0  0
 12 13  1  0  0  0
 13 14  2  0  0  0
 14 15  1  0  0  0
 14 16  1  0  0  0
 16 17  3  0  0  0
  9  1  1  0  0  0
 15 11  1  0  0  0
  8  4  1  0  0  0
  7 10  1  0  0  0
M  END
> <minimizedAffinity>
-4.23034

> <CNNscore>
0.4062622786

> <CNNaffinity>
4.9530353546

> <CNN_VS>
2.0122313499

> <CNNaffinity_variance>
0.2831000984

$$$$
[H]c1c(C#N)sc(-c2nn([H])c3c([H])c(OC(F)(F)F)c([H])c([H])c23)c1[H]


 22 24  0  0  0  0  0  0  0  0999 V2000
  154.1489  137.8125  189.7606 C   0  0  0  0  0  0  0  0  0  0  0  0
  154.1120  138.4682  188.5520 C   0  0  0  0  0  0  0  0  0  0  0  0
  153.1811  138.1488  187.5640 C   0  0  0  0  0  0  0  0  0  0  0  0
  152.2867  137.1535  187.8192 C   0  0  0  0  0  0  0  0  0  0  0  0
  151.2868  136.6190  187.0929 C   0  0  0  0  0  0  0  0  0  0  0  0
  150.7321  135.6477  187.8708 N   0  0  0  0  0  0  0  0  0  0  0  0
  151.3197  135.5501  189.0178 N   0  0  0  0  0  0  0  0  0  0  0  0
  152.2995  136.4672  189.0412 C   0  0  0  0  0  0  0  0  0  0  0  0
  153.2431  136.8242  189.9845 C   0  0  0  0  0  0  0  0  0  0  0  0
  151.0733  134.8819  189.7775 H   0  0  0  0  0  0  0  0  0  0  0  0
  150.7588  136.8908  185.7397 C   0  0  0  0  0  0  0  0  0  0  0  0
  151.3344  136.9991  184.5246 C   0  0  0  0  0  0  0  0  0  0  0  0
  150.5420  137.2626  183.4534 C   0  0  0  0  0  0  0  0  0  0  0  0
  149.2099  137.4003  183.6829 C   0  0  0  0  0  0  0  0  0  0  0  0
  149.0846  137.1647  185.3578 S   0  0  0  0  0  0  0  0  0  0  0  0
  148.1560  137.6820  182.7157 C   0  0  0  0  0  0  0  0  0  0  0  0
  147.3127  137.9070  181.9655 N   0  0  0  0  0  0  0  0  0  0  0  0
  155.0936  138.1583  190.7254 O   0  0  0  0  0  0  0  0  0  0  0  0
  156.7175  137.1106  191.9084 F   0  0  0  0  0  0  0  0  0  0  0  0
  156.3555  137.5272  190.6501 C   0  0  0  0  0  0  0  0  0  0  0  0
  157.3078  138.3656  190.1143 F   0  0  0  0  0  0  0  0  0  0  0  0
  156.2340  136.4040  189.8363 F   0  0  0  0  0  0  0  0  0  0  0  0
 19 20  1  0  0  0
 20 21  1  0  0  0
 20 22  1  0  0  0
 20 18  1  0  0  0
 18  1  1  0  0  0
  1  2  2  0  0  0
  2  3  1  0  0  0
  3  4  2  0  0  0
  4  5  1  0  0  0
  5  6  2  0  0  0
  6  7  1  0  0  0
  7  8  1  0  0  0
  8  9  2  0  0  0
  5 11  1  0  0  0
 11 12  2  0  0  0
 12 13  1  0  0  0
 13 14  2  0  0  0
 14 15  1  0  0  0
 14 16  1  0  0  0
 16 17  3  0  0  0
  9  1  1  0  0  0
 15 11  1  0  0  0
  8  4  1  0  0  0
  7 10  1  0  0  0
M  END
> <minimizedAffinity>
-5.01739

> <CNNscore>
0.3955477476

> <CNNaffinity>
4.8689546585

> <CNN_VS>
1.9259040356

> <CNNaffinity_variance>
0.1557696760

$$$$
[H]c1c(C#N)sc(-c2nn([H])c3c([H])c(OC(F)(F)F)c([H])c([H])c23)c1[H]


 22 24  0  0  0  0  0  0  0  0999 V2000
  152.0401  138.7888  180.9220 C   0  0  0  0  0  0  0  0  0  0  0  0
  151.9181  137.8073  181.8779 C   0  0  0  0  0  0  0  0  0  0  0  0
  152.5524  137.8967  183.1166 C   0  0  0  0  0  0  0  0  0  0  0  0
  153.3134  138.9972  183.3728 C   0  0  0  0  0  0  0  0  0  0  0  0
  154.0368  139.3752  184.4437 C   0  0  0  0  0  0  0  0  0  0  0  0
  154.5865  140.5797  184.1221 N   0  0  0  0  0  0  0  0  0  0  0  0
  154.2521  140.9641  182.9344 N   0  0  0  0  0  0  0  0  0  0  0  0
  153.4567  140.0139  182.4188 C   0  0  0  0  0  0  0  0  0  0  0  0
  152.8064  139.8743  181.2083 C   0  0  0  0  0  0  0  0  0  0  0  0
  154.5484  141.8481  182.4704 H   0  0  0  0  0  0  0  0  0  0  0  0
  154.2970  138.7581  185.7610 C   0  0  0  0  0  0  0  0  0  0  0  0
  155.4047  138.2620  186.3495 C   0  0  0  0  0  0  0  0  0  0  0  0
  155.2990  137.7529  187.6043 C   0  0  0  0  0  0  0  0  0  0  0  0
  154.0712  137.7791  188.1858 C   0  0  0  0  0  0  0  0  0  0  0  0
  153.1007  138.4999  186.9962 S   0  0  0  0  0  0  0  0  0  0  0  0
  153.6941  137.3008  189.5104 C   0  0  0  0  0  0  0  0  0  0  0  0
  153.3793  136.9234  190.5510 N   0  0  0  0  0  0  0  0  0  0  0  0
  151.3916  138.6663  179.6943 O   0  0  0  0  0  0  0  0  0  0  0  0
  150.9070  140.6758  178.7660 F   0  0  0  0  0  0  0  0  0  0  0  0
  150.3623  139.5920  179.4116 C   0  0  0  0  0  0  0  0  0  0  0  0
  149.7033  139.9795  180.5572 F   0  0  0  0  0  0  0  0  0  0  0  0
  149.4521  138.9836  178.5514 F   0  0  0  0  0  0  0  0  0  0  0  0
 19 20  1  0  0  0
 20 21  1  0  0  0
 20 22  1  0  0  0
 20 18  1  0  0  0
 18  1  1  0  0  0
  1  2  2  0  0  0
  2  3  1  0  0  0
  3  4  2  0  0  0
  4  5  1  0  0  0
  5  6  2  0  0  0
  6  7  1  0  0  0
  7  8  1  0  0  0
  8  9  2  0  0  0
  5 11  1  0  0  0
 11 12  2  0  0  0
 12 13  1  0  0  0
 13 14  2  0  0  0
 14 15  1  0  0  0
 14 16  1  0  0  0
 16 17  3  0  0  0
  9  1  1  0  0  0
 15 11  1  0  0  0
  8  4  1  0  0  0
  7 10  1  0  0  0
M  END
> <minimizedAffinity>
-5.95680

> <CNNscore>
0.3813393414

> <CNNaffinity>
4.9406208992

> <CNN_VS>
1.8840531111

> <CNNaffinity_variance>
0.1960956156

$$$$
[H]c1c(C#N)sc(-c2nn([H])c3c([H])c(OC(F)(F)F)c([H])c([H])c23)c1[H]


 22 24  0  0  0  0  0  0  0  0999 V2000
  155.8940  141.2552  183.8187 C   0  0  0  0  0  0  0  0  0  0  0  0
  155.2931  141.8153  182.7155 C   0  0  0  0  0  0  0  0  0  0  0  0
  154.2266  141.2003  182.0605 C   0  0  0  0  0  0  0  0  0  0  0  0
  153.7774  140.0071  182.5407 C   0  0  0  0  0  0  0  0  0  0  0  0
  152.7919  139.1791  182.1455 C   0  0  0  0  0  0  0  0  0  0  0  0
  152.8094  138.1295  183.0141 N   0  0  0  0  0  0  0  0  0  0  0  0
  153.7325  138.2561  183.9097 N   0  0  0  0  0  0  0  0  0  0  0  0
  154.3694  139.4115  183.6628 C   0  0  0  0  0  0  0  0  0  0  0  0
  155.4226  140.0641  184.2732 C   0  0  0  0  0  0  0  0  0  0  0  0
  153.9381  137.5828  184.6770 H   0  0  0  0  0  0  0  0  0  0  0  0
  151.8083  139.2263  181.0437 C   0  0  0  0  0  0  0  0  0  0  0  0
  151.6810  140.0019  179.9474 C   0  0  0  0  0  0  0  0  0  0  0  0
  150.6328  139.7778  179.1133 C   0  0  0  0  0  0  0  0  0  0  0  0
  149.7759  138.7768  179.4449 C   0  0  0  0  0  0  0  0  0  0  0  0
  150.4325  138.1744  180.8880 S   0  0  0  0  0  0  0  0  0  0  0  0
  148.5857  138.3381  178.7261 C   0  0  0  0  0  0  0  0  0  0  0  0
  147.6388  138.0077  178.1616 N   0  0  0  0  0  0  0  0  0  0  0  0
  156.9581  141.8983  184.4487 O   0  0  0  0  0  0  0  0  0  0  0  0
  159.0908  142.5407  184.0321 F   0  0  0  0  0  0  0  0  0  0  0  0
  158.2611  141.4504  184.1356 C   0  0  0  0  0  0  0  0  0  0  0  0
  158.2743  140.7077  182.9758 F   0  0  0  0  0  0  0  0  0  0  0  0
  158.7135  140.6555  185.1854 F   0  0  0  0  0  0  0  0  0  0  0  0
 19 20  1  0  0  0
 20 21  1  0  0  0
 20 22  1  0  0  0
 20 18  1  0  0  0
 18  1  1  0  0  0
  1  2  2  0  0  0
  2  3  1  0  0  0
  3  4  2  0  0  0
  4  5  1  0  0  0
  5  6  2  0  0  0
  6  7  1  0  0  0
  7  8  1  0  0  0
  8  9  2  0  0  0
  5 11  1  0  0  0
 11 12  2  0  0  0
 12 13  1  0  0  0
 13 14  2  0  0  0
 14 15  1  0  0  0
 14 16  1  0  0  0
 16 17  3  0  0  0
  9  1  1  0  0  0
 15 11  1  0  0  0
  8  4  1  0  0  0
  7 10  1  0  0  0
M  END
> <minimizedAffinity>
-6.82171

> <CNNscore>
0.3443499804

> <CNNaffinity>
5.2213788033

> <CNN_VS>
1.7979817390

> <CNNaffinity_variance>
0.0935030803

$$$$
[H]c1c(C#N)sc(-c2nn([H])c3c([H])c(OC(F)(F)F)c([H])c([H])c23)c1[H]


 22 24  0  0  0  0  0  0  0  0999 V2000
  154.5187  138.1826  188.4549 C   0  0  0  0  0  0  0  0  0  0  0  0
  155.2755  137.8953  187.3428 C   0  0  0  0  0  0  0  0  0  0  0  0
  154.7161  137.3545  186.1855 C   0  0  0  0  0  0  0  0  0  0  0  0
  153.3762  137.1087  186.1718 C   0  0  0  0  0  0  0  0  0  0  0  0
  152.5523  136.6039  185.2341 C   0  0  0  0  0  0  0  0  0  0  0  0
  151.3087  136.5925  185.7905 N   0  0  0  0  0  0  0  0  0  0  0  0
  151.3131  137.0528  186.9981 N   0  0  0  0  0  0  0  0  0  0  0  0
  152.5790  137.3908  187.2894 C   0  0  0  0  0  0  0  0  0  0  0  0
  153.1847  137.9258  188.4095 C   0  0  0  0  0  0  0  0  0  0  0  0
  150.4847  137.1418  187.6228 H   0  0  0  0  0  0  0  0  0  0  0  0
  152.7630  136.1168  183.8549 C   0  0  0  0  0  0  0  0  0  0  0  0
  152.2481  136.4688  182.6588 C   0  0  0  0  0  0  0  0  0  0  0  0
  152.6659  135.8017  181.5519 C   0  0  0  0  0  0  0  0  0  0  0  0
  153.5835  134.8153  181.7285 C   0  0  0  0  0  0  0  0  0  0  0  0
  153.8452  134.8326  183.4041 S   0  0  0  0  0  0  0  0  0  0  0  0
  154.1877  133.9585  180.7153 C   0  0  0  0  0  0  0  0  0  0  0  0
  154.6802  133.2906  179.9179 N   0  0  0  0  0  0  0  0  0  0  0  0
  155.1116  138.7229  189.5948 O   0  0  0  0  0  0  0  0  0  0  0  0
  155.9439  138.1923  191.6344 F   0  0  0  0  0  0  0  0  0  0  0  0
  156.0315  137.9087  190.2928 C   0  0  0  0  0  0  0  0  0  0  0  0
  157.3167  138.0904  189.8324 F   0  0  0  0  0  0  0  0  0  0  0  0
  155.6683  136.5781  190.1031 F   0  0  0  0  0  0  0  0  0  0  0  0
 19 20  1  0  0  0
 20 21  1  0  0  0
 20 22  1  0  0  0
 20 18  1  0  0  0
 18  1  1  0  0  0
  1  2  2  0  0  0
  2  3  1  0  0  0
  3  4  2  0  0  0
  4  5  1  0  0  0
  5  6  2  0  0  0
  6  7  1  0  0  0
  7  8  1  0  0  0
  8  9  2  0  0  0
  5 11  1  0  0  0
 11 12  2  0  0  0
 12 13  1  0  0  0
 13 14  2  0  0  0
 14 15  1  0  0  0
 14 16  1  0  0  0
 16 17  3  0  0  0
  9  1  1  0  0  0
 15 11  1  0  0  0
  8  4  1  0  0  0
  7 10  1  0  0  0
M  END
> <minimizedAffinity>
-4.47987

> <CNNscore>
0.3324975967

> <CNNaffinity>
4.7197089195

> <CNN_VS>
1.5692918301

> <CNNaffinity_variance>
0.1549422443

$$$$
[H]C1=Nc2c([H])c([H])c([H])c([H])c2Sc2c([H])c([H])c([H])c([H])c21


 15 17  0  0  0  0  0  0  0  0999 V2000
  154.4622  135.2884  192.2429 S   0  0  0  0  0  0  0  0  0  0  0  0
  152.7316  135.5424  192.6705 C   0  0  0  0  0  0  0  0  0  0  0  0
  152.5152  135.3076  194.0116 C   0  0  0  0  0  0  0  0  0  0  0  0
  151.2619  135.4402  194.5689 C   0  0  0  0  0  0  0  0  0  0  0  0
  150.2316  135.8169  193.7343 C   0  0  0  0  0  0  0  0  0  0  0  0
  150.4521  136.0509  192.3930 C   0  0  0  0  0  0  0  0  0  0  0  0
  151.7184  135.9193  191.8184 C   0  0  0  0  0  0  0  0  0  0  0  0
  151.7491  136.2045  190.4081 C   0  0  0  0  0  0  0  0  0  0  0  0
  152.7140  136.6476  189.6800 N   0  0  0  0  0  0  0  0  0  0  0  0
  154.0486  137.0113  189.9474 C   0  0  0  0  0  0  0  0  0  0  0  0
  154.5476  137.9624  189.0650 C   0  0  0  0  0  0  0  0  0  0  0  0
  155.8389  138.4027  189.2156 C   0  0  0  0  0  0  0  0  0  0  0  0
  156.6228  137.9038  190.2296 C   0  0  0  0  0  0  0  0  0  0  0  0
  156.1326  136.9537  191.1155 C   0  0  0  0  0  0  0  0  0  0  0  0
  154.8355  136.5061  190.9707 C   0  0  0  0  0  0  0  0  0  0  0  0
  1  2  1  0  0  0
  2  3  2  0  0  0
  3  4  1  0  0  0
  4  5  2  0  0  0
  5  6  1  0  0  0
  6  7  2  0  0  0
  7  8  1  0  0  0
  8  9  2  0  0  0
  9 10  1  0  0  0
 10 11  2  0  0  0
 11 12  1  0  0  0
 12 13  2  0  0  0
 13 14  1  0  0  0
 14 15  2  0  0  0
 15  1  1  0  0  0
  7  2  1  0  0  0
 15 10  1  0  0  0
M  END
> <minimizedAffinity>
-5.36738

> <CNNscore>
0.6239752769

> <CNNaffinity>
4.2216267586

> <CNN_VS>
2.6341907978

> <CNNaffinity_variance>
0.1478047669

$$$$
[H]C1=Nc2c([H])c([H])c([H])c([H])c2Sc2c([H])c([H])c([H])c([H])c21


 15 17  0  0  0  0  0  0  0  0999 V2000
  156.5165  135.8922  187.8919 S   0  0  0  0  0  0  0  0  0  0  0  0
  157.7642  134.7451  188.5001 C   0  0  0  0  0  0  0  0  0  0  0  0
  158.8434  134.6906  187.6441 C   0  0  0  0  0  0  0  0  0  0  0  0
  159.9244  133.8768  187.9052 C   0  0  0  0  0  0  0  0  0  0  0  0
  159.8862  133.1186  189.0557 C   0  0  0  0  0  0  0  0  0  0  0  0
  158.8046  133.1759  189.9097 C   0  0  0  0  0  0  0  0  0  0  0  0
  157.7041  133.9972  189.6542 C   0  0  0  0  0  0  0  0  0  0  0  0
  156.6760  133.9203  190.6583 C   0  0  0  0  0  0  0  0  0  0  0  0
  155.8145  134.8052  191.0220 N   0  0  0  0  0  0  0  0  0  0  0  0
  155.5424  136.1257  190.6132 C   0  0  0  0  0  0  0  0  0  0  0  0
  154.9709  136.9049  191.6125 C   0  0  0  0  0  0  0  0  0  0  0  0
  154.6554  138.2132  191.3427 C   0  0  0  0  0  0  0  0  0  0  0  0
  154.9050  138.7390  190.0965 C   0  0  0  0  0  0  0  0  0  0  0  0
  155.4755  137.9680  189.0926 C   0  0  0  0  0  0  0  0  0  0  0  0
  155.7955  136.6520  189.3561 C   0  0  0  0  0  0  0  0  0  0  0  0
  1  2  1  0  0  0
  2  3  2  0  0  0
  3  4  1  0  0  0
  4  5  2  0  0  0
  5  6  1  0  0  0
  6  7  2  0  0  0
  7  8  1  0  0  0
  8  9  2  0  0  0
  9 10  1  0  0  0
 10 11  2  0  0  0
 11 12  1  0  0  0
 12 13  2  0  0  0
 13 14  1  0  0  0
 14 15  2  0  0  0
 15  1  1  0  0  0
  7  2  1  0  0  0
 15 10  1  0  0  0
M  END
> <minimizedAffinity>
-5.40572

> <CNNscore>
0.5992944837

> <CNNaffinity>
4.2307519913

> <CNN_VS>
2.5354664326

> <CNNaffinity_variance>
0.1788849980

$$$$
[H]C1=Nc2c([H])c([H])c([H])c([H])c2Sc2c([H])c([H])c([H])c([H])c21


 15 17  0  0  0  0  0  0  0  0999 V2000
  157.9798  143.9421  182.3177 S   0  0  0  0  0  0  0  0  0  0  0  0
  159.2908  143.1175  183.2361 C   0  0  0  0  0  0  0  0  0  0  0  0
  160.0977  144.0346  183.8751 C   0  0  0  0  0  0  0  0  0  0  0  0
  161.1709  143.6336  184.6409 C   0  0  0  0  0  0  0  0  0  0  0  0
  161.4075  142.2796  184.7442 C   0  0  0  0  0  0  0  0  0  0  0  0
  160.5979  141.3650  184.1034 C   0  0  0  0  0  0  0  0  0  0  0  0
  159.5079  141.7611  183.3249 C   0  0  0  0  0  0  0  0  0  0  0  0
  158.7846  140.6645  182.7372 C   0  0  0  0  0  0  0  0  0  0  0  0
  157.5445  140.5842  182.4006 N   0  0  0  0  0  0  0  0  0  0  0  0
  156.4576  141.4783  182.4652 C   0  0  0  0  0  0  0  0  0  0  0  0
  155.2259  140.8417  182.5640 C   0  0  0  0  0  0  0  0  0  0  0  0
  154.0842  141.6004  182.6337 C   0  0  0  0  0  0  0  0  0  0  0  0
  154.1667  142.9730  182.6056 C   0  0  0  0  0  0  0  0  0  0  0  0
  155.3926  143.6172  182.5072 C   0  0  0  0  0  0  0  0  0  0  0  0
  156.5449  142.8615  182.4367 C   0  0  0  0  0  0  0  0  0  0  0  0
  1  2  1  0  0  0
  2  3  2  0  0  0
  3  4  1  0  0  0
  4  5  2  0  0  0
  5  6  1  0  0  0
  6  7  2  0  0  0
  7  8  1  0  0  0
  8  9  2  0  0  0
  9 10  1  0  0  0
 10 11  2  0  0  0
 11 12  1  0  0  0
 12 13  2  0  0  0
 13 14  1  0  0  0
 14 15  2  0  0  0
 15  1  1  0  0  0
  7  2  1  0  0  0
 15 10  1  0  0  0
M  END
> <minimizedAffinity>
-7.71138

> <CNNscore>
0.5651646852

> <CNNaffinity>
5.5262784958

> <CNN_VS>
3.1232573986

> <CNNaffinity_variance>
0.1801813841

$$$$
[H]C1=Nc2c([H])c([H])c([H])c([H])c2Sc2c([H])c([H])c([H])c([H])c21


 15 17  0  0  0  0  0  0  0  0999 V2000
  154.6156  137.7145  191.1135 S   0  0  0  0  0  0  0  0  0  0  0  0
  155.2416  136.6992  189.7645 C   0  0  0  0  0  0  0  0  0  0  0  0
  156.6041  136.5197  189.8734 C   0  0  0  0  0  0  0  0  0  0  0  0
  157.3045  135.7745  188.9497 C   0  0  0  0  0  0  0  0  0  0  0  0
  156.5908  135.2147  187.9117 C   0  0  0  0  0  0  0  0  0  0  0  0
  155.2276  135.3966  187.8062 C   0  0  0  0  0  0  0  0  0  0  0  0
  154.5086  136.1501  188.7370 C   0  0  0  0  0  0  0  0  0  0  0  0
  153.0987  136.2260  188.4583 C   0  0  0  0  0  0  0  0  0  0  0  0
  152.1086  136.3828  189.2661 N   0  0  0  0  0  0  0  0  0  0  0  0
  152.0054  136.5344  190.6630 C   0  0  0  0  0  0  0  0  0  0  0  0
  150.7937  136.0878  191.1775 C   0  0  0  0  0  0  0  0  0  0  0  0
  150.5653  136.1803  192.5278 C   0  0  0  0  0  0  0  0  0  0  0  0
  151.5286  136.7096  193.3545 C   0  0  0  0  0  0  0  0  0  0  0  0
  152.7416  137.1580  192.8493 C   0  0  0  0  0  0  0  0  0  0  0  0
  152.9788  137.0684  191.4930 C   0  0  0  0  0  0  0  0  0  0  0  0
  1  2  1  0  0  0
  2  3  2  0  0  0
  3  4  1  0  0  0
  4  5  2  0  0  0
  5  6  1  0  0  0
  6  7  2  0  0  0
  7  8  1  0  0  0
  8  9  2  0  0  0
  9 10  1  0  0  0
 10 11  2  0  0  0
 11 12  1  0  0  0
 12 13  2  0  0  0
 13 14  1  0  0  0
 14 15  2  0  0  0
 15  1  1  0  0  0
  7  2  1  0  0  0
 15 10  1  0  0  0
M  END
> <minimizedAffinity>
-4.64908

> <CNNscore>
0.5593341589

> <CNNaffinity>
4.2699275017

> <CNN_VS>
2.3883163929

> <CNNaffinity_variance>
0.0698462576

$$$$
[H]C1=Nc2c([H])c([H])c([H])c([H])c2Sc2c([H])c([H])c([H])c([H])c21


 15 17  0  0  0  0  0  0  0  0999 V2000
  160.7025  141.4522  183.0963 S   0  0  0  0  0  0  0  0  0  0  0  0
  160.7890  142.0254  184.8011 C   0  0  0  0  0  0  0  0  0  0  0  0
  162.0714  142.4123  185.1271 C   0  0  0  0  0  0  0  0  0  0  0  0
  162.3786  142.8879  186.3834 C   0  0  0  0  0  0  0  0  0  0  0  0
  161.3545  142.9623  187.3030 C   0  0  0  0  0  0  0  0  0  0  0  0
  160.0727  142.5743  186.9731 C   0  0  0  0  0  0  0  0  0  0  0  0
  159.7509  142.0909  185.7027 C   0  0  0  0  0  0  0  0  0  0  0  0
  158.3645  141.7367  185.5497 C   0  0  0  0  0  0  0  0  0  0  0  0
  157.6294  141.7312  184.4927 N   0  0  0  0  0  0  0  0  0  0  0  0
  157.8651  142.0487  183.1405 C   0  0  0  0  0  0  0  0  0  0  0  0
  156.7258  142.4762  182.4685 C   0  0  0  0  0  0  0  0  0  0  0  0
  156.8194  142.8162  181.1420 C   0  0  0  0  0  0  0  0  0  0  0  0
  158.0292  142.7322  180.4931 C   0  0  0  0  0  0  0  0  0  0  0  0
  159.1721  142.3063  181.1565 C   0  0  0  0  0  0  0  0  0  0  0  0
  159.0862  141.9628  182.4901 C   0  0  0  0  0  0  0  0  0  0  0  0
  1  2  1  0  0  0
  2  3  2  0  0  0
  3  4  1  0  0  0
  4  5  2  0  0  0
  5  6  1  0  0  0
  6  7  2  0  0  0
  7  8  1  0  0  0
  8  9  2  0  0  0
  9 10  1  0  0  0
 10 11  2  0  0  0
 11 12  1  0  0  0
 12 13  2  0  0  0
 13 14  1  0  0  0
 14 15  2  0  0  0
 15  1  1  0  0  0
  7  2  1  0  0  0
 15 10  1  0  0  0
M  END
> <minimizedAffinity>
-7.44178

> <CNNscore>
0.5592093468

> <CNNaffinity>
5.5708537102

> <CNN_VS>
3.1152734756

> <CNNaffinity_variance>
0.1361328363

$$$$
[H]C1=Nc2c([H])c([H])c([H])c([H])c2Sc2c([H])c([H])c([H])c([H])c21


 15 17  0  0  0  0  0  0  0  0999 V2000
  154.6157  136.2067  190.5939 S   0  0  0  0  0  0  0  0  0  0  0  0
  152.9788  136.3347  191.3333 C   0  0  0  0  0  0  0  0  0  0  0  0
  153.0665  136.6135  192.6805 C   0  0  0  0  0  0  0  0  0  0  0  0
  151.9372  136.7566  193.4573 C   0  0  0  0  0  0  0  0  0  0  0  0
  150.7155  136.6104  192.8361 C   0  0  0  0  0  0  0  0  0  0  0  0
  150.6319  136.3316  191.4878 C   0  0  0  0  0  0  0  0  0  0  0  0
  151.7702  136.1846  190.6918 C   0  0  0  0  0  0  0  0  0  0  0  0
  151.4810  135.8955  189.3120 C   0  0  0  0  0  0  0  0  0  0  0  0
  152.1661  136.1625  188.2552 N   0  0  0  0  0  0  0  0  0  0  0  0
  153.3996  136.8052  188.0304 C   0  0  0  0  0  0  0  0  0  0  0  0
  153.4904  137.3997  186.7772 C   0  0  0  0  0  0  0  0  0  0  0  0
  154.6434  138.0594  186.4315 C   0  0  0  0  0  0  0  0  0  0  0  0
  155.6912  138.1265  187.3199 C   0  0  0  0  0  0  0  0  0  0  0  0
  155.6092  137.5356  188.5736 C   0  0  0  0  0  0  0  0  0  0  0  0
  154.4534  136.8707  188.9285 C   0  0  0  0  0  0  0  0  0  0  0  0
  1  2  1  0  0  0
  2  3  2  0  0  0
  3  4  1  0  0  0
  4  5  2  0  0  0
  5  6  1  0  0  0
  6  7  2  0  0  0
  7  8  1  0  0  0
  8  9  2  0  0  0
  9 10  1  0  0  0
 10 11  2  0  0  0
 11 12  1  0  0  0
 12 13  2  0  0  0
 13 14  1  0  0  0
 14 15  2  0  0  0
 15  1  1  0  0  0
  7  2  1  0  0  0
 15 10  1  0  0  0
M  END
> <minimizedAffinity>
-4.83645

> <CNNscore>
0.5579905510

> <CNNaffinity>
4.3002414703

> <CNN_VS>
2.3994941711

> <CNNaffinity_variance>
0.1247750968

$$$$
[H]C1=Nc2c([H])c([H])c([H])c([H])c2Sc2c([H])c([H])c([H])c([H])c21


 15 17  0  0  0  0  0  0  0  0999 V2000
  151.5145  139.8178  180.7330 S   0  0  0  0  0  0  0  0  0  0  0  0
  152.7964  139.9229  181.9932 C   0  0  0  0  0  0  0  0  0  0  0  0
  153.5480  141.0681  181.8381 C   0  0  0  0  0  0  0  0  0  0  0  0
  154.5902  141.3617  182.6905 C   0  0  0  0  0  0  0  0  0  0  0  0
  154.8532  140.4666  183.7052 C   0  0  0  0  0  0  0  0  0  0  0  0
  154.0988  139.3219  183.8572 C   0  0  0  0  0  0  0  0  0  0  0  0
  153.0406  139.0150  182.9987 C   0  0  0  0  0  0  0  0  0  0  0  0
  152.3740  137.7798  183.3165 C   0  0  0  0  0  0  0  0  0  0  0  0
  151.1549  137.4253  183.1033 N   0  0  0  0  0  0  0  0  0  0  0  0
  150.0453  138.0596  182.5103 C   0  0  0  0  0  0  0  0  0  0  0  0
  148.8255  137.6034  182.9963 C   0  0  0  0  0  0  0  0  0  0  0  0
  147.6642  138.1405  182.4994 C   0  0  0  0  0  0  0  0  0  0  0  0
  147.7156  139.1174  181.5327 C   0  0  0  0  0  0  0  0  0  0  0  0
  148.9295  139.5790  181.0416 C   0  0  0  0  0  0  0  0  0  0  0  0
  150.1013  139.0441  181.5362 C   0  0  0  0  0  0  0  0  0  0  0  0
  1  2  1  0  0  0
  2  3  2  0  0  0
  3  4  1  0  0  0
  4  5  2  0  0  0
  5  6  1  0  0  0
  6  7  2  0  0  0
  7  8  1  0  0  0
  8  9  2  0  0  0
  9 10  1  0  0  0
 10 11  2  0  0  0
 11 12  1  0  0  0
 12 13  2  0  0  0
 13 14  1  0  0  0
 14 15  2  0  0  0
 15  1  1  0  0  0
  7  2  1  0  0  0
 15 10  1  0  0  0
M  END
> <minimizedAffinity>
-5.58494

> <CNNscore>
0.5561697483

> <CNNaffinity>
4.3924846649

> <CNN_VS>
2.4429671764

> <CNNaffinity_variance>
0.1029115468

$$$$
[H]C1=Nc2c([H])c([H])c([H])c([H])c2Sc2c([H])c([H])c([H])c([H])c21


 15 17  0  0  0  0  0  0  0  0999 V2000
  156.0971  134.5023  190.6418 S   0  0  0  0  0  0  0  0  0  0  0  0
  155.6153  136.2091  190.3300 C   0  0  0  0  0  0  0  0  0  0  0  0
  155.1300  136.8020  191.4760 C   0  0  0  0  0  0  0  0  0  0  0  0
  154.6992  138.1110  191.4780 C   0  0  0  0  0  0  0  0  0  0  0  0
  154.7719  138.8060  190.2899 C   0  0  0  0  0  0  0  0  0  0  0  0
  155.2581  138.2093  189.1453 C   0  0  0  0  0  0  0  0  0  0  0  0
  155.6971  136.8834  189.1327 C   0  0  0  0  0  0  0  0  0  0  0  0
  156.1681  136.4394  187.8473 C   0  0  0  0  0  0  0  0  0  0  0  0
  157.0406  135.5381  187.5582 N   0  0  0  0  0  0  0  0  0  0  0  0
  157.8403  134.6728  188.3307 C   0  0  0  0  0  0  0  0  0  0  0  0
  159.0234  134.3061  187.6999 C   0  0  0  0  0  0  0  0  0  0  0  0
  159.8932  133.4637  188.3462 C   0  0  0  0  0  0  0  0  0  0  0  0
  159.5903  132.9927  189.6024 C   0  0  0  0  0  0  0  0  0  0  0  0
  158.4109  133.3537  190.2400 C   0  0  0  0  0  0  0  0  0  0  0  0
  157.5315  134.2003  189.5968 C   0  0  0  0  0  0  0  0  0  0  0  0
  1  2  1  0  0  0
  2  3  2  0  0  0
  3  4  1  0  0  0
  4  5  2  0  0  0
  5  6  1  0  0  0
  6  7  2  0  0  0
  7  8  1  0  0  0
  8  9  2  0  0  0
  9 10  1  0  0  0
 10 11  2  0  0  0
 11 12  1  0  0  0
 12 13  2  0  0  0
 13 14  1  0  0  0
 14 15  2  0  0  0
 15  1  1  0  0  0
  7  2  1  0  0  0
 15 10  1  0  0  0
M  END
> <minimizedAffinity>
-5.30562

> <CNNscore>
0.5414184332

> <CNNaffinity>
4.2297430038

> <CNN_VS>
2.2900607586

> <CNNaffinity_variance>
0.1974893957

$$$$
[H]C1=Nc2c([H])c([H])c([H])c([H])c2Sc2c([H])c([H])c([H])c([H])c21


 15 17  0  0  0  0  0  0  0  0999 V2000
  158.7695  140.7476  183.6774 S   0  0  0  0  0  0  0  0  0  0  0  0
  157.0081  140.8647  183.3227 C   0  0  0  0  0  0  0  0  0  0  0  0
  156.3010  139.9028  184.0121 C   0  0  0  0  0  0  0  0  0  0  0  0
  154.9317  139.7997  183.8962 C   0  0  0  0  0  0  0  0  0  0  0  0
  154.2949  140.6954  183.0643 C   0  0  0  0  0  0  0  0  0  0  0  0
  155.0058  141.6564  182.3762 C   0  0  0  0  0  0  0  0  0  0  0  0
  156.3936  141.7693  182.4866 C   0  0  0  0  0  0  0  0  0  0  0  0
  156.9554  142.8304  181.6932 C   0  0  0  0  0  0  0  0  0  0  0  0
  158.0237  143.5229  181.8849 N   0  0  0  0  0  0  0  0  0  0  0  0
  159.0164  143.5260  182.8846 C   0  0  0  0  0  0  0  0  0  0  0  0
  159.6336  144.7612  183.0441 C   0  0  0  0  0  0  0  0  0  0  0  0
  160.6215  144.8989  183.9870 C   0  0  0  0  0  0  0  0  0  0  0  0
  160.9901  143.8230  184.7604 C   0  0  0  0  0  0  0  0  0  0  0  0
  160.3790  142.5856  184.6079 C   0  0  0  0  0  0  0  0  0  0  0  0
  159.3850  142.4392  183.6622 C   0  0  0  0  0  0  0  0  0  0  0  0
  1  2  1  0  0  0
  2  3  2  0  0  0
  3  4  1  0  0  0
  4  5  2  0  0  0
  5  6  1  0  0  0
  6  7  2  0  0  0
  7  8  1  0  0  0
  8  9  2  0  0  0
  9 10  1  0  0  0
 10 11  2  0  0  0
 11 12  1  0  0  0
 12 13  2  0  0  0
 13 14  1  0  0  0
 14 15  2  0  0  0
 15  1  1  0  0  0
  7  2  1  0  0  0
 15 10  1  0  0  0
M  END
> <minimizedAffinity>
-7.30525

> <CNNscore>
0.5243031383

> <CNNaffinity>
5.4683380127

> <CNN_VS>
2.8670668602

> <CNNaffinity_variance>
0.1290406883

$$$$
[H]c1nc([H])c(N([H])C(=O)[C@@]([H])(n2c([H])nc3c2c(=O)n(C([H])([H])C(=O)C([H])([H])[H])c(=O)n3C([H])([H])[H])C([H])([H])[H])nc1-c1c([H])nc(N2C([H])([H])C3([H])C([H])([H])C3([H])C2([H])[H])nc1[H]


 40 45  0  0  0  0  0  0  0  0999 V2000
  152.9743  138.9935  182.4962 C   0  0  0  0  0  0  0  0  0  0  0  0
  153.1971  140.1628  182.8824 O   0  0  0  0  0  0  0  0  0  0  0  0
  153.4960  137.9348  183.2486 N   0  0  0  0  0  0  0  0  0  0  0  0
  153.3502  136.9140  182.9859 H   0  0  0  0  0  0  0  0  0  0  0  0
  154.2675  138.1538  184.4316 C   0  0  0  0  0  0  0  0  0  0  0  0
  155.5111  138.7654  184.3474 C   0  0  0  0  0  0  0  0  0  0  0  0
  156.2098  138.9578  185.4657 N   0  0  0  0  0  0  0  0  0  0  0  0
  155.7283  138.5702  186.6615 C   0  0  0  0  0  0  0  0  0  0  0  0
  154.5050  137.9618  186.7970 C   0  0  0  0  0  0  0  0  0  0  0  0
  153.8198  137.7784  185.6597 N   0  0  0  0  0  0  0  0  0  0  0  0
  153.9361  137.5223  188.0628 C   0  0  0  0  0  0  0  0  0  0  0  0
  152.8018  136.7402  188.1410 C   0  0  0  0  0  0  0  0  0  0  0  0
  152.3037  136.3526  189.3312 N   0  0  0  0  0  0  0  0  0  0  0  0
  152.8662  136.6935  190.5181 C   0  0  0  0  0  0  0  0  0  0  0  0
  153.9725  137.4559  190.4472 N   0  0  0  0  0  0  0  0  0  0  0  0
  154.4992  137.8625  189.2781 C   0  0  0  0  0  0  0  0  0  0  0  0
  152.3269  136.2752  191.7553 N   0  0  0  0  0  0  0  0  0  0  0  0
  152.0479  137.1580  192.8555 C   0  0  0  0  0  0  0  0  0  0  0  0
  151.7832  136.2801  194.0557 C   0  0  0  0  0  0  0  0  0  0  0  0
  150.4964  135.5746  194.1134 C   0  0  0  0  0  0  0  0  0  0  0  0
  151.7045  134.9003  193.5800 C   0  0  0  0  0  0  0  0  0  0  0  0
  151.9781  134.9251  192.1053 C   0  0  0  0  0  0  0  0  0  0  0  0
  152.0396  140.1323  180.5749 C   0  0  0  0  0  0  0  0  0  0  0  0
  152.1678  138.7940  181.2600 C   0  0  0  0  0  0  0  0  0  0  0  0
  150.8234  138.3381  181.5547 N   0  0  0  0  0  0  0  0  0  0  0  0
  149.7630  139.1441  181.7186 C   0  0  0  0  0  0  0  0  0  0  0  0
  148.7164  138.3460  181.9741 N   0  0  0  0  0  0  0  0  0  0  0  0
  149.1164  137.0657  181.9698 C   0  0  0  0  0  0  0  0  0  0  0  0
  148.4291  135.9160  182.1746 N   0  0  0  0  0  0  0  0  0  0  0  0
  147.0091  135.9773  182.4539 C   0  0  0  0  0  0  0  0  0  0  0  0
  149.1025  134.7585  182.1085 C   0  0  0  0  0  0  0  0  0  0  0  0
  148.4281  133.7068  182.3049 O   0  0  0  0  0  0  0  0  0  0  0  0
  150.4403  134.7048  181.8450 N   0  0  0  0  0  0  0  0  0  0  0  0
  151.1228  135.8383  181.6423 C   0  0  0  0  0  0  0  0  0  0  0  0
  152.3482  135.8045  181.4000 O   0  0  0  0  0  0  0  0  0  0  0  0
  150.4806  137.0509  181.6988 C   0  0  0  0  0  0  0  0  0  0  0  0
  151.0497  133.4006  181.8008 C   0  0  0  0  0  0  0  0  0  0  0  0
  151.2603  133.0043  180.3812 C   0  0  0  0  0  0  0  0  0  0  0  0
  152.6064  132.6132  179.9333 C   0  0  0  0  0  0  0  0  0  0  0  0
  150.3264  133.0029  179.5946 O   0  0  0  0  0  0  0  0  0  0  0  0
 23 24  1  0  0  0
 24  1  1  0  0  0
  1  2  2  0  0  0
  1  3  1  0  0  0
  3  5  1  0  0  0
  5  6  2  0  0  0
  6  7  1  0  0  0
  7  8  2  0  0  0
  8  9  1  0  0  0
  9 10  2  0  0  0
  9 11  1  0  0  0
 11 12  2  0  0  0
 12 13  1  0  0  0
 13 14  2  0  0  0
 14 15  1  0  0  0
 15 16  2  0  0  0
 14 17  1  0  0  0
 17 18  1  0  0  0
 18 19  1  0  0  0
 19 20  1  0  0  0
 20 21  1  0  0  0
 21 22  1  0  0  0
 24 25  1  0  0  0
 25 26  1  0  0  0
 26 27  2  0  0  0
 27 28  1  0  0  0
 28 29  1  0  0  0
 29 30  1  0  0  0
 29 31  1  0  0  0
 31 32  2  0  0  0
 31 33  1  0  0  0
 33 37  1  0  0  0
 37 38  1  0  0  0
 38 39  1  0  0  0
 38 40  2  0  0  0
 33 34  1  0  0  0
 34 35  2  0  0  0
 34 36  1  0  0  0
 10  5  1  0  0  0
 16 11  1  0  0  0
 22 17  1  0  0  0
 36 25  1  0  0  0
 21 19  1  0  0  0
 36 28  2  0  0  0
  3  4  1  0  0  0
M  END
> <minimizedAffinity>
-5.66497

> <CNNscore>
0.3515957594

> <CNNaffinity>
6.0917139053

> <CNN_VS>
2.1418206692

> <CNNaffinity_variance>
0.2812702656

$$$$
[H]c1nc([H])c(N([H])C(=O)[C@@]([H])(n2c([H])nc3c2c(=O)n(C([H])([H])C(=O)C([H])([H])[H])c(=O)n3C([H])([H])[H])C([H])([H])[H])nc1-c1c([H])nc(N2C([H])([H])C3([H])C([H])([H])C3([H])C2([H])[H])nc1[H]


 40 45  0  0  0  0  0  0  0  0999 V2000
  151.0766  136.6754  186.6317 C   0  0  0  0  0  0  0  0  0  0  0  0
  151.0118  137.8759  186.9791 O   0  0  0  0  0  0  0  0  0  0  0  0
  152.3391  136.0785  186.5374 N   0  0  0  0  0  0  0  0  0  0  0  0
  152.4768  135.0635  186.2491 H   0  0  0  0  0  0  0  0  0  0  0  0
  153.5406  136.7974  186.8242 C   0  0  0  0  0  0  0  0  0  0  0  0
  154.1134  136.7188  188.0865 C   0  0  0  0  0  0  0  0  0  0  0  0
  155.2337  137.3988  188.3274 N   0  0  0  0  0  0  0  0  0  0  0  0
  155.8089  138.1521  187.3714 C   0  0  0  0  0  0  0  0  0  0  0  0
  155.2815  138.2620  186.1086 C   0  0  0  0  0  0  0  0  0  0  0  0
  154.1550  137.5699  185.8886 N   0  0  0  0  0  0  0  0  0  0  0  0
  155.8600  139.0611  185.0381 C   0  0  0  0  0  0  0  0  0  0  0  0
  157.1710  139.4921  185.0520 C   0  0  0  0  0  0  0  0  0  0  0  0
  157.6720  140.2308  184.0429 N   0  0  0  0  0  0  0  0  0  0  0  0
  156.9429  140.5996  182.9596 C   0  0  0  0  0  0  0  0  0  0  0  0
  155.6641  140.1818  182.9412 N   0  0  0  0  0  0  0  0  0  0  0  0
  155.1285  139.4432  183.9297 C   0  0  0  0  0  0  0  0  0  0  0  0
  157.4892  141.3747  181.9120 N   0  0  0  0  0  0  0  0  0  0  0  0
  157.1957  142.7659  181.6978 C   0  0  0  0  0  0  0  0  0  0  0  0
  157.7282  143.1124  180.3275 C   0  0  0  0  0  0  0  0  0  0  0  0
  159.1824  143.2521  180.1768 C   0  0  0  0  0  0  0  0  0  0  0  0
  158.5096  141.9693  179.8596 C   0  0  0  0  0  0  0  0  0  0  0  0
  158.4082  140.9045  180.9112 C   0  0  0  0  0  0  0  0  0  0  0  0
  148.8772  136.9156  185.6483 C   0  0  0  0  0  0  0  0  0  0  0  0
  149.8091  135.9502  186.3385 C   0  0  0  0  0  0  0  0  0  0  0  0
  149.1423  135.5086  187.5479 N   0  0  0  0  0  0  0  0  0  0  0  0
  148.1525  136.1762  188.1608 C   0  0  0  0  0  0  0  0  0  0  0  0
  147.8098  135.4462  189.2320 N   0  0  0  0  0  0  0  0  0  0  0  0
  148.5717  134.3437  189.2865 C   0  0  0  0  0  0  0  0  0  0  0  0
  148.5957  133.3192  190.1730 N   0  0  0  0  0  0  0  0  0  0  0  0
  147.6754  133.3259  191.2915 C   0  0  0  0  0  0  0  0  0  0  0  0
  149.4813  132.3326  189.9728 C   0  0  0  0  0  0  0  0  0  0  0  0
  149.4744  131.3939  190.8203 O   0  0  0  0  0  0  0  0  0  0  0  0
  150.3467  132.3297  188.9177 N   0  0  0  0  0  0  0  0  0  0  0  0
  150.3261  133.3401  188.0397 C   0  0  0  0  0  0  0  0  0  0  0  0
  151.1127  133.3508  187.0689 O   0  0  0  0  0  0  0  0  0  0  0  0
  149.4383  134.3756  188.1989 C   0  0  0  0  0  0  0  0  0  0  0  0
  151.2505  131.2134  188.8119 C   0  0  0  0  0  0  0  0  0  0  0  0
  152.5974  131.6238  189.2959 C   0  0  0  0  0  0  0  0  0  0  0  0
  153.7638  131.4521  188.4154 C   0  0  0  0  0  0  0  0  0  0  0  0
  152.7349  132.0985  190.4124 O   0  0  0  0  0  0  0  0  0  0  0  0
 23 24  1  0  0  0
 24  1  1  0  0  0
  1  2  2  0  0  0
  1  3  1  0  0  0
  3  5  1  0  0  0
  5  6  2  0  0  0
  6  7  1  0  0  0
  7  8  2  0  0  0
  8  9  1  0  0  0
  9 10  2  0  0  0
  9 11  1  0  0  0
 11 12  2  0  0  0
 12 13  1  0  0  0
 13 14  2  0  0  0
 14 15  1  0  0  0
 15 16  2  0  0  0
 14 17  1  0  0  0
 17 18  1  0  0  0
 18 19  1  0  0  0
 19 20  1  0  0  0
 20 21  1  0  0  0
 21 22  1  0  0  0
 24 25  1  0  0  0
 25 26  1  0  0  0
 26 27  2  0  0  0
 27 28  1  0  0  0
 28 29  1  0  0  0
 29 30  1  0  0  0
 29 31  1  0  0  0
 31 32  2  0  0  0
 31 33  1  0  0  0
 33 37  1  0  0  0
 37 38  1  0  0  0
 38 39  1  0  0  0
 38 40  2  0  0  0
 33 34  1  0  0  0
 34 35  2  0  0  0
 34 36  1  0  0  0
 10  5  1  0  0  0
 16 11  1  0  0  0
 22 17  1  0  0  0
 36 25  1  0  0  0
 21 19  1  0  0  0
 36 28  2  0  0  0
  3  4  1  0  0  0
M  END
> <minimizedAffinity>
-5.68696

> <CNNscore>
0.2485622764

> <CNNaffinity>
6.3211312294

> <CNN_VS>
1.5711947680

> <CNNaffinity_variance>
0.3397323787

$$$$
[H]c1nc([H])c(N([H])C(=O)[C@@]([H])(n2c([H])nc3c2c(=O)n(C([H])([H])C(=O)C([H])([H])[H])c(=O)n3C([H])([H])[H])C([H])([H])[H])nc1-c1c([H])nc(N2C([H])([H])C3([H])C([H])([H])C3([H])C2([H])[H])nc1[H]


 40 45  0  0  0  0  0  0  0  0999 V2000
  150.1196  136.9434  185.6928 C   0  0  0  0  0  0  0  0  0  0  0  0
  150.1458  137.6772  186.7061 O   0  0  0  0  0  0  0  0  0  0  0  0
  151.3290  136.6555  185.0498 N   0  0  0  0  0  0  0  0  0  0  0  0
  151.3894  136.0401  184.1838 H   0  0  0  0  0  0  0  0  0  0  0  0
  152.5771  137.1728  185.5161 C   0  0  0  0  0  0  0  0  0  0  0  0
  153.0353  136.8445  186.7849 C   0  0  0  0  0  0  0  0  0  0  0  0
  154.2022  137.3401  187.1951 N   0  0  0  0  0  0  0  0  0  0  0  0
  154.9326  138.1461  186.4018 C   0  0  0  0  0  0  0  0  0  0  0  0
  154.5229  138.4996  185.1400 C   0  0  0  0  0  0  0  0  0  0  0  0
  153.3468  137.9898  184.7483 N   0  0  0  0  0  0  0  0  0  0  0  0
  155.2707  139.3665  184.2408 C   0  0  0  0  0  0  0  0  0  0  0  0
  154.7262  139.8961  183.0886 C   0  0  0  0  0  0  0  0  0  0  0  0
  155.4494  140.6948  182.2799 N   0  0  0  0  0  0  0  0  0  0  0  0
  156.7395  141.0327  182.5302 C   0  0  0  0  0  0  0  0  0  0  0  0
  157.2749  140.5190  183.6525 N   0  0  0  0  0  0  0  0  0  0  0  0
  156.5848  139.7181  184.4843 C   0  0  0  0  0  0  0  0  0  0  0  0
  157.4793  141.8729  181.6680 N   0  0  0  0  0  0  0  0  0  0  0  0
  158.0247  143.1467  182.0522 C   0  0  0  0  0  0  0  0  0  0  0  0
  158.4577  143.8318  180.7776 C   0  0  0  0  0  0  0  0  0  0  0  0
  159.6812  143.3474  180.1254 C   0  0  0  0  0  0  0  0  0  0  0  0
  158.3503  142.8539  179.6967 C   0  0  0  0  0  0  0  0  0  0  0  0
  157.7982  141.5936  180.2942 C   0  0  0  0  0  0  0  0  0  0  0  0
  147.7624  136.8367  186.2353 C   0  0  0  0  0  0  0  0  0  0  0  0
  148.8055  136.4183  185.2284 C   0  0  0  0  0  0  0  0  0  0  0  0
  148.7861  134.9695  185.1752 N   0  0  0  0  0  0  0  0  0  0  0  0
  149.0514  134.1641  186.2154 C   0  0  0  0  0  0  0  0  0  0  0  0
  148.9297  132.9079  185.7625 N   0  0  0  0  0  0  0  0  0  0  0  0
  148.5947  132.9293  184.4639 C   0  0  0  0  0  0  0  0  0  0  0  0
  148.3644  131.9234  183.5856 N   0  0  0  0  0  0  0  0  0  0  0  0
  148.4746  130.5502  184.0334 C   0  0  0  0  0  0  0  0  0  0  0  0
  148.0406  132.2480  182.3257 C   0  0  0  0  0  0  0  0  0  0  0  0
  147.8329  131.2831  181.5349 O   0  0  0  0  0  0  0  0  0  0  0  0
  147.9377  133.5429  181.9076 N   0  0  0  0  0  0  0  0  0  0  0  0
  148.1645  134.5394  182.7722 C   0  0  0  0  0  0  0  0  0  0  0  0
  148.0739  135.7299  182.4035 O   0  0  0  0  0  0  0  0  0  0  0  0
  148.4995  134.2613  184.0746 C   0  0  0  0  0  0  0  0  0  0  0  0
  147.5833  133.7623  180.5291 C   0  0  0  0  0  0  0  0  0  0  0  0
  148.8062  133.6643  179.6855 C   0  0  0  0  0  0  0  0  0  0  0  0
  148.7961  132.7950  178.4982 C   0  0  0  0  0  0  0  0  0  0  0  0
  149.8090  134.2983  179.9743 O   0  0  0  0  0  0  0  0  0  0  0  0
 23 24  1  0  0  0
 24  1  1  0  0  0
  1  2  2  0  0  0
  1  3  1  0  0  0
  3  5  1  0  0  0
  5  6  2  0  0  0
  6  7  1  0  0  0
  7  8  2  0  0  0
  8  9  1  0  0  0
  9 10  2  0  0  0
  9 11  1  0  0  0
 11 12  2  0  0  0
 12 13  1  0  0  0
 13 14  2  0  0  0
 14 15  1  0  0  0
 15 16  2  0  0  0
 14 17  1  0  0  0
 17 18  1  0  0  0
 18 19  1  0  0  0
 19 20  1  0  0  0
 20 21  1  0  0  0
 21 22  1  0  0  0
 24 25  1  0  0  0
 25 26  1  0  0  0
 26 27  2  0  0  0
 27 28  1  0  0  0
 28 29  1  0  0  0
 29 30  1  0  0  0
 29 31  1  0  0  0
 31 32  2  0  0  0
 31 33  1  0  0  0
 33 37  1  0  0  0
 37 38  1  0  0  0
 38 39  1  0  0  0
 38 40  2  0  0  0
 33 34  1  0  0  0
 34 35  2  0  0  0
 34 36  1  0  0  0
 10  5  1  0  0  0
 16 11  1  0  0  0
 22 17  1  0  0  0
 36 25  1  0  0  0
 21 19  1  0  0  0
 36 28  2  0  0  0
  3  4  1  0  0  0
M  END
> <minimizedAffinity>
-5.52437

> <CNNscore>
0.2448675334

> <CNNaffinity>
6.5077362061

> <CNN_VS>
1.5935332775

> <CNNaffinity_variance>
0.7088948488

$$$$
[H]c1nc([H])c(N([H])C(=O)[C@@]([H])(n2c([H])nc3c2c(=O)n(C([H])([H])C(=O)C([H])([H])[H])c(=O)n3C([H])([H])[H])C([H])([H])[H])nc1-c1c([H])nc(N2C([H])([H])C3([H])C([H])([H])C3([H])C2([H])[H])nc1[H]


 40 45  0  0  0  0  0  0  0  0999 V2000
  149.0983  137.1169  185.8993 C   0  0  0  0  0  0  0  0  0  0  0  0
  149.0937  138.1530  186.6012 O   0  0  0  0  0  0  0  0  0  0  0  0
  150.3239  136.4886  185.6506 N   0  0  0  0  0  0  0  0  0  0  0  0
  150.4103  135.6049  185.0642 H   0  0  0  0  0  0  0  0  0  0  0  0
  151.5547  136.9950  186.1717 C   0  0  0  0  0  0  0  0  0  0  0  0
  151.8854  136.7833  187.5034 C   0  0  0  0  0  0  0  0  0  0  0  0
  153.0390  137.2660  187.9638 N   0  0  0  0  0  0  0  0  0  0  0  0
  153.8768  137.9485  187.1610 C   0  0  0  0  0  0  0  0  0  0  0  0
  153.5951  138.1838  185.8380 C   0  0  0  0  0  0  0  0  0  0  0  0
  152.4301  137.6895  185.3965 N   0  0  0  0  0  0  0  0  0  0  0  0
  154.4627  138.9147  184.9257 C   0  0  0  0  0  0  0  0  0  0  0  0
  155.8177  139.0637  185.1411 C   0  0  0  0  0  0  0  0  0  0  0  0
  156.5896  139.7477  184.2743 N   0  0  0  0  0  0  0  0  0  0  0  0
  156.1054  140.3296  183.1482 C   0  0  0  0  0  0  0  0  0  0  0  0
  154.7849  140.1871  182.9336 N   0  0  0  0  0  0  0  0  0  0  0  0
  153.9822  139.5118  183.7757 C   0  0  0  0  0  0  0  0  0  0  0  0
  156.9338  141.0423  182.2524 N   0  0  0  0  0  0  0  0  0  0  0  0
  158.1904  140.5550  181.7514 C   0  0  0  0  0  0  0  0  0  0  0  0
  158.8748  141.7283  181.0908 C   0  0  0  0  0  0  0  0  0  0  0  0
  158.3654  142.1675  179.7852 C   0  0  0  0  0  0  0  0  0  0  0  0
  157.9087  142.8235  181.0341 C   0  0  0  0  0  0  0  0  0  0  0  0
  156.6577  142.3446  181.7094 C   0  0  0  0  0  0  0  0  0  0  0  0
  147.2566  135.6148  186.3624 C   0  0  0  0  0  0  0  0  0  0  0  0
  147.8016  136.6112  185.3689 C   0  0  0  0  0  0  0  0  0  0  0  0
  147.9647  135.9093  184.1107 N   0  0  0  0  0  0  0  0  0  0  0  0
  147.8680  134.5793  183.9608 C   0  0  0  0  0  0  0  0  0  0  0  0
  148.0807  134.3281  182.6609 N   0  0  0  0  0  0  0  0  0  0  0  0
  148.3060  135.4801  182.0120 C   0  0  0  0  0  0  0  0  0  0  0  0
  148.5668  135.7320  180.7064 N   0  0  0  0  0  0  0  0  0  0  0  0
  148.6341  134.6290  179.7698 C   0  0  0  0  0  0  0  0  0  0  0  0
  148.7531  137.0067  180.3350 C   0  0  0  0  0  0  0  0  0  0  0  0
  148.9940  137.2029  179.1091 O   0  0  0  0  0  0  0  0  0  0  0  0
  148.6888  138.0432  181.2203 N   0  0  0  0  0  0  0  0  0  0  0  0
  148.4314  137.7985  182.5110 C   0  0  0  0  0  0  0  0  0  0  0  0
  148.3695  138.7376  183.3329 O   0  0  0  0  0  0  0  0  0  0  0  0
  148.2327  136.5104  182.9437 C   0  0  0  0  0  0  0  0  0  0  0  0
  148.9074  139.3677  180.6987 C   0  0  0  0  0  0  0  0  0  0  0  0
  150.3706  139.6070  180.5625 C   0  0  0  0  0  0  0  0  0  0  0  0
  150.9049  140.1019  179.2838 C   0  0  0  0  0  0  0  0  0  0  0  0
  151.1217  139.3954  181.5016 O   0  0  0  0  0  0  0  0  0  0  0  0
 23 24  1  0  0  0
 24  1  1  0  0  0
  1  2  2  0  0  0
  1  3  1  0  0  0
  3  5  1  0  0  0
  5  6  2  0  0  0
  6  7  1  0  0  0
  7  8  2  0  0  0
  8  9  1  0  0  0
  9 10  2  0  0  0
  9 11  1  0  0  0
 11 12  2  0  0  0
 12 13  1  0  0  0
 13 14  2  0  0  0
 14 15  1  0  0  0
 15 16  2  0  0  0
 14 17  1  0  0  0
 17 18  1  0  0  0
 18 19  1  0  0  0
 19 20  1  0  0  0
 20 21  1  0  0  0
 21 22  1  0  0  0
 24 25  1  0  0  0
 25 26  1  0  0  0
 26 27  2  0  0  0
 27 28  1  0  0  0
 28 29  1  0  0  0
 29 30  1  0  0  0
 29 31  1  0  0  0
 31 32  2  0  0  0
 31 33  1  0  0  0
 33 37  1  0  0  0
 37 38  1  0  0  0
 38 39  1  0  0  0
 38 40  2  0  0  0
 33 34  1  0  0  0
 34 35  2  0  0  0
 34 36  1  0  0  0
 10  5  1  0  0  0
 16 11  1  0  0  0
 22 17  1  0  0  0
 36 25  1  0  0  0
 21 19  1  0  0  0
 36 28  2  0  0  0
  3  4  1  0  0  0
M  END
> <minimizedAffinity>
-6.87293

> <CNNscore>
0.2358582020

> <CNNaffinity>
6.2985725403

> <CNN_VS>
1.4855699539

> <CNNaffinity_variance>
0.2937307656

$$$$
[H]c1nc([H])c(N([H])C(=O)[C@@]([H])(n2c([H])nc3c2c(=O)n(C([H])([H])C(=O)C([H])([H])[H])c(=O)n3C([H])([H])[H])C([H])([H])[H])nc1-c1c([H])nc(N2C([H])([H])C3([H])C([H])([H])C3([H])C2([H])[H])nc1[H]


 40 45  0  0  0  0  0  0  0  0999 V2000
  154.1754  138.4547  184.8683 C   0  0  0  0  0  0  0  0  0  0  0  0
  153.7017  138.7684  185.9834 O   0  0  0  0  0  0  0  0  0  0  0  0
  153.3867  137.6871  184.0037 N   0  0  0  0  0  0  0  0  0  0  0  0
  153.7180  137.3808  183.0401 H   0  0  0  0  0  0  0  0  0  0  0  0
  152.0704  137.2581  184.3587 C   0  0  0  0  0  0  0  0  0  0  0  0
  151.0674  137.2251  183.3991 C   0  0  0  0  0  0  0  0  0  0  0  0
  149.8490  136.8209  183.7565 N   0  0  0  0  0  0  0  0  0  0  0  0
  149.5836  136.4488  185.0227 C   0  0  0  0  0  0  0  0  0  0  0  0
  150.5406  136.4637  186.0070 C   0  0  0  0  0  0  0  0  0  0  0  0
  151.7583  136.8736  185.6253 N   0  0  0  0  0  0  0  0  0  0  0  0
  150.3097  136.0732  187.3902 C   0  0  0  0  0  0  0  0  0  0  0  0
  149.0548  135.7813  187.8848 C   0  0  0  0  0  0  0  0  0  0  0  0
  148.8793  135.4234  189.1716 N   0  0  0  0  0  0  0  0  0  0  0  0
  149.8997  135.3243  190.0606 C   0  0  0  0  0  0  0  0  0  0  0  0
  151.1252  135.6078  189.5833 N   0  0  0  0  0  0  0  0  0  0  0  0
  151.3399  135.9686  188.3053 C   0  0  0  0  0  0  0  0  0  0  0  0
  149.6926  134.9465  191.4063 N   0  0  0  0  0  0  0  0  0  0  0  0
  148.9389  133.7923  191.8152 C   0  0  0  0  0  0  0  0  0  0  0  0
  148.7097  133.9321  193.3016 C   0  0  0  0  0  0  0  0  0  0  0  0
  149.8485  133.6779  194.1936 C   0  0  0  0  0  0  0  0  0  0  0  0
  149.5176  135.0584  193.7652 C   0  0  0  0  0  0  0  0  0  0  0  0
  150.1928  135.6434  192.5602 C   0  0  0  0  0  0  0  0  0  0  0  0
  156.3492  138.9681  185.8029 C   0  0  0  0  0  0  0  0  0  0  0  0
  155.5496  138.9148  184.5243 C   0  0  0  0  0  0  0  0  0  0  0  0
  155.5520  140.2533  183.9668 N   0  0  0  0  0  0  0  0  0  0  0  0
  154.4517  140.9872  183.7395 C   0  0  0  0  0  0  0  0  0  0  0  0
  154.8726  142.1515  183.2247 N   0  0  0  0  0  0  0  0  0  0  0  0
  156.2107  142.1441  183.1325 C   0  0  0  0  0  0  0  0  0  0  0  0
  157.0787  143.0812  182.6802 N   0  0  0  0  0  0  0  0  0  0  0  0
  156.5679  144.3450  182.1903 C   0  0  0  0  0  0  0  0  0  0  0  0
  158.3879  142.7934  182.7069 C   0  0  0  0  0  0  0  0  0  0  0  0
  159.1673  143.6919  182.2772 O   0  0  0  0  0  0  0  0  0  0  0  0
  158.8653  141.6016  183.1693 N   0  0  0  0  0  0  0  0  0  0  0  0
  158.0111  140.6731  183.6168 C   0  0  0  0  0  0  0  0  0  0  0  0
  158.4339  139.5773  184.0432 O   0  0  0  0  0  0  0  0  0  0  0  0
  156.6597  140.9177  183.6112 C   0  0  0  0  0  0  0  0  0  0  0  0
  160.2928  141.4118  183.1462 C   0  0  0  0  0  0  0  0  0  0  0  0
  160.8761  141.9135  184.4209 C   0  0  0  0  0  0  0  0  0  0  0  0
  162.3303  142.1166  184.5184 C   0  0  0  0  0  0  0  0  0  0  0  0
  160.1564  142.1549  185.3773 O   0  0  0  0  0  0  0  0  0  0  0  0
 23 24  1  0  0  0
 24  1  1  0  0  0
  1  2  2  0  0  0
  1  3  1  0  0  0
  3  5  1  0  0  0
  5  6  2  0  0  0
  6  7  1  0  0  0
  7  8  2  0  0  0
  8  9  1  0  0  0
  9 10  2  0  0  0
  9 11  1  0  0  0
 11 12  2  0  0  0
 12 13  1  0  0  0
 13 14  2  0  0  0
 14 15  1  0  0  0
 15 16  2  0  0  0
 14 17  1  0  0  0
 17 18  1  0  0  0
 18 19  1  0  0  0
 19 20  1  0  0  0
 20 21  1  0  0  0
 21 22  1  0  0  0
 24 25  1  0  0  0
 25 26  1  0  0  0
 26 27  2  0  0  0
 27 28  1  0  0  0
 28 29  1  0  0  0
 29 30  1  0  0  0
 29 31  1  0  0  0
 31 32  2  0  0  0
 31 33  1  0  0  0
 33 37  1  0  0  0
 37 38  1  0  0  0
 38 39  1  0  0  0
 38 40  2  0  0  0
 33 34  1  0  0  0
 34 35  2  0  0  0
 34 36  1  0  0  0
 10  5  1  0  0  0
 16 11  1  0  0  0
 22 17  1  0  0  0
 36 25  1  0  0  0
 21 19  1  0  0  0
 36 28  2  0  0  0
  3  4  1  0  0  0
M  END
> <minimizedAffinity>
-7.83194

> <CNNscore>
0.2294608504

> <CNNaffinity>
6.3159527779

> <CNN_VS>
1.4492639303

> <CNNaffinity_variance>
0.0986350626

$$$$
[H]c1nc([H])c(N([H])C(=O)[C@@]([H])(n2c([H])nc3c2c(=O)n(C([H])([H])C(=O)C([H])([H])[H])c(=O)n3C([H])([H])[H])C([H])([H])[H])nc1-c1c([H])nc(N2C([H])([H])C3([H])C([H])([H])C3([H])C2([H])[H])nc1[H]


 40 45  0  0  0  0  0  0  0  0999 V2000
  154.5875  138.4253  185.6978 C   0  0  0  0  0  0  0  0  0  0  0  0
  153.7658  139.2597  186.1391 O   0  0  0  0  0  0  0  0  0  0  0  0
  155.1775  137.5329  186.6002 N   0  0  0  0  0  0  0  0  0  0  0  0
  155.8844  136.7952  186.3028 H   0  0  0  0  0  0  0  0  0  0  0  0
  154.8687  137.5512  187.9956 C   0  0  0  0  0  0  0  0  0  0  0  0
  155.6678  138.2693  188.8751 C   0  0  0  0  0  0  0  0  0  0  0  0
  155.3576  138.2699  190.1710 N   0  0  0  0  0  0  0  0  0  0  0  0
  154.2908  137.5898  190.6308 C   0  0  0  0  0  0  0  0  0  0  0  0
  153.4705  136.8652  189.8018 C   0  0  0  0  0  0  0  0  0  0  0  0
  153.8011  136.8787  188.5029 N   0  0  0  0  0  0  0  0  0  0  0  0
  152.3058  136.1119  190.2438 C   0  0  0  0  0  0  0  0  0  0  0  0
  151.8199  136.1760  191.5339 C   0  0  0  0  0  0  0  0  0  0  0  0
  150.7390  135.4638  191.9071 N   0  0  0  0  0  0  0  0  0  0  0  0
  150.0600  134.6472  191.0625 C   0  0  0  0  0  0  0  0  0  0  0  0
  150.5298  134.5812  189.8035 N   0  0  0  0  0  0  0  0  0  0  0  0
  151.6057  135.2770  189.3938 C   0  0  0  0  0  0  0  0  0  0  0  0
  148.9279  133.9093  191.4755 N   0  0  0  0  0  0  0  0  0  0  0  0
  148.0197  133.2509  190.5759 C   0  0  0  0  0  0  0  0  0  0  0  0
  146.8129  132.8570  191.3942 C   0  0  0  0  0  0  0  0  0  0  0  0
  146.9529  131.7171  192.3097 C   0  0  0  0  0  0  0  0  0  0  0  0
  147.1357  133.1053  192.7979 C   0  0  0  0  0  0  0  0  0  0  0  0
  148.5107  133.7036  192.8359 C   0  0  0  0  0  0  0  0  0  0  0  0
  155.8771  139.5406  183.9786 C   0  0  0  0  0  0  0  0  0  0  0  0
  154.8911  138.4285  184.2396 C   0  0  0  0  0  0  0  0  0  0  0  0
  153.7150  138.7084  183.4392 N   0  0  0  0  0  0  0  0  0  0  0  0
  153.4819  139.8677  182.8047 C   0  0  0  0  0  0  0  0  0  0  0  0
  152.3021  139.7287  182.1829 N   0  0  0  0  0  0  0  0  0  0  0  0
  151.8083  138.5054  182.4251 C   0  0  0  0  0  0  0  0  0  0  0  0
  150.6607  137.9105  182.0186 N   0  0  0  0  0  0  0  0  0  0  0  0
  149.7419  138.6431  181.1718 C   0  0  0  0  0  0  0  0  0  0  0  0
  150.4239  136.6544  182.4235 C   0  0  0  0  0  0  0  0  0  0  0  0
  149.3434  136.1321  182.0244 O   0  0  0  0  0  0  0  0  0  0  0  0
  151.2920  135.9673  183.2212 N   0  0  0  0  0  0  0  0  0  0  0  0
  152.4267  136.5516  183.6250 C   0  0  0  0  0  0  0  0  0  0  0  0
  153.2310  135.9346  184.3556 O   0  0  0  0  0  0  0  0  0  0  0  0
  152.7173  137.8370  183.2386 C   0  0  0  0  0  0  0  0  0  0  0  0
  150.9245  134.6241  183.5886 C   0  0  0  0  0  0  0  0  0  0  0  0
  150.3991  134.6218  184.9817 C   0  0  0  0  0  0  0  0  0  0  0  0
  150.9954  133.7159  185.9763 C   0  0  0  0  0  0  0  0  0  0  0  0
  149.4824  135.3637  185.2980 O   0  0  0  0  0  0  0  0  0  0  0  0
 23 24  1  0  0  0
 24  1  1  0  0  0
  1  2  2  0  0  0
  1  3  1  0  0  0
  3  5  1  0  0  0
  5  6  2  0  0  0
  6  7  1  0  0  0
  7  8  2  0  0  0
  8  9  1  0  0  0
  9 10  2  0  0  0
  9 11  1  0  0  0
 11 12  2  0  0  0
 12 13  1  0  0  0
 13 14  2  0  0  0
 14 15  1  0  0  0
 15 16  2  0  0  0
 14 17  1  0  0  0
 17 18  1  0  0  0
 18 19  1  0  0  0
 19 20  1  0  0  0
 20 21  1  0  0  0
 21 22  1  0  0  0
 24 25  1  0  0  0
 25 26  1  0  0  0
 26 27  2  0  0  0
 27 28  1  0  0  0
 28 29  1  0  0  0
 29 30  1  0  0  0
 29 31  1  0  0  0
 31 32  2  0  0  0
 31 33  1  0  0  0
 33 37  1  0  0  0
 37 38  1  0  0  0
 38 39  1  0  0  0
 38 40  2  0  0  0
 33 34  1  0  0  0
 34 35  2  0  0  0
 34 36  1  0  0  0
 10  5  1  0  0  0
 16 11  1  0  0  0
 22 17  1  0  0  0
 36 25  1  0  0  0
 21 19  1  0  0  0
 36 28  2  0  0  0
  3  4  1  0  0  0
M  END
> <minimizedAffinity>
-5.21920

> <CNNscore>
0.2238201499

> <CNNaffinity>
6.0050840378

> <CNN_VS>
1.3440587521

> <CNNaffinity_variance>
0.1234426945

$$$$
[H]c1nc([H])c(N([H])C(=O)[C@@]([H])(n2c([H])nc3c2c(=O)n(C([H])([H])C(=O)C([H])([H])[H])c(=O)n3C([H])([H])[H])C([H])([H])[H])nc1-c1c([H])nc(N2C([H])([H])C3([H])C([H])([H])C3([H])C2([H])[H])nc1[H]


 40 45  0  0  0  0  0  0  0  0999 V2000
  155.7162  136.1203  188.2422 C   0  0  0  0  0  0  0  0  0  0  0  0
  156.4157  135.5928  187.3485 O   0  0  0  0  0  0  0  0  0  0  0  0
  155.0732  137.3298  187.9551 N   0  0  0  0  0  0  0  0  0  0  0  0
  154.4618  137.8396  188.6612 H   0  0  0  0  0  0  0  0  0  0  0  0
  155.1946  137.9693  186.6827 C   0  0  0  0  0  0  0  0  0  0  0  0
  156.3458  138.6791  186.3683 C   0  0  0  0  0  0  0  0  0  0  0  0
  156.4334  139.2657  185.1750 N   0  0  0  0  0  0  0  0  0  0  0  0
  155.4298  139.1785  184.2821 C   0  0  0  0  0  0  0  0  0  0  0  0
  154.2722  138.4888  184.5455 C   0  0  0  0  0  0  0  0  0  0  0  0
  154.2057  137.9070  185.7512 N   0  0  0  0  0  0  0  0  0  0  0  0
  153.1565  138.3623  183.6190 C   0  0  0  0  0  0  0  0  0  0  0  0
  153.0497  139.1195  182.4701 C   0  0  0  0  0  0  0  0  0  0  0  0
  152.0018  138.9751  181.6358 N   0  0  0  0  0  0  0  0  0  0  0  0
  150.9936  138.0941  181.8557 C   0  0  0  0  0  0  0  0  0  0  0  0
  151.0931  137.3534  182.9745 N   0  0  0  0  0  0  0  0  0  0  0  0
  152.1237  137.4691  183.8312 C   0  0  0  0  0  0  0  0  0  0  0  0
  149.9038  137.9589  180.9665 N   0  0  0  0  0  0  0  0  0  0  0  0
  149.3784  136.6980  180.5173 C   0  0  0  0  0  0  0  0  0  0  0  0
  148.4480  137.0043  179.3675 C   0  0  0  0  0  0  0  0  0  0  0  0
  147.1413  137.5938  179.6867 C   0  0  0  0  0  0  0  0  0  0  0  0
  148.2872  138.4558  179.3090 C   0  0  0  0  0  0  0  0  0  0  0  0
  149.1605  139.0405  180.3793 C   0  0  0  0  0  0  0  0  0  0  0  0
  157.0039  135.0849  190.0120 C   0  0  0  0  0  0  0  0  0  0  0  0
  155.6073  135.4327  189.5589 C   0  0  0  0  0  0  0  0  0  0  0  0
  154.8703  134.1877  189.4636 N   0  0  0  0  0  0  0  0  0  0  0  0
  155.4315  132.9787  189.3078 C   0  0  0  0  0  0  0  0  0  0  0  0
  154.4233  132.0958  189.2642 N   0  0  0  0  0  0  0  0  0  0  0  0
  153.2548  132.7421  189.3904 C   0  0  0  0  0  0  0  0  0  0  0  0
  151.9795  132.2842  189.4048 N   0  0  0  0  0  0  0  0  0  0  0  0
  151.7332  130.8635  189.2666 C   0  0  0  0  0  0  0  0  0  0  0  0
  150.9902  133.1777  189.5483 C   0  0  0  0  0  0  0  0  0  0  0  0
  149.8138  132.7136  189.5573 O   0  0  0  0  0  0  0  0  0  0  0  0
  151.2263  134.5154  189.6783 N   0  0  0  0  0  0  0  0  0  0  0  0
  152.4847  134.9717  189.6644 C   0  0  0  0  0  0  0  0  0  0  0  0
  152.7159  136.1940  189.7825 O   0  0  0  0  0  0  0  0  0  0  0  0
  153.5346  134.0984  189.5201 C   0  0  0  0  0  0  0  0  0  0  0  0
  150.0794  135.3740  189.8254 C   0  0  0  0  0  0  0  0  0  0  0  0
  149.5309  135.6967  188.4793 C   0  0  0  0  0  0  0  0  0  0  0  0
  148.1599  135.2833  188.1407 C   0  0  0  0  0  0  0  0  0  0  0  0
  150.2106  136.2986  187.6628 O   0  0  0  0  0  0  0  0  0  0  0  0
 23 24  1  0  0  0
 24  1  1  0  0  0
  1  2  2  0  0  0
  1  3  1  0  0  0
  3  5  1  0  0  0
  5  6  2  0  0  0
  6  7  1  0  0  0
  7  8  2  0  0  0
  8  9  1  0  0  0
  9 10  2  0  0  0
  9 11  1  0  0  0
 11 12  2  0  0  0
 12 13  1  0  0  0
 13 14  2  0  0  0
 14 15  1  0  0  0
 15 16  2  0  0  0
 14 17  1  0  0  0
 17 18  1  0  0  0
 18 19  1  0  0  0
 19 20  1  0  0  0
 20 21  1  0  0  0
 21 22  1  0  0  0
 24 25  1  0  0  0
 25 26  1  0  0  0
 26 27  2  0  0  0
 27 28  1  0  0  0
 28 29  1  0  0  0
 29 30  1  0  0  0
 29 31  1  0  0  0
 31 32  2  0  0  0
 31 33  1  0  0  0
 33 37  1  0  0  0
 37 38  1  0  0  0
 38 39  1  0  0  0
 38 40  2  0  0  0
 33 34  1  0  0  0
 34 35  2  0  0  0
 34 36  1  0  0  0
 10  5  1  0  0  0
 16 11  1  0  0  0
 22 17  1  0  0  0
 36 25  1  0  0  0
 21 19  1  0  0  0
 36 28  2  0  0  0
  3  4  1  0  0  0
M  END
> <minimizedAffinity>
-4.90466

> <CNNscore>
0.2122908384

> <CNNaffinity>
6.0874619484

> <CNN_VS>
1.2923123837

> <CNNaffinity_variance>
0.0714947134

$$$$
[H]c1nc([H])c(N([H])C(=O)[C@@]([H])(n2c([H])nc3c2c(=O)n(C([H])([H])C(=O)C([H])([H])[H])c(=O)n3C([H])([H])[H])C([H])([H])[H])nc1-c1c([H])nc(N2C([H])([H])C3([H])C([H])([H])C3([H])C2([H])[H])nc1[H]


 40 45  0  0  0  0  0  0  0  0999 V2000
  155.9141  136.3761  188.2848 C   0  0  0  0  0  0  0  0  0  0  0  0
  156.8166  135.9915  187.5079 O   0  0  0  0  0  0  0  0  0  0  0  0
  155.0757  137.4157  187.8660 N   0  0  0  0  0  0  0  0  0  0  0  0
  154.2863  137.7980  188.4685 H   0  0  0  0  0  0  0  0  0  0  0  0
  155.2235  138.0408  186.5892 C   0  0  0  0  0  0  0  0  0  0  0  0
  156.3868  138.7352  186.2856 C   0  0  0  0  0  0  0  0  0  0  0  0
  156.4990  139.3086  185.0880 N   0  0  0  0  0  0  0  0  0  0  0  0
  155.5083  139.2229  184.1806 C   0  0  0  0  0  0  0  0  0  0  0  0
  154.3396  138.5480  184.4330 C   0  0  0  0  0  0  0  0  0  0  0  0
  154.2484  137.9792  185.6432 N   0  0  0  0  0  0  0  0  0  0  0  0
  153.2370  138.4238  183.4906 C   0  0  0  0  0  0  0  0  0  0  0  0
  153.1360  139.1976  182.3524 C   0  0  0  0  0  0  0  0  0  0  0  0
  152.1002  139.0547  181.5028 N   0  0  0  0  0  0  0  0  0  0  0  0
  151.0992  138.1593  181.6962 C   0  0  0  0  0  0  0  0  0  0  0  0
  151.1932  137.4023  182.8046 N   0  0  0  0  0  0  0  0  0  0  0  0
  152.2116  137.5160  183.6760 C   0  0  0  0  0  0  0  0  0  0  0  0
  150.0221  138.0260  180.7914 N   0  0  0  0  0  0  0  0  0  0  0  0
  149.2923  136.8058  180.5774 C   0  0  0  0  0  0  0  0  0  0  0  0
  148.4556  137.0162  179.3376 C   0  0  0  0  0  0  0  0  0  0  0  0
  147.2669  137.8708  179.4546 C   0  0  0  0  0  0  0  0  0  0  0  0
  148.5549  138.4291  178.9771 C   0  0  0  0  0  0  0  0  0  0  0  0
  149.4943  139.0698  179.9554 C   0  0  0  0  0  0  0  0  0  0  0  0
  157.1222  135.1037  189.9533 C   0  0  0  0  0  0  0  0  0  0  0  0
  155.7828  135.7076  189.6092 C   0  0  0  0  0  0  0  0  0  0  0  0
  154.8235  134.6208  189.5778 N   0  0  0  0  0  0  0  0  0  0  0  0
  154.6818  133.7572  188.5604 C   0  0  0  0  0  0  0  0  0  0  0  0
  153.7010  132.9137  188.9133 N   0  0  0  0  0  0  0  0  0  0  0  0
  153.2394  133.2450  190.1283 C   0  0  0  0  0  0  0  0  0  0  0  0
  152.2652  132.6947  190.8926 N   0  0  0  0  0  0  0  0  0  0  0  0
  151.5383  131.5440  190.3972 C   0  0  0  0  0  0  0  0  0  0  0  0
  152.0145  133.2468  192.0885 C   0  0  0  0  0  0  0  0  0  0  0  0
  151.0989  132.7064  192.7735 O   0  0  0  0  0  0  0  0  0  0  0  0
  152.7014  134.3310  192.5519 N   0  0  0  0  0  0  0  0  0  0  0  0
  153.6645  134.8775  191.7997 C   0  0  0  0  0  0  0  0  0  0  0  0
  154.3019  135.8704  192.2111 O   0  0  0  0  0  0  0  0  0  0  0  0
  153.9610  134.3504  190.5668 C   0  0  0  0  0  0  0  0  0  0  0  0
  152.3388  134.8322  193.8524 C   0  0  0  0  0  0  0  0  0  0  0  0
  151.1771  135.7537  193.7177 C   0  0  0  0  0  0  0  0  0  0  0  0
  149.8864  135.3801  194.3177 C   0  0  0  0  0  0  0  0  0  0  0  0
  151.2921  136.8097  193.1156 O   0  0  0  0  0  0  0  0  0  0  0  0
 23 24  1  0  0  0
 24  1  1  0  0  0
  1  2  2  0  0  0
  1  3  1  0  0  0
  3  5  1  0  0  0
  5  6  2  0  0  0
  6  7  1  0  0  0
  7  8  2  0  0  0
  8  9  1  0  0  0
  9 10  2  0  0  0
  9 11  1  0  0  0
 11 12  2  0  0  0
 12 13  1  0  0  0
 13 14  2  0  0  0
 14 15  1  0  0  0
 15 16  2  0  0  0
 14 17  1  0  0  0
 17 18  1  0  0  0
 18 19  1  0  0  0
 19 20  1  0  0  0
 20 21  1  0  0  0
 21 22  1  0  0  0
 24 25  1  0  0  0
 25 26  1  0  0  0
 26 27  2  0  0  0
 27 28  1  0  0  0
 28 29  1  0  0  0
 29 30  1  0  0  0
 29 31  1  0  0  0
 31 32  2  0  0  0
 31 33  1  0  0  0
 33 37  1  0  0  0
 37 38  1  0  0  0
 38 39  1  0  0  0
 38 40  2  0  0  0
 33 34  1  0  0  0
 34 35  2  0  0  0
 34 36  1  0  0  0
 10  5  1  0  0  0
 16 11  1  0  0  0
 22 17  1  0  0  0
 36 25  1  0  0  0
 21 19  1  0  0  0
 36 28  2  0  0  0
  3  4  1  0  0  0
M  END
> <minimizedAffinity>
-5.96307

> <CNNscore>
0.1999800056

> <CNNaffinity>
5.8022961617

> <CNN_VS>
1.1603431702

> <CNNaffinity_variance>
0.0702915117

$$$$
[H]c1nc([H])c(N([H])C(=O)[C@@]([H])(n2c([H])nc3c2c(=O)n(C([H])([H])C(=O)C([H])([H])[H])c(=O)n3C([H])([H])[H])C([H])([H])[H])nc1-c1c([H])nc(N2C([H])([H])C3([H])C([H])([H])C3([H])C2([H])[H])nc1[H]


 40 45  0  0  0  0  0  0  0  0999 V2000
  155.8837  135.6895  188.5887 C   0  0  0  0  0  0  0  0  0  0  0  0
  155.9568  135.0332  187.5256 O   0  0  0  0  0  0  0  0  0  0  0  0
  155.1318  136.8700  188.5900 N   0  0  0  0  0  0  0  0  0  0  0  0
  155.0216  137.4824  189.4532 H   0  0  0  0  0  0  0  0  0  0  0  0
  154.4544  137.3384  187.4219 C   0  0  0  0  0  0  0  0  0  0  0  0
  153.1131  137.0367  187.2281 C   0  0  0  0  0  0  0  0  0  0  0  0
  152.5054  137.4859  186.1306 N   0  0  0  0  0  0  0  0  0  0  0  0
  153.1701  138.2201  185.2189 C   0  0  0  0  0  0  0  0  0  0  0  0
  154.4961  138.5449  185.3650 C   0  0  0  0  0  0  0  0  0  0  0  0
  155.0871  138.0828  186.4758 N   0  0  0  0  0  0  0  0  0  0  0  0
  155.2635  139.3340  184.4124 C   0  0  0  0  0  0  0  0  0  0  0  0
  156.6266  139.5199  184.5224 C   0  0  0  0  0  0  0  0  0  0  0  0
  157.3039  140.2575  183.6212 N   0  0  0  0  0  0  0  0  0  0  0  0
  156.7116  140.8608  182.5599 C   0  0  0  0  0  0  0  0  0  0  0  0
  155.3827  140.6825  182.4481 N   0  0  0  0  0  0  0  0  0  0  0  0
  154.6725  139.9533  183.3276 C   0  0  0  0  0  0  0  0  0  0  0  0
  157.4418  141.6299  181.6262 N   0  0  0  0  0  0  0  0  0  0  0  0
  157.3803  143.0636  181.5355 C   0  0  0  0  0  0  0  0  0  0  0  0
  158.0539  143.4424  180.2377 C   0  0  0  0  0  0  0  0  0  0  0  0
  159.5193  143.3621  180.1819 C   0  0  0  0  0  0  0  0  0  0  0  0
  158.6820  142.2362  179.7022 C   0  0  0  0  0  0  0  0  0  0  0  0
  158.3457  141.1112  180.6357 C   0  0  0  0  0  0  0  0  0  0  0  0
  157.9400  134.6541  189.3381 C   0  0  0  0  0  0  0  0  0  0  0  0
  156.5996  135.1787  189.7907 C   0  0  0  0  0  0  0  0  0  0  0  0
  155.8990  134.0718  190.4121 N   0  0  0  0  0  0  0  0  0  0  0  0
  156.1749  132.7763  190.1960 C   0  0  0  0  0  0  0  0  0  0  0  0
  155.3144  132.0752  190.9482 N   0  0  0  0  0  0  0  0  0  0  0  0
  154.5165  132.9176  191.6211 C   0  0  0  0  0  0  0  0  0  0  0  0
  153.5068  132.6838  192.4940 N   0  0  0  0  0  0  0  0  0  0  0  0
  153.1526  131.3180  192.8214 C   0  0  0  0  0  0  0  0  0  0  0  0
  152.8727  133.7404  193.0224 C   0  0  0  0  0  0  0  0  0  0  0  0
  151.9362  133.4834  193.8326 O   0  0  0  0  0  0  0  0  0  0  0  0
  153.2093  135.0258  192.7115 N   0  0  0  0  0  0  0  0  0  0  0  0
  154.2062  135.2609  191.8496 C   0  0  0  0  0  0  0  0  0  0  0  0
  154.5254  136.4326  191.5556 O   0  0  0  0  0  0  0  0  0  0  0  0
  154.8881  134.2138  191.2799 C   0  0  0  0  0  0  0  0  0  0  0  0
  152.4527  136.0749  193.3449 C   0  0  0  0  0  0  0  0  0  0  0  0
  151.1273  136.1968  192.6776 C   0  0  0  0  0  0  0  0  0  0  0  0
  151.0626  136.2698  191.2093 C   0  0  0  0  0  0  0  0  0  0  0  0
  150.1026  136.2358  193.3405 O   0  0  0  0  0  0  0  0  0  0  0  0
 23 24  1  0  0  0
 24  1  1  0  0  0
  1  2  2  0  0  0
  1  3  1  0  0  0
  3  5  1  0  0  0
  5  6  2  0  0  0
  6  7  1  0  0  0
  7  8  2  0  0  0
  8  9  1  0  0  0
  9 10  2  0  0  0
  9 11  1  0  0  0
 11 12  2  0  0  0
 12 13  1  0  0  0
 13 14  2  0  0  0
 14 15  1  0  0  0
 15 16  2  0  0  0
 14 17  1  0  0  0
 17 18  1  0  0  0
 18 19  1  0  0  0
 19 20  1  0  0  0
 20 21  1  0  0  0
 21 22  1  0  0  0
 24 25  1  0  0  0
 25 26  1  0  0  0
 26 27  2  0  0  0
 27 28  1  0  0  0
 28 29  1  0  0  0
 29 30  1  0  0  0
 29 31  1  0  0  0
 31 32  2  0  0  0
 31 33  1  0  0  0
 33 37  1  0  0  0
 37 38  1  0  0  0
 38 39  1  0  0  0
 38 40  2  0  0  0
 33 34  1  0  0  0
 34 35  2  0  0  0
 34 36  1  0  0  0
 10  5  1  0  0  0
 16 11  1  0  0  0
 22 17  1  0  0  0
 36 25  1  0  0  0
 21 19  1  0  0  0
 36 28  2  0  0  0
  3  4  1  0  0  0
M  END
> <minimizedAffinity>
-7.69101

> <CNNscore>
0.1932493746

> <CNNaffinity>
6.1735620499

> <CNN_VS>
1.1930370331

> <CNNaffinity_variance>
0.1209253296

$$$$
[H]c1nc(N2C([H])([H])C3([H])C([H])([H])C3([H])C2([H])[H])c([H])c([H])c1-c1nc(N([H])C(=O)[C@@]([H])(n2c([H])nc3c2c(=O)n(C([H])([H])C(=O)C([H])([H])C([H])([H])[H])c(=O)n3C([H])([H])[H])C([H])([H])[H])c([H])c([H])c1[H]


 41 46  0  0  0  0  0  0  0  0999 V2000
  150.7081  137.7936  181.6525 C   0  0  0  0  0  0  0  0  0  0  0  0
  151.1455  136.9425  180.7256 O   0  0  0  0  0  0  0  0  0  0  0  0
  149.5620  137.4245  182.2923 N   0  0  0  0  0  0  0  0  0  0  0  0
  149.1487  136.4410  181.9271 H   0  0  0  0  0  0  0  0  0  0  0  0
  148.8127  137.9852  183.3347 C   0  0  0  0  0  0  0  0  0  0  0  0
  147.9376  139.0145  183.2910 C   0  0  0  0  0  0  0  0  0  0  0  0
  147.2520  139.4256  184.4306 C   0  0  0  0  0  0  0  0  0  0  0  0
  147.4670  138.7797  185.6125 C   0  0  0  0  0  0  0  0  0  0  0  0
  148.3473  137.7365  185.6831 C   0  0  0  0  0  0  0  0  0  0  0  0
  148.9781  137.3788  184.5723 N   0  0  0  0  0  0  0  0  0  0  0  0
  148.5923  137.0170  186.9519 C   0  0  0  0  0  0  0  0  0  0  0  0
  149.7855  136.4516  187.2783 C   0  0  0  0  0  0  0  0  0  0  0  0
  149.9091  135.8044  188.4953 C   0  0  0  0  0  0  0  0  0  0  0  0
  148.8740  135.6999  189.4089 C   0  0  0  0  0  0  0  0  0  0  0  0
  147.7105  136.2710  189.0502 N   0  0  0  0  0  0  0  0  0  0  0  0
  147.5619  136.9025  187.8812 C   0  0  0  0  0  0  0  0  0  0  0  0
  149.0486  135.0303  190.6353 N   0  0  0  0  0  0  0  0  0  0  0  0
  149.9219  135.4395  191.7250 C   0  0  0  0  0  0  0  0  0  0  0  0
  150.1035  134.1060  192.3679 C   0  0  0  0  0  0  0  0  0  0  0  0
  149.4788  133.4103  193.4063 C   0  0  0  0  0  0  0  0  0  0  0  0
  148.5374  133.8784  192.4822 C   0  0  0  0  0  0  0  0  0  0  0  0
  148.3638  133.8017  191.0040 C   0  0  0  0  0  0  0  0  0  0  0  0
  151.5578  138.9774  181.7973 C   0  0  0  0  0  0  0  0  0  0  0  0
  152.3450  139.1226  180.4766 C   0  0  0  0  0  0  0  0  0  0  0  0
  155.2388  141.2431  183.1198 N   0  0  0  0  0  0  0  0  0  0  0  0
  155.8901  140.6030  184.1087 C   0  0  0  0  0  0  0  0  0  0  0  0
  156.9301  141.1516  184.5501 O   0  0  0  0  0  0  0  0  0  0  0  0
  155.4512  139.4339  184.6019 N   0  0  0  0  0  0  0  0  0  0  0  0
  156.2125  138.8165  185.6614 C   0  0  0  0  0  0  0  0  0  0  0  0
  154.3340  138.8703  184.1093 C   0  0  0  0  0  0  0  0  0  0  0  0
  153.6883  137.7267  184.4180 N   0  0  0  0  0  0  0  0  0  0  0  0
  152.6187  137.6566  183.6069 C   0  0  0  0  0  0  0  0  0  0  0  0
  152.5802  138.7124  182.8108 N   0  0  0  0  0  0  0  0  0  0  0  0
  153.6164  139.4873  183.0837 C   0  0  0  0  0  0  0  0  0  0  0  0
  154.1215  140.6936  182.6171 C   0  0  0  0  0  0  0  0  0  0  0  0
  153.4988  141.2818  181.6896 O   0  0  0  0  0  0  0  0  0  0  0  0
  155.6927  142.5023  182.5692 C   0  0  0  0  0  0  0  0  0  0  0  0
  156.8627  142.2924  181.7059 C   0  0  0  0  0  0  0  0  0  0  0  0
  156.8545  141.4419  180.8480 O   0  0  0  0  0  0  0  0  0  0  0  0
  158.7897  143.2784  180.5354 C   0  0  0  0  0  0  0  0  0  0  0  0
  158.0894  143.1212  181.8645 C   0  0  0  0  0  0  0  0  0  0  0  0
 40 41  1  0  0  0
 41 38  1  0  0  0
 38 39  2  0  0  0
 38 37  1  0  0  0
 37 25  1  0  0  0
 25 26  1  0  0  0
 26 27  2  0  0  0
 26 28  1  0  0  0
 28 29  1  0  0  0
 28 30  1  0  0  0
 30 31  1  0  0  0
 31 32  2  0  0  0
 32 33  1  0  0  0
 33 23  1  0  0  0
 23 24  1  0  0  0
 23  1  1  0  0  0
  1  2  2  0  0  0
  1  3  1  0  0  0
  3  5  1  0  0  0
  5  6  2  0  0  0
  6  7  1  0  0  0
  7  8  2  0  0  0
  8  9  1  0  0  0
  9 10  2  0  0  0
  9 11  1  0  0  0
 11 12  2  0  0  0
 12 13  1  0  0  0
 13 14  2  0  0  0
 14 15  1  0  0  0
 15 16  2  0  0  0
 14 17  1  0  0  0
 17 18  1  0  0  0
 18 19  1  0  0  0
 19 20  1  0  0  0
 20 21  1  0  0  0
 21 22  1  0  0  0
 33 34  1  0  0  0
 34 35  1  0  0  0
 35 36  2  0  0  0
 35 25  1  0  0  0
 34 30  2  0  0  0
 10  5  1  0  0  0
 16 11  1  0  0  0
 22 17  1  0  0  0
 21 19  1  0  0  0
  3  4  1  0  0  0
M  END
> <minimizedAffinity>
-7.62955

> <CNNscore>
0.3257306516

> <CNNaffinity>
6.2409873009

> <CNN_VS>
2.0328807831

> <CNNaffinity_variance>
0.1593010724

$$$$
[H]c1nc(N2C([H])([H])C3([H])C([H])([H])C3([H])C2([H])[H])c([H])c([H])c1-c1nc(N([H])C(=O)[C@@]([H])(n2c([H])nc3c2c(=O)n(C([H])([H])C(=O)C([H])([H])C([H])([H])[H])c(=O)n3C([H])([H])[H])C([H])([H])[H])c([H])c([H])c1[H]


 41 46  0  0  0  0  0  0  0  0999 V2000
  152.3595  136.6156  184.7470 C   0  0  0  0  0  0  0  0  0  0  0  0
  151.4815  135.7516  185.2545 O   0  0  0  0  0  0  0  0  0  0  0  0
  151.8641  137.4696  183.8066 N   0  0  0  0  0  0  0  0  0  0  0  0
  150.7691  137.3060  183.5935 H   0  0  0  0  0  0  0  0  0  0  0  0
  152.4148  138.5335  183.0804 C   0  0  0  0  0  0  0  0  0  0  0  0
  151.9205  139.1611  181.9901 C   0  0  0  0  0  0  0  0  0  0  0  0
  152.5945  140.2309  181.4076 C   0  0  0  0  0  0  0  0  0  0  0  0
  153.7746  140.6532  181.9454 C   0  0  0  0  0  0  0  0  0  0  0  0
  154.2959  140.0349  183.0472 C   0  0  0  0  0  0  0  0  0  0  0  0
  153.6195  139.0199  183.5691 N   0  0  0  0  0  0  0  0  0  0  0  0
  155.5707  140.4789  183.6516 C   0  0  0  0  0  0  0  0  0  0  0  0
  156.3873  139.6629  184.3709 C   0  0  0  0  0  0  0  0  0  0  0  0
  157.5616  140.1794  184.8896 C   0  0  0  0  0  0  0  0  0  0  0  0
  157.9556  141.4952  184.7148 C   0  0  0  0  0  0  0  0  0  0  0  0
  157.1221  142.2704  183.9987 N   0  0  0  0  0  0  0  0  0  0  0  0
  155.9811  141.7989  183.4857 C   0  0  0  0  0  0  0  0  0  0  0  0
  159.1608  141.9746  185.2631 N   0  0  0  0  0  0  0  0  0  0  0  0
  160.2822  142.5345  184.5242 C   0  0  0  0  0  0  0  0  0  0  0  0
  161.3551  142.2663  185.5250 C   0  0  0  0  0  0  0  0  0  0  0  0
  161.9478  142.9885  186.5640 C   0  0  0  0  0  0  0  0  0  0  0  0
  160.5527  143.0066  186.6762 C   0  0  0  0  0  0  0  0  0  0  0  0
  159.4695  141.9829  186.6840 C   0  0  0  0  0  0  0  0  0  0  0  0
  153.7045  136.4689  185.3069 C   0  0  0  0  0  0  0  0  0  0  0  0
  153.8613  134.9840  185.7015 C   0  0  0  0  0  0  0  0  0  0  0  0
  156.5744  136.2943  188.7948 N   0  0  0  0  0  0  0  0  0  0  0  0
  156.2411  137.1720  189.7595 C   0  0  0  0  0  0  0  0  0  0  0  0
  156.9783  137.2038  190.7759 O   0  0  0  0  0  0  0  0  0  0  0  0
  155.1724  137.9762  189.6434 N   0  0  0  0  0  0  0  0  0  0  0  0
  154.8881  138.8865  190.7270 C   0  0  0  0  0  0  0  0  0  0  0  0
  154.4013  137.9198  188.5431 C   0  0  0  0  0  0  0  0  0  0  0  0
  153.2949  138.6012  188.1803 N   0  0  0  0  0  0  0  0  0  0  0  0
  152.9363  138.1384  186.9704 C   0  0  0  0  0  0  0  0  0  0  0  0
  153.7785  137.1986  186.5736 N   0  0  0  0  0  0  0  0  0  0  0  0
  154.6973  137.0298  187.5097 C   0  0  0  0  0  0  0  0  0  0  0  0
  155.8147  136.2257  187.6897 C   0  0  0  0  0  0  0  0  0  0  0  0
  156.1143  135.4081  186.7755 O   0  0  0  0  0  0  0  0  0  0  0  0
  157.7193  135.4147  188.8971 C   0  0  0  0  0  0  0  0  0  0  0  0
  157.3826  134.2251  189.6904 C   0  0  0  0  0  0  0  0  0  0  0  0
  156.2345  133.8725  189.8209 O   0  0  0  0  0  0  0  0  0  0  0  0
  157.9043  132.7693  191.6046 C   0  0  0  0  0  0  0  0  0  0  0  0
  158.4459  133.4220  190.3547 C   0  0  0  0  0  0  0  0  0  0  0  0
 40 41  1  0  0  0
 41 38  1  0  0  0
 38 39  2  0  0  0
 38 37  1  0  0  0
 37 25  1  0  0  0
 25 26  1  0  0  0
 26 27  2  0  0  0
 26 28  1  0  0  0
 28 29  1  0  0  0
 28 30  1  0  0  0
 30 31  1  0  0  0
 31 32  2  0  0  0
 32 33  1  0  0  0
 33 23  1  0  0  0
 23 24  1  0  0  0
 23  1  1  0  0  0
  1  2  2  0  0  0
  1  3  1  0  0  0
  3  5  1  0  0  0
  5  6  2  0  0  0
  6  7  1  0  0  0
  7  8  2  0  0  0
  8  9  1  0  0  0
  9 10  2  0  0  0
  9 11  1  0  0  0
 11 12  2  0  0  0
 12 13  1  0  0  0
 13 14  2  0  0  0
 14 15  1  0  0  0
 15 16  2  0  0  0
 14 17  1  0  0  0
 17 18  1  0  0  0
 18 19  1  0  0  0
 19 20  1  0  0  0
 20 21  1  0  0  0
 21 22  1  0  0  0
 33 34  1  0  0  0
 34 35  1  0  0  0
 35 36  2  0  0  0
 35 25  1  0  0  0
 34 30  2  0  0  0
 10  5  1  0  0  0
 16 11  1  0  0  0
 22 17  1  0  0  0
 21 19  1  0  0  0
  3  4  1  0  0  0
M  END
> <minimizedAffinity>
-9.10039

> <CNNscore>
0.2805176973

> <CNNaffinity>
6.8451728821

> <CNN_VS>
1.9201921225

> <CNNaffinity_variance>
0.3433318734

$$$$
[H]c1nc(N2C([H])([H])C3([H])C([H])([H])C3([H])C2([H])[H])c([H])c([H])c1-c1nc(N([H])C(=O)[C@@]([H])(n2c([H])nc3c2c(=O)n(C([H])([H])C(=O)C([H])([H])C([H])([H])[H])c(=O)n3C([H])([H])[H])C([H])([H])[H])c([H])c([H])c1[H]


 41 46  0  0  0  0  0  0  0  0999 V2000
  150.1477  133.2955  188.5686 C   0  0  0  0  0  0  0  0  0  0  0  0
  149.0839  132.5428  188.8454 O   0  0  0  0  0  0  0  0  0  0  0  0
  150.0010  134.1537  187.5193 N   0  0  0  0  0  0  0  0  0  0  0  0
  148.9857  134.0884  187.0332 H   0  0  0  0  0  0  0  0  0  0  0  0
  150.8269  135.1279  186.9438 C   0  0  0  0  0  0  0  0  0  0  0  0
  150.8575  136.4588  187.1774 C   0  0  0  0  0  0  0  0  0  0  0  0
  151.7736  137.2828  186.5296 C   0  0  0  0  0  0  0  0  0  0  0  0
  152.6556  136.7386  185.6430 C   0  0  0  0  0  0  0  0  0  0  0  0
  152.6447  135.3956  185.3889 C   0  0  0  0  0  0  0  0  0  0  0  0
  151.7545  134.6487  186.0290 N   0  0  0  0  0  0  0  0  0  0  0  0
  153.5952  134.7819  184.4363 C   0  0  0  0  0  0  0  0  0  0  0  0
  153.6758  135.1295  183.1238 C   0  0  0  0  0  0  0  0  0  0  0  0
  154.6055  134.4947  182.3190 C   0  0  0  0  0  0  0  0  0  0  0  0
  155.4678  133.5150  182.7812 C   0  0  0  0  0  0  0  0  0  0  0  0
  155.3576  133.1986  184.0836 N   0  0  0  0  0  0  0  0  0  0  0  0
  154.4688  133.7948  184.8848 C   0  0  0  0  0  0  0  0  0  0  0  0
  156.3972  132.8973  181.9224 N   0  0  0  0  0  0  0  0  0  0  0  0
  157.4733  132.0009  182.3171 C   0  0  0  0  0  0  0  0  0  0  0  0
  158.3682  132.2078  181.1420 C   0  0  0  0  0  0  0  0  0  0  0  0
  158.5630  131.5658  179.9163 C   0  0  0  0  0  0  0  0  0  0  0  0
  157.2085  131.8554  180.1181 C   0  0  0  0  0  0  0  0  0  0  0  0
  156.4185  133.0667  180.4783 C   0  0  0  0  0  0  0  0  0  0  0  0
  151.2822  133.0424  189.4591 C   0  0  0  0  0  0  0  0  0  0  0  0
  150.9705  131.7310  190.2129 C   0  0  0  0  0  0  0  0  0  0  0  0
  154.0225  136.5515  190.2402 N   0  0  0  0  0  0  0  0  0  0  0  0
  153.6549  137.2366  191.3391 C   0  0  0  0  0  0  0  0  0  0  0  0
  154.3534  138.2347  191.6445 O   0  0  0  0  0  0  0  0  0  0  0  0
  152.5928  136.8727  192.0753 N   0  0  0  0  0  0  0  0  0  0  0  0
  152.2711  137.6642  193.2387 C   0  0  0  0  0  0  0  0  0  0  0  0
  151.8634  135.7991  191.7234 C   0  0  0  0  0  0  0  0  0  0  0  0
  150.7720  135.2291  192.2750 N   0  0  0  0  0  0  0  0  0  0  0  0
  150.4576  134.1731  191.5051 C   0  0  0  0  0  0  0  0  0  0  0  0
  151.3125  134.0703  190.5008 N   0  0  0  0  0  0  0  0  0  0  0  0
  152.1961  135.0497  190.5941 C   0  0  0  0  0  0  0  0  0  0  0  0
  153.3045  135.4770  189.8753 C   0  0  0  0  0  0  0  0  0  0  0  0
  153.6360  134.8241  188.8468 O   0  0  0  0  0  0  0  0  0  0  0  0
  155.1645  136.9214  189.4316 C   0  0  0  0  0  0  0  0  0  0  0  0
  156.3004  136.0331  189.7119 C   0  0  0  0  0  0  0  0  0  0  0  0
  156.9993  135.6204  188.8170 O   0  0  0  0  0  0  0  0  0  0  0  0
  156.6648  134.1106  191.2043 C   0  0  0  0  0  0  0  0  0  0  0  0
  156.6213  135.6173  191.1051 C   0  0  0  0  0  0  0  0  0  0  0  0
 40 41  1  0  0  0
 41 38  1  0  0  0
 38 39  2  0  0  0
 38 37  1  0  0  0
 37 25  1  0  0  0
 25 26  1  0  0  0
 26 27  2  0  0  0
 26 28  1  0  0  0
 28 29  1  0  0  0
 28 30  1  0  0  0
 30 31  1  0  0  0
 31 32  2  0  0  0
 32 33  1  0  0  0
 33 23  1  0  0  0
 23 24  1  0  0  0
 23  1  1  0  0  0
  1  2  2  0  0  0
  1  3  1  0  0  0
  3  5  1  0  0  0
  5  6  2  0  0  0
  6  7  1  0  0  0
  7  8  2  0  0  0
  8  9  1  0  0  0
  9 10  2  0  0  0
  9 11  1  0  0  0
 11 12  2  0  0  0
 12 13  1  0  0  0
 13 14  2  0  0  0
 14 15  1  0  0  0
 15 16  2  0  0  0
 14 17  1  0  0  0
 17 18  1  0  0  0
 18 19  1  0  0  0
 19 20  1  0  0  0
 20 21  1  0  0  0
 21 22  1  0  0  0
 33 34  1  0  0  0
 34 35  1  0  0  0
 35 36  2  0  0  0
 35 25  1  0  0  0
 34 30  2  0  0  0
 10  5  1  0  0  0
 16 11  1  0  0  0
 22 17  1  0  0  0
 21 19  1  0  0  0
  3  4  1  0  0  0
M  END
> <minimizedAffinity>
-5.42684

> <CNNscore>
0.2796265185

> <CNNaffinity>
5.9156007767

> <CNN_VS>
1.6541588306

> <CNNaffinity_variance>
0.0541796573

$$$$
[H]c1nc(N2C([H])([H])C3([H])C([H])([H])C3([H])C2([H])[H])c([H])c([H])c1-c1nc(N([H])C(=O)[C@@]([H])(n2c([H])nc3c2c(=O)n(C([H])([H])C(=O)C([H])([H])C([H])([H])[H])c(=O)n3C([H])([H])[H])C([H])([H])[H])c([H])c([H])c1[H]


 41 46  0  0  0  0  0  0  0  0999 V2000
  150.7920  134.0558  188.9509 C   0  0  0  0  0  0  0  0  0  0  0  0
  149.7133  133.4114  189.3937 O   0  0  0  0  0  0  0  0  0  0  0  0
  150.5984  134.8320  187.8468 N   0  0  0  0  0  0  0  0  0  0  0  0
  149.5373  134.8033  187.4665 H   0  0  0  0  0  0  0  0  0  0  0  0
  151.4257  135.6895  187.1102 C   0  0  0  0  0  0  0  0  0  0  0  0
  151.5467  137.0329  187.1981 C   0  0  0  0  0  0  0  0  0  0  0  0
  152.4499  137.7284  186.3990 C   0  0  0  0  0  0  0  0  0  0  0  0
  153.2260  137.0432  185.5111 C   0  0  0  0  0  0  0  0  0  0  0  0
  153.1221  135.6847  185.4027 C   0  0  0  0  0  0  0  0  0  0  0  0
  152.2484  135.0634  186.1840 N   0  0  0  0  0  0  0  0  0  0  0  0
  153.9574  134.9195  184.4516 C   0  0  0  0  0  0  0  0  0  0  0  0
  154.8032  133.9223  184.8261 C   0  0  0  0  0  0  0  0  0  0  0  0
  155.5368  133.2662  183.8532 C   0  0  0  0  0  0  0  0  0  0  0  0
  155.4561  133.5718  182.5053 C   0  0  0  0  0  0  0  0  0  0  0  0
  154.6096  134.5631  182.1747 N   0  0  0  0  0  0  0  0  0  0  0  0
  153.8885  135.2146  183.0927 C   0  0  0  0  0  0  0  0  0  0  0  0
  156.2239  132.8751  181.5523 N   0  0  0  0  0  0  0  0  0  0  0  0
  155.9179  132.7298  180.1372 C   0  0  0  0  0  0  0  0  0  0  0  0
  156.6936  131.4829  179.8760 C   0  0  0  0  0  0  0  0  0  0  0  0
  157.9800  131.1913  179.4149 C   0  0  0  0  0  0  0  0  0  0  0  0
  158.0243  132.1126  180.4677 C   0  0  0  0  0  0  0  0  0  0  0  0
  157.4677  132.1825  181.8485 C   0  0  0  0  0  0  0  0  0  0  0  0
  151.9908  133.7929  189.7497 C   0  0  0  0  0  0  0  0  0  0  0  0
  151.5302  133.0025  190.9940 C   0  0  0  0  0  0  0  0  0  0  0  0
  155.6562  136.2698  188.8212 N   0  0  0  0  0  0  0  0  0  0  0  0
  155.7105  137.3829  189.5764 C   0  0  0  0  0  0  0  0  0  0  0  0
  156.6935  138.1433  189.3947 O   0  0  0  0  0  0  0  0  0  0  0  0
  154.7608  137.6691  190.4810 N   0  0  0  0  0  0  0  0  0  0  0  0
  154.8994  138.8839  191.2483 C   0  0  0  0  0  0  0  0  0  0  0  0
  153.7195  136.8358  190.6533 C   0  0  0  0  0  0  0  0  0  0  0  0
  152.6507  136.8845  191.4753 N   0  0  0  0  0  0  0  0  0  0  0  0
  151.9216  135.7833  191.2255 C   0  0  0  0  0  0  0  0  0  0  0  0
  152.4991  135.0582  190.2818 N   0  0  0  0  0  0  0  0  0  0  0  0
  153.6092  135.6666  189.8993 C   0  0  0  0  0  0  0  0  0  0  0  0
  154.6228  135.4274  188.9810 C   0  0  0  0  0  0  0  0  0  0  0  0
  154.5570  134.3794  188.2800 O   0  0  0  0  0  0  0  0  0  0  0  0
  156.6684  135.9373  187.8415 C   0  0  0  0  0  0  0  0  0  0  0  0
  157.6777  135.0464  188.4294 C   0  0  0  0  0  0  0  0  0  0  0  0
  157.7093  134.8471  189.6205 O   0  0  0  0  0  0  0  0  0  0  0  0
  160.0841  134.7244  188.0275 C   0  0  0  0  0  0  0  0  0  0  0  0
  158.6886  134.3654  187.5743 C   0  0  0  0  0  0  0  0  0  0  0  0
 40 41  1  0  0  0
 41 38  1  0  0  0
 38 39  2  0  0  0
 38 37  1  0  0  0
 37 25  1  0  0  0
 25 26  1  0  0  0
 26 27  2  0  0  0
 26 28  1  0  0  0
 28 29  1  0  0  0
 28 30  1  0  0  0
 30 31  1  0  0  0
 31 32  2  0  0  0
 32 33  1  0  0  0
 33 23  1  0  0  0
 23 24  1  0  0  0
 23  1  1  0  0  0
  1  2  2  0  0  0
  1  3  1  0  0  0
  3  5  1  0  0  0
  5  6  2  0  0  0
  6  7  1  0  0  0
  7  8  2  0  0  0
  8  9  1  0  0  0
  9 10  2  0  0  0
  9 11  1  0  0  0
 11 12  2  0  0  0
 12 13  1  0  0  0
 13 14  2  0  0  0
 14 15  1  0  0  0
 15 16  2  0  0  0
 14 17  1  0  0  0
 17 18  1  0  0  0
 18 19  1  0  0  0
 19 20  1  0  0  0
 20 21  1  0  0  0
 21 22  1  0  0  0
 33 34  1  0  0  0
 34 35  1  0  0  0
 35 36  2  0  0  0
 35 25  1  0  0  0
 34 30  2  0  0  0
 10  5  1  0  0  0
 16 11  1  0  0  0
 22 17  1  0  0  0
 21 19  1  0  0  0
  3  4  1  0  0  0
M  END
> <minimizedAffinity>
-6.12309

> <CNNscore>
0.2738949656

> <CNNaffinity>
5.8233022690

> <CNN_VS>
1.5949732065

> <CNNaffinity_variance>
0.3951996267

$$$$
[H]c1nc(N2C([H])([H])C3([H])C([H])([H])C3([H])C2([H])[H])c([H])c([H])c1-c1nc(N([H])C(=O)[C@@]([H])(n2c([H])nc3c2c(=O)n(C([H])([H])C(=O)C([H])([H])C([H])([H])[H])c(=O)n3C([H])([H])[H])C([H])([H])[H])c([H])c([H])c1[H]


 41 46  0  0  0  0  0  0  0  0999 V2000
  153.2693  139.6507  182.3087 C   0  0  0  0  0  0  0  0  0  0  0  0
  152.8878  140.6719  181.5430 O   0  0  0  0  0  0  0  0  0  0  0  0
  152.4508  138.5606  182.2816 N   0  0  0  0  0  0  0  0  0  0  0  0
  151.5564  138.6957  181.6085 H   0  0  0  0  0  0  0  0  0  0  0  0
  152.5064  137.2943  182.8782 C   0  0  0  0  0  0  0  0  0  0  0  0
  152.6417  136.0852  182.2893 C   0  0  0  0  0  0  0  0  0  0  0  0
  152.7082  134.9189  183.0464 C   0  0  0  0  0  0  0  0  0  0  0  0
  152.6347  134.9966  184.4062 C   0  0  0  0  0  0  0  0  0  0  0  0
  152.4971  136.2072  185.0257 C   0  0  0  0  0  0  0  0  0  0  0  0
  152.4382  137.2922  184.2646 N   0  0  0  0  0  0  0  0  0  0  0  0
  152.4214  136.3170  186.4987 C   0  0  0  0  0  0  0  0  0  0  0  0
  153.1566  137.2002  187.2264 C   0  0  0  0  0  0  0  0  0  0  0  0
  153.0057  137.2235  188.6018 C   0  0  0  0  0  0  0  0  0  0  0  0
  152.1381  136.3886  189.2853 C   0  0  0  0  0  0  0  0  0  0  0  0
  151.4293  135.5296  188.5316 N   0  0  0  0  0  0  0  0  0  0  0  0
  151.5544  135.4845  187.2013 C   0  0  0  0  0  0  0  0  0  0  0  0
  152.0199  136.4498  190.6872 N   0  0  0  0  0  0  0  0  0  0  0  0
  153.0538  136.8657  191.6228 C   0  0  0  0  0  0  0  0  0  0  0  0
  152.5471  136.1564  192.8331 C   0  0  0  0  0  0  0  0  0  0  0  0
  151.7262  136.4945  193.9120 C   0  0  0  0  0  0  0  0  0  0  0  0
  151.1118  136.8186  192.6968 C   0  0  0  0  0  0  0  0  0  0  0  0
  150.8169  136.0995  191.4251 C   0  0  0  0  0  0  0  0  0  0  0  0
  154.5098  139.9101  183.0423 C   0  0  0  0  0  0  0  0  0  0  0  0
  154.1584  139.8456  184.5448 C   0  0  0  0  0  0  0  0  0  0  0  0
  158.5485  141.9239  182.7859 N   0  0  0  0  0  0  0  0  0  0  0  0
  158.4333  143.2458  182.5586 C   0  0  0  0  0  0  0  0  0  0  0  0
  159.5015  143.9004  182.4691 O   0  0  0  0  0  0  0  0  0  0  0  0
  157.2353  143.8386  182.4330 N   0  0  0  0  0  0  0  0  0  0  0  0
  157.2050  145.2613  182.1914 C   0  0  0  0  0  0  0  0  0  0  0  0
  156.1085  143.1116  182.5334 C   0  0  0  0  0  0  0  0  0  0  0  0
  154.8053  143.4501  182.4484 N   0  0  0  0  0  0  0  0  0  0  0  0
  154.1007  142.3192  182.6259 C   0  0  0  0  0  0  0  0  0  0  0  0
  154.9188  141.2974  182.8167 N   0  0  0  0  0  0  0  0  0  0  0  0
  156.1650  141.7371  182.7684 C   0  0  0  0  0  0  0  0  0  0  0  0
  157.4328  141.1838  182.8887 C   0  0  0  0  0  0  0  0  0  0  0  0
  157.5239  139.9427  183.1013 O   0  0  0  0  0  0  0  0  0  0  0  0
  159.8276  141.2617  182.9279 C   0  0  0  0  0  0  0  0  0  0  0  0
  160.3961  141.5242  184.2568 C   0  0  0  0  0  0  0  0  0  0  0  0
  159.7384  141.3554  185.2560 O   0  0  0  0  0  0  0  0  0  0  0  0
  161.9728  142.6912  185.7428 C   0  0  0  0  0  0  0  0  0  0  0  0
  161.7970  142.0052  184.4085 C   0  0  0  0  0  0  0  0  0  0  0  0
 40 41  1  0  0  0
 41 38  1  0  0  0
 38 39  2  0  0  0
 38 37  1  0  0  0
 37 25  1  0  0  0
 25 26  1  0  0  0
 26 27  2  0  0  0
 26 28  1  0  0  0
 28 29  1  0  0  0
 28 30  1  0  0  0
 30 31  1  0  0  0
 31 32  2  0  0  0
 32 33  1  0  0  0
 33 23  1  0  0  0
 23 24  1  0  0  0
 23  1  1  0  0  0
  1  2  2  0  0  0
  1  3  1  0  0  0
  3  5  1  0  0  0
  5  6  2  0  0  0
  6  7  1  0  0  0
  7  8  2  0  0  0
  8  9  1  0  0  0
  9 10  2  0  0  0
  9 11  1  0  0  0
 11 12  2  0  0  0
 12 13  1  0  0  0
 13 14  2  0  0  0
 14 15  1  0  0  0
 15 16  2  0  0  0
 14 17  1  0  0  0
 17 18  1  0  0  0
 18 19  1  0  0  0
 19 20  1  0  0  0
 20 21  1  0  0  0
 21 22  1  0  0  0
 33 34  1  0  0  0
 34 35  1  0  0  0
 35 36  2  0  0  0
 35 25  1  0  0  0
 34 30  2  0  0  0
 10  5  1  0  0  0
 16 11  1  0  0  0
 22 17  1  0  0  0
 21 19  1  0  0  0
  3  4  1  0  0  0
M  END
> <minimizedAffinity>
-8.78737

> <CNNscore>
0.1929769218

> <CNNaffinity>
6.4974374771

> <CNN_VS>
1.2538554668

> <CNNaffinity_variance>
0.1832346618

$$$$
[H]c1nc(N2C([H])([H])C3([H])C([H])([H])C3([H])C2([H])[H])c([H])c([H])c1-c1nc(N([H])C(=O)[C@@]([H])(n2c([H])nc3c2c(=O)n(C([H])([H])C(=O)C([H])([H])C([H])([H])[H])c(=O)n3C([H])([H])[H])C([H])([H])[H])c([H])c([H])c1[H]


 41 46  0  0  0  0  0  0  0  0999 V2000
  148.1485  137.8810  183.3434 C   0  0  0  0  0  0  0  0  0  0  0  0
  147.1457  138.1361  184.1826 O   0  0  0  0  0  0  0  0  0  0  0  0
  148.5596  138.9363  182.5842 N   0  0  0  0  0  0  0  0  0  0  0  0
  147.9723  139.8784  182.7813 H   0  0  0  0  0  0  0  0  0  0  0  0
  149.5825  139.1102  181.6430 C   0  0  0  0  0  0  0  0  0  0  0  0
  149.5117  139.0552  180.2943 C   0  0  0  0  0  0  0  0  0  0  0  0
  150.6349  139.2841  179.5043 C   0  0  0  0  0  0  0  0  0  0  0  0
  151.8281  139.5681  180.1008 C   0  0  0  0  0  0  0  0  0  0  0  0
  151.9261  139.6288  181.4627 C   0  0  0  0  0  0  0  0  0  0  0  0
  150.8302  139.4040  182.1758 N   0  0  0  0  0  0  0  0  0  0  0  0
  153.2076  139.9409  182.1319 C   0  0  0  0  0  0  0  0  0  0  0  0
  153.6852  139.2514  183.2027 C   0  0  0  0  0  0  0  0  0  0  0  0
  154.8999  139.6240  183.7512 C   0  0  0  0  0  0  0  0  0  0  0  0
  155.6642  140.6709  183.2647 C   0  0  0  0  0  0  0  0  0  0  0  0
  155.1587  141.3283  182.2060 N   0  0  0  0  0  0  0  0  0  0  0  0
  153.9880  140.9910  181.6555 C   0  0  0  0  0  0  0  0  0  0  0  0
  156.8949  141.0125  183.8578 N   0  0  0  0  0  0  0  0  0  0  0  0
  157.6881  142.1994  183.5765 C   0  0  0  0  0  0  0  0  0  0  0  0
  159.0172  141.6777  184.0079 C   0  0  0  0  0  0  0  0  0  0  0  0
  159.7627  141.7132  185.1891 C   0  0  0  0  0  0  0  0  0  0  0  0
  158.4605  141.2620  185.4344 C   0  0  0  0  0  0  0  0  0  0  0  0
  157.5706  140.2107  184.8652 C   0  0  0  0  0  0  0  0  0  0  0  0
  148.6127  136.4935  183.4024 C   0  0  0  0  0  0  0  0  0  0  0  0
  147.5085  135.6285  182.7561 C   0  0  0  0  0  0  0  0  0  0  0  0
  151.9203  136.3248  186.4787 N   0  0  0  0  0  0  0  0  0  0  0  0
  151.4810  135.8462  187.6578 C   0  0  0  0  0  0  0  0  0  0  0  0
  152.3250  135.7597  188.5839 O   0  0  0  0  0  0  0  0  0  0  0  0
  150.2025  135.4786  187.8380 N   0  0  0  0  0  0  0  0  0  0  0  0
  149.8183  134.9750  189.1351 C   0  0  0  0  0  0  0  0  0  0  0  0
  149.3212  135.5828  186.8277 C   0  0  0  0  0  0  0  0  0  0  0  0
  148.0068  135.2906  186.7426 N   0  0  0  0  0  0  0  0  0  0  0  0
  147.6247  135.5930  185.4899 C   0  0  0  0  0  0  0  0  0  0  0  0
  148.6522  136.0603  184.8000 N   0  0  0  0  0  0  0  0  0  0  0  0
  149.7182  136.0720  185.5824 C   0  0  0  0  0  0  0  0  0  0  0  0
  151.0527  136.4352  185.4598 C   0  0  0  0  0  0  0  0  0  0  0  0
  151.4490  136.8827  184.3477 O   0  0  0  0  0  0  0  0  0  0  0  0
  153.2936  136.7251  186.2581 C   0  0  0  0  0  0  0  0  0  0  0  0
  153.5817  137.9800  186.9655 C   0  0  0  0  0  0  0  0  0  0  0  0
  152.8256  138.9194  186.8930 O   0  0  0  0  0  0  0  0  0  0  0  0
  154.4490  138.4926  189.2108 C   0  0  0  0  0  0  0  0  0  0  0  0
  154.8123  138.1283  187.7905 C   0  0  0  0  0  0  0  0  0  0  0  0
 40 41  1  0  0  0
 41 38  1  0  0  0
 38 39  2  0  0  0
 38 37  1  0  0  0
 37 25  1  0  0  0
 25 26  1  0  0  0
 26 27  2  0  0  0
 26 28  1  0  0  0
 28 29  1  0  0  0
 28 30  1  0  0  0
 30 31  1  0  0  0
 31 32  2  0  0  0
 32 33  1  0  0  0
 33 23  1  0  0  0
 23 24  1  0  0  0
 23  1  1  0  0  0
  1  2  2  0  0  0
  1  3  1  0  0  0
  3  5  1  0  0  0
  5  6  2  0  0  0
  6  7  1  0  0  0
  7  8  2  0  0  0
  8  9  1  0  0  0
  9 10  2  0  0  0
  9 11  1  0  0  0
 11 12  2  0  0  0
 12 13  1  0  0  0
 13 14  2  0  0  0
 14 15  1  0  0  0
 15 16  2  0  0  0
 14 17  1  0  0  0
 17 18  1  0  0  0
 18 19  1  0  0  0
 19 20  1  0  0  0
 20 21  1  0  0  0
 21 22  1  0  0  0
 33 34  1  0  0  0
 34 35  1  0  0  0
 35 36  2  0  0  0
 35 25  1  0  0  0
 34 30  2  0  0  0
 10  5  1  0  0  0
 16 11  1  0  0  0
 22 17  1  0  0  0
 21 19  1  0  0  0
  3  4  1  0  0  0
M  END
> <minimizedAffinity>
-7.73449

> <CNNscore>
0.1900090426

> <CNNaffinity>
6.2821874619

> <CNN_VS>
1.1936724186

> <CNNaffinity_variance>
0.5253270268

$$$$
[H]c1nc(N2C([H])([H])C3([H])C([H])([H])C3([H])C2([H])[H])c([H])c([H])c1-c1nc(N([H])C(=O)[C@@]([H])(n2c([H])nc3c2c(=O)n(C([H])([H])C(=O)C([H])([H])C([H])([H])[H])c(=O)n3C([H])([H])[H])C([H])([H])[H])c([H])c([H])c1[H]


 41 46  0  0  0  0  0  0  0  0999 V2000
  150.2202  132.3885  188.4100 C   0  0  0  0  0  0  0  0  0  0  0  0
  150.2497  131.0591  188.4909 O   0  0  0  0  0  0  0  0  0  0  0  0
  148.9879  132.9357  188.2074 N   0  0  0  0  0  0  0  0  0  0  0  0
  148.1687  132.1647  188.1308 H   0  0  0  0  0  0  0  0  0  0  0  0
  148.5172  134.2520  188.1164 C   0  0  0  0  0  0  0  0  0  0  0  0
  147.7848  134.9539  189.0097 C   0  0  0  0  0  0  0  0  0  0  0  0
  147.4254  136.2765  188.7655 C   0  0  0  0  0  0  0  0  0  0  0  0
  147.8181  136.8750  187.6045 C   0  0  0  0  0  0  0  0  0  0  0  0
  148.5587  136.1866  186.6848 C   0  0  0  0  0  0  0  0  0  0  0  0
  148.8783  134.9286  186.9594 N   0  0  0  0  0  0  0  0  0  0  0  0
  149.0012  136.8162  185.4218 C   0  0  0  0  0  0  0  0  0  0  0  0
  150.2476  136.6615  184.8998 C   0  0  0  0  0  0  0  0  0  0  0  0
  150.5572  137.2922  183.7076 C   0  0  0  0  0  0  0  0  0  0  0  0
  149.6584  138.0803  183.0090 C   0  0  0  0  0  0  0  0  0  0  0  0
  148.4370  138.2094  183.5569 N   0  0  0  0  0  0  0  0  0  0  0  0
  148.1098  137.6122  184.7074 C   0  0  0  0  0  0  0  0  0  0  0  0
  150.0209  138.7023  181.7988 N   0  0  0  0  0  0  0  0  0  0  0  0
  149.1109  139.2041  180.7803 C   0  0  0  0  0  0  0  0  0  0  0  0
  150.0404  139.1496  179.6151 C   0  0  0  0  0  0  0  0  0  0  0  0
  150.9055  140.0521  178.9911 C   0  0  0  0  0  0  0  0  0  0  0  0
  151.1378  140.0109  180.3708 C   0  0  0  0  0  0  0  0  0  0  0  0
  151.3920  138.9426  181.3786 C   0  0  0  0  0  0  0  0  0  0  0  0
  151.5404  133.0057  188.5523 C   0  0  0  0  0  0  0  0  0  0  0  0
  152.5355  131.8618  188.8463 C   0  0  0  0  0  0  0  0  0  0  0  0
  153.9971  136.5886  189.8014 N   0  0  0  0  0  0  0  0  0  0  0  0
  153.6539  137.0258  191.0274 C   0  0  0  0  0  0  0  0  0  0  0  0
  154.2788  138.0218  191.4692 O   0  0  0  0  0  0  0  0  0  0  0  0
  152.6901  136.4280  191.7458 N   0  0  0  0  0  0  0  0  0  0  0  0
  152.3877  136.9628  193.0520 C   0  0  0  0  0  0  0  0  0  0  0  0
  152.0380  135.3632  191.2465 C   0  0  0  0  0  0  0  0  0  0  0  0
  151.0498  134.5934  191.7476 N   0  0  0  0  0  0  0  0  0  0  0  0
  150.7757  133.6634  190.8167 C   0  0  0  0  0  0  0  0  0  0  0  0
  151.5561  133.8303  189.7617 N   0  0  0  0  0  0  0  0  0  0  0  0
  152.3501  134.8648  189.9809 C   0  0  0  0  0  0  0  0  0  0  0  0
  153.3553  135.5265  189.2884 C   0  0  0  0  0  0  0  0  0  0  0  0
  153.6651  135.1045  188.1395 O   0  0  0  0  0  0  0  0  0  0  0  0
  155.0340  137.2136  189.0083 C   0  0  0  0  0  0  0  0  0  0  0  0
  154.4419  138.0941  187.9923 C   0  0  0  0  0  0  0  0  0  0  0  0
  153.5501  138.8573  188.2782 O   0  0  0  0  0  0  0  0  0  0  0  0
  153.7525  138.0524  185.6303 C   0  0  0  0  0  0  0  0  0  0  0  0
  154.9240  138.0701  186.5838 C   0  0  0  0  0  0  0  0  0  0  0  0
 40 41  1  0  0  0
 41 38  1  0  0  0
 38 39  2  0  0  0
 38 37  1  0  0  0
 37 25  1  0  0  0
 25 26  1  0  0  0
 26 27  2  0  0  0
 26 28  1  0  0  0
 28 29  1  0  0  0
 28 30  1  0  0  0
 30 31  1  0  0  0
 31 32  2  0  0  0
 32 33  1  0  0  0
 33 23  1  0  0  0
 23 24  1  0  0  0
 23  1  1  0  0  0
  1  2  2  0  0  0
  1  3  1  0  0  0
  3  5  1  0  0  0
  5  6  2  0  0  0
  6  7  1  0  0  0
  7  8  2  0  0  0
  8  9  1  0  0  0
  9 10  2  0  0  0
  9 11  1  0  0  0
 11 12  2  0  0  0
 12 13  1  0  0  0
 13 14  2  0  0  0
 14 15  1  0  0  0
 15 16  2  0  0  0
 14 17  1  0  0  0
 17 18  1  0  0  0
 18 19  1  0  0  0
 19 20  1  0  0  0
 20 21  1  0  0  0
 21 22  1  0  0  0
 33 34  1  0  0  0
 34 35  1  0  0  0
 35 36  2  0  0  0
 35 25  1  0  0  0
 34 30  2  0  0  0
 10  5  1  0  0  0
 16 11  1  0  0  0
 22 17  1  0  0  0
 21 19  1  0  0  0
  3  4  1  0  0  0
M  END
> <minimizedAffinity>
-5.89615

> <CNNscore>
0.1870385706

> <CNNaffinity>
5.9450721741

> <CNN_VS>
1.1119577885

> <CNNaffinity_variance>
0.1781694740

$$$$
[H]c1nc(N2C([H])([H])C3([H])C([H])([H])C3([H])C2([H])[H])c([H])c([H])c1-c1nc(N([H])C(=O)[C@@]([H])(n2c([H])nc3c2c(=O)n(C([H])([H])C(=O)C([H])([H])C([H])([H])[H])c(=O)n3C([H])([H])[H])C([H])([H])[H])c([H])c([H])c1[H]


 41 46  0  0  0  0  0  0  0  0999 V2000
  151.2426  136.9630  184.2808 C   0  0  0  0  0  0  0  0  0  0  0  0
  149.9559  136.6182  184.2623 O   0  0  0  0  0  0  0  0  0  0  0  0
  151.7830  137.1424  185.5197 N   0  0  0  0  0  0  0  0  0  0  0  0
  151.0427  136.9756  186.3536 H   0  0  0  0  0  0  0  0  0  0  0  0
  153.0710  137.4483  185.9781 C   0  0  0  0  0  0  0  0  0  0  0  0
  153.6924  137.0284  187.1026 C   0  0  0  0  0  0  0  0  0  0  0  0
  154.9993  137.4127  187.3895 C   0  0  0  0  0  0  0  0  0  0  0  0
  155.6646  138.2280  186.5218 C   0  0  0  0  0  0  0  0  0  0  0  0
  155.0582  138.6668  185.3782 C   0  0  0  0  0  0  0  0  0  0  0  0
  153.8122  138.2753  185.1453 N   0  0  0  0  0  0  0  0  0  0  0  0
  155.7616  139.5463  184.4194 C   0  0  0  0  0  0  0  0  0  0  0  0
  155.1251  140.3031  183.4854 C   0  0  0  0  0  0  0  0  0  0  0  0
  155.8797  141.0960  182.6387 C   0  0  0  0  0  0  0  0  0  0  0  0
  157.2617  141.1624  182.6906 C   0  0  0  0  0  0  0  0  0  0  0  0
  157.8543  140.4000  183.6265 N   0  0  0  0  0  0  0  0  0  0  0  0
  157.1512  139.6242  184.4578 C   0  0  0  0  0  0  0  0  0  0  0  0
  157.9860  141.9848  181.8063 N   0  0  0  0  0  0  0  0  0  0  0  0
  158.9012  143.0538  182.1763 C   0  0  0  0  0  0  0  0  0  0  0  0
  158.8262  143.8476  180.9158 C   0  0  0  0  0  0  0  0  0  0  0  0
  159.5667  143.9051  179.7323 C   0  0  0  0  0  0  0  0  0  0  0  0
  159.1979  142.5873  180.0266 C   0  0  0  0  0  0  0  0  0  0  0  0
  157.9263  141.8836  180.3569 C   0  0  0  0  0  0  0  0  0  0  0  0
  151.8272  137.0869  182.9440 C   0  0  0  0  0  0  0  0  0  0  0  0
  151.1019  138.2605  182.2498 C   0  0  0  0  0  0  0  0  0  0  0  0
  154.0203  133.2613  181.9504 N   0  0  0  0  0  0  0  0  0  0  0  0
  153.2789  132.4482  181.1750 C   0  0  0  0  0  0  0  0  0  0  0  0
  153.7984  131.3543  180.8418 O   0  0  0  0  0  0  0  0  0  0  0  0
  152.0428  132.7876  180.7757 N   0  0  0  0  0  0  0  0  0  0  0  0
  151.3191  131.8555  179.9445 C   0  0  0  0  0  0  0  0  0  0  0  0
  151.5126  133.9659  181.1485 C   0  0  0  0  0  0  0  0  0  0  0  0
  150.3186  134.5397  180.8929 N   0  0  0  0  0  0  0  0  0  0  0  0
  150.3198  135.7283  181.5204 C   0  0  0  0  0  0  0  0  0  0  0  0
  151.4676  135.9092  182.1526 N   0  0  0  0  0  0  0  0  0  0  0  0
  152.2337  134.8502  181.9520 C   0  0  0  0  0  0  0  0  0  0  0  0
  153.5052  134.4414  182.3315 C   0  0  0  0  0  0  0  0  0  0  0  0
  154.1878  135.2151  183.0592 O   0  0  0  0  0  0  0  0  0  0  0  0
  155.3558  132.9200  182.3919 C   0  0  0  0  0  0  0  0  0  0  0  0
  156.3051  133.0158  181.2748 C   0  0  0  0  0  0  0  0  0  0  0  0
  156.3194  133.9866  180.5559 O   0  0  0  0  0  0  0  0  0  0  0  0
  158.6655  132.4835  180.8264 C   0  0  0  0  0  0  0  0  0  0  0  0
  157.2745  131.9200  180.9983 C   0  0  0  0  0  0  0  0  0  0  0  0
 40 41  1  0  0  0
 41 38  1  0  0  0
 38 39  2  0  0  0
 38 37  1  0  0  0
 37 25  1  0  0  0
 25 26  1  0  0  0
 26 27  2  0  0  0
 26 28  1  0  0  0
 28 29  1  0  0  0
 28 30  1  0  0  0
 30 31  1  0  0  0
 31 32  2  0  0  0
 32 33  1  0  0  0
 33 23  1  0  0  0
 23 24  1  0  0  0
 23  1  1  0  0  0
  1  2  2  0  0  0
  1  3  1  0  0  0
  3  5  1  0  0  0
  5  6  2  0  0  0
  6  7  1  0  0  0
  7  8  2  0  0  0
  8  9  1  0  0  0
  9 10  2  0  0  0
  9 11  1  0  0  0
 11 12  2  0  0  0
 12 13  1  0  0  0
 13 14  2  0  0  0
 14 15  1  0  0  0
 15 16  2  0  0  0
 14 17  1  0  0  0
 17 18  1  0  0  0
 18 19  1  0  0  0
 19 20  1  0  0  0
 20 21  1  0  0  0
 21 22  1  0  0  0
 33 34  1  0  0  0
 34 35  1  0  0  0
 35 36  2  0  0  0
 35 25  1  0  0  0
 34 30  2  0  0  0
 10  5  1  0  0  0
 16 11  1  0  0  0
 22 17  1  0  0  0
 21 19  1  0  0  0
  3  4  1  0  0  0
M  END
> <minimizedAffinity>
-7.71750

> <CNNscore>
0.1848609895

> <CNNaffinity>
6.4332342148

> <CNN_VS>
1.1892540455

> <CNNaffinity_variance>
0.1501833051

$$$$
[H]c1nc(N2C([H])([H])C3([H])C([H])([H])C3([H])C2([H])[H])c([H])c([H])c1-c1nc(N([H])C(=O)[C@@]([H])(n2c([H])nc3c2c(=O)n(C([H])([H])C(=O)C([H])([H])C([H])([H])[H])c(=O)n3C([H])([H])[H])C([H])([H])[H])c([H])c([H])c1[H]


 41 46  0  0  0  0  0  0  0  0999 V2000
  152.1281  135.5504  185.5078 C   0  0  0  0  0  0  0  0  0  0  0  0
  152.2466  134.2518  185.7804 O   0  0  0  0  0  0  0  0  0  0  0  0
  152.7340  135.9653  184.3590 N   0  0  0  0  0  0  0  0  0  0  0  0
  153.2582  135.1319  183.8094 H   0  0  0  0  0  0  0  0  0  0  0  0
  152.8083  137.1966  183.6950 C   0  0  0  0  0  0  0  0  0  0  0  0
  151.9278  137.7475  182.8298 C   0  0  0  0  0  0  0  0  0  0  0  0
  152.1502  139.0072  182.2806 C   0  0  0  0  0  0  0  0  0  0  0  0
  153.2762  139.6979  182.6202 C   0  0  0  0  0  0  0  0  0  0  0  0
  154.1822  139.1625  183.4923 C   0  0  0  0  0  0  0  0  0  0  0  0
  153.9294  137.9595  183.9912 N   0  0  0  0  0  0  0  0  0  0  0  0
  155.4072  139.8951  183.8801 C   0  0  0  0  0  0  0  0  0  0  0  0
  155.7679  141.0936  183.3477 C   0  0  0  0  0  0  0  0  0  0  0  0
  156.9340  141.6968  183.7854 C   0  0  0  0  0  0  0  0  0  0  0  0
  157.7624  141.1418  184.7459 C   0  0  0  0  0  0  0  0  0  0  0  0
  157.3725  139.9567  185.2479 N   0  0  0  0  0  0  0  0  0  0  0  0
  156.2514  139.3505  184.8441 C   0  0  0  0  0  0  0  0  0  0  0  0
  158.9400  141.7944  185.1585 N   0  0  0  0  0  0  0  0  0  0  0  0
  159.8704  142.5171  184.3045 C   0  0  0  0  0  0  0  0  0  0  0  0
  161.0825  142.4097  185.1669 C   0  0  0  0  0  0  0  0  0  0  0  0
  161.6812  143.2099  186.1435 C   0  0  0  0  0  0  0  0  0  0  0  0
  160.3221  143.0194  186.4189 C   0  0  0  0  0  0  0  0  0  0  0  0
  159.4109  141.8455  186.5333 C   0  0  0  0  0  0  0  0  0  0  0  0
  151.3619  136.2851  186.5164 C   0  0  0  0  0  0  0  0  0  0  0  0
  150.5453  137.3559  185.7601 C   0  0  0  0  0  0  0  0  0  0  0  0
  153.2587  135.4632  190.5362 N   0  0  0  0  0  0  0  0  0  0  0  0
  154.0585  136.4732  190.9263 C   0  0  0  0  0  0  0  0  0  0  0  0
  154.6366  136.3428  192.0337 O   0  0  0  0  0  0  0  0  0  0  0  0
  154.2322  137.5686  190.1697 N   0  0  0  0  0  0  0  0  0  0  0  0
  155.1073  138.6037  190.6662 C   0  0  0  0  0  0  0  0  0  0  0  0
  153.6000  137.6801  188.9881 C   0  0  0  0  0  0  0  0  0  0  0  0
  153.5995  138.6524  188.0527 N   0  0  0  0  0  0  0  0  0  0  0  0
  152.7859  138.2383  187.0663 C   0  0  0  0  0  0  0  0  0  0  0  0
  152.2852  137.0489  187.3572 N   0  0  0  0  0  0  0  0  0  0  0  0
  152.7580  136.6653  188.5311 C   0  0  0  0  0  0  0  0  0  0  0  0
  152.6203  135.5590  189.3588 C   0  0  0  0  0  0  0  0  0  0  0  0
  151.8669  134.6200  188.9785 O   0  0  0  0  0  0  0  0  0  0  0  0
  153.0527  134.2736  191.3345 C   0  0  0  0  0  0  0  0  0  0  0  0
  152.1719  134.5664  192.4731 C   0  0  0  0  0  0  0  0  0  0  0  0
  152.5718  134.4618  193.6082 O   0  0  0  0  0  0  0  0  0  0  0  0
  150.6340  136.4876  192.4858 C   0  0  0  0  0  0  0  0  0  0  0  0
  150.7635  134.9996  192.2595 C   0  0  0  0  0  0  0  0  0  0  0  0
 40 41  1  0  0  0
 41 38  1  0  0  0
 38 39  2  0  0  0
 38 37  1  0  0  0
 37 25  1  0  0  0
 25 26  1  0  0  0
 26 27  2  0  0  0
 26 28  1  0  0  0
 28 29  1  0  0  0
 28 30  1  0  0  0
 30 31  1  0  0  0
 31 32  2  0  0  0
 32 33  1  0  0  0
 33 23  1  0  0  0
 23 24  1  0  0  0
 23  1  1  0  0  0
  1  2  2  0  0  0
  1  3  1  0  0  0
  3  5  1  0  0  0
  5  6  2  0  0  0
  6  7  1  0  0  0
  7  8  2  0  0  0
  8  9  1  0  0  0
  9 10  2  0  0  0
  9 11  1  0  0  0
 11 12  2  0  0  0
 12 13  1  0  0  0
 13 14  2  0  0  0
 14 15  1  0  0  0
 15 16  2  0  0  0
 14 17  1  0  0  0
 17 18  1  0  0  0
 18 19  1  0  0  0
 19 20  1  0  0  0
 20 21  1  0  0  0
 21 22  1  0  0  0
 33 34  1  0  0  0
 34 35  1  0  0  0
 35 36  2  0  0  0
 35 25  1  0  0  0
 34 30  2  0  0  0
 10  5  1  0  0  0
 16 11  1  0  0  0
 22 17  1  0  0  0
 21 19  1  0  0  0
  3  4  1  0  0  0
M  END
> <minimizedAffinity>
-8.42987

> <CNNscore>
0.1718484312

> <CNNaffinity>
6.4726266861

> <CNN_VS>
1.1123107672

> <CNNaffinity_variance>
0.2781447470

$$$$
[H]c1nc(C(F)(F)F)nc([H])c1-c1nc(N([H])C(=O)C([H])([H])n2c([H])nc3c2c(=O)n(C([H])([H])C(=O)C([H])([H])[H])c(=O)n3C([H])([H])[H])c([H])c([H])c1[H]


 37 40  0  0  0  0  0  0  0  0999 V2000
  153.8681  137.2294  185.5033 C   0  0  0  0  0  0  0  0  0  0  0  0
  153.8764  135.9294  185.6881 O   0  0  0  0  0  0  0  0  0  0  0  0
  154.3364  137.6947  184.2870 N   0  0  0  0  0  0  0  0  0  0  0  0
  154.6548  137.0052  183.5437 H   0  0  0  0  0  0  0  0  0  0  0  0
  154.6146  139.0759  183.9877 C   0  0  0  0  0  0  0  0  0  0  0  0
  153.7069  139.7807  183.1882 C   0  0  0  0  0  0  0  0  0  0  0  0
  154.0447  141.0224  182.7474 C   0  0  0  0  0  0  0  0  0  0  0  0
  155.2703  141.5191  183.1125 C   0  0  0  0  0  0  0  0  0  0  0  0
  156.1432  140.8343  183.8808 C   0  0  0  0  0  0  0  0  0  0  0  0
  155.8061  139.6023  184.3219 N   0  0  0  0  0  0  0  0  0  0  0  0
  157.4928  141.3885  184.1287 C   0  0  0  0  0  0  0  0  0  0  0  0
  158.0669  142.3264  183.2805 C   0  0  0  0  0  0  0  0  0  0  0  0
  159.2738  142.8911  183.5864 N   0  0  0  0  0  0  0  0  0  0  0  0
  159.9568  142.5780  184.6939 C   0  0  0  0  0  0  0  0  0  0  0  0
  159.4141  141.6769  185.5064 N   0  0  0  0  0  0  0  0  0  0  0  0
  158.2174  141.0835  185.2532 C   0  0  0  0  0  0  0  0  0  0  0  0
  161.2587  143.2465  185.0518 C   0  0  0  0  0  0  0  0  0  0  0  0
  162.3407  142.4954  184.5946 F   0  0  0  0  0  0  0  0  0  0  0  0
  161.3398  144.4923  184.4622 F   0  0  0  0  0  0  0  0  0  0  0  0
  161.4120  143.4336  186.3950 F   0  0  0  0  0  0  0  0  0  0  0  0
  153.3214  138.0607  186.6424 C   0  0  0  0  0  0  0  0  0  0  0  0
  152.9771  135.8307  190.5758 N   0  0  0  0  0  0  0  0  0  0  0  0
  154.1143  135.9277  191.3078 C   0  0  0  0  0  0  0  0  0  0  0  0
  154.1676  135.3749  192.4538 O   0  0  0  0  0  0  0  0  0  0  0  0
  155.1567  136.5932  190.8339 N   0  0  0  0  0  0  0  0  0  0  0  0
  156.4106  136.7000  191.6006 C   0  0  0  0  0  0  0  0  0  0  0  0
  155.1303  137.1924  189.6230 C   0  0  0  0  0  0  0  0  0  0  0  0
  156.0338  137.9122  188.8963 N   0  0  0  0  0  0  0  0  0  0  0  0
  155.4829  138.2655  187.7273 C   0  0  0  0  0  0  0  0  0  0  0  0
  154.2212  137.7532  187.7444 N   0  0  0  0  0  0  0  0  0  0  0  0
  153.9729  137.1068  188.8561 C   0  0  0  0  0  0  0  0  0  0  0  0
  152.8854  136.3974  189.3764 C   0  0  0  0  0  0  0  0  0  0  0  0
  151.8643  136.3341  188.6761 O   0  0  0  0  0  0  0  0  0  0  0  0
  151.8374  135.1311  191.1425 C   0  0  0  0  0  0  0  0  0  0  0  0
  151.1831  137.0042  192.7707 C   0  0  0  0  0  0  0  0  0  0  0  0
  150.8416  136.0948  191.6392 C   0  0  0  0  0  0  0  0  0  0  0  0
  149.7328  136.1611  191.1465 O   0  0  0  0  0  0  0  0  0  0  0  0
 35 36  1  0  0  0
 36 37  2  0  0  0
 36 34  1  0  0  0
 34 22  1  0  0  0
 22 23  1  0  0  0
 23 24  2  0  0  0
 23 25  1  0  0  0
 25 26  1  0  0  0
 25 27  1  0  0  0
 27 28  1  0  0  0
 28 29  2  0  0  0
 29 30  1  0  0  0
 30 21  1  0  0  0
 21  1  1  0  0  0
  1  2  2  0  0  0
  1  3  1  0  0  0
  3  5  1  0  0  0
  5  6  2  0  0  0
  6  7  1  0  0  0
  7  8  2  0  0  0
  8  9  1  0  0  0
  9 10  2  0  0  0
  9 11  1  0  0  0
 11 12  2  0  0  0
 12 13  1  0  0  0
 13 14  2  0  0  0
 14 15  1  0  0  0
 15 16  2  0  0  0
 14 17  1  0  0  0
 17 18  1  0  0  0
 17 19  1  0  0  0
 17 20  1  0  0  0
 30 31  1  0  0  0
 31 32  1  0  0  0
 32 33  2  0  0  0
 32 22  1  0  0  0
 31 27  2  0  0  0
 10  5  1  0  0  0
 16 11  1  0  0  0
  3  4  1  0  0  0
M  END
> <minimizedAffinity>
-8.67898

> <CNNscore>
0.4627780616

> <CNNaffinity>
6.4861755371

> <CNN_VS>
3.0016596317

> <CNNaffinity_variance>
0.0780690312

$$$$
[H]c1nc(C(F)(F)F)nc([H])c1-c1nc(N([H])C(=O)C([H])([H])n2c([H])nc3c2c(=O)n(C([H])([H])C(=O)C([H])([H])[H])c(=O)n3C([H])([H])[H])c([H])c([H])c1[H]


 37 40  0  0  0  0  0  0  0  0999 V2000
  153.5033  139.5890  182.6138 C   0  0  0  0  0  0  0  0  0  0  0  0
  153.6999  140.1894  181.4627 O   0  0  0  0  0  0  0  0  0  0  0  0
  152.8867  138.3506  182.5799 N   0  0  0  0  0  0  0  0  0  0  0  0
  152.6215  137.9167  181.6467 H   0  0  0  0  0  0  0  0  0  0  0  0
  152.3874  137.6494  183.7349 C   0  0  0  0  0  0  0  0  0  0  0  0
  151.1262  137.0470  183.6554 C   0  0  0  0  0  0  0  0  0  0  0  0
  150.5656  136.5426  184.7874 C   0  0  0  0  0  0  0  0  0  0  0  0
  151.2736  136.6562  185.9570 C   0  0  0  0  0  0  0  0  0  0  0  0
  152.4877  137.2408  186.0290 C   0  0  0  0  0  0  0  0  0  0  0  0
  153.0464  137.7384  184.9037 N   0  0  0  0  0  0  0  0  0  0  0  0
  153.1317  137.4327  187.3475 C   0  0  0  0  0  0  0  0  0  0  0  0
  153.5266  136.3580  188.1334 C   0  0  0  0  0  0  0  0  0  0  0  0
  154.2047  136.5657  189.3023 N   0  0  0  0  0  0  0  0  0  0  0  0
  154.5175  137.7885  189.7471 C   0  0  0  0  0  0  0  0  0  0  0  0
  154.1372  138.8208  189.0012 N   0  0  0  0  0  0  0  0  0  0  0  0
  153.4614  138.6738  187.8307 C   0  0  0  0  0  0  0  0  0  0  0  0
  155.3143  138.0064  191.0072 C   0  0  0  0  0  0  0  0  0  0  0  0
  154.9155  139.1796  191.6461 F   0  0  0  0  0  0  0  0  0  0  0  0
  155.1148  136.9643  191.8908 F   0  0  0  0  0  0  0  0  0  0  0  0
  156.6584  138.0835  190.7831 F   0  0  0  0  0  0  0  0  0  0  0  0
  154.0009  140.3208  183.8404 C   0  0  0  0  0  0  0  0  0  0  0  0
  158.2893  141.7366  183.4310 N   0  0  0  0  0  0  0  0  0  0  0  0
  158.3563  142.9895  182.9170 C   0  0  0  0  0  0  0  0  0  0  0  0
  159.4940  143.5411  182.7640 O   0  0  0  0  0  0  0  0  0  0  0  0
  157.2478  143.6315  182.5806 N   0  0  0  0  0  0  0  0  0  0  0  0
  157.2923  144.9869  182.0040 C   0  0  0  0  0  0  0  0  0  0  0  0
  156.0262  143.0743  182.7330 C   0  0  0  0  0  0  0  0  0  0  0  0
  154.7520  143.4845  182.4671 N   0  0  0  0  0  0  0  0  0  0  0  0
  153.8933  142.5134  182.8048 C   0  0  0  0  0  0  0  0  0  0  0  0
  154.6587  141.4953  183.2867 N   0  0  0  0  0  0  0  0  0  0  0  0
  155.9345  141.7903  183.2601 C   0  0  0  0  0  0  0  0  0  0  0  0
  157.1186  141.1312  183.6067 C   0  0  0  0  0  0  0  0  0  0  0  0
  157.0132  139.9879  184.0747 O   0  0  0  0  0  0  0  0  0  0  0  0
  159.5203  141.0771  183.8303 C   0  0  0  0  0  0  0  0  0  0  0  0
  159.2073  141.8232  186.2661 C   0  0  0  0  0  0  0  0  0  0  0  0
  160.0612  141.6996  185.0497 C   0  0  0  0  0  0  0  0  0  0  0  0
  161.1984  142.1261  185.0847 O   0  0  0  0  0  0  0  0  0  0  0  0
 35 36  1  0  0  0
 36 37  2  0  0  0
 36 34  1  0  0  0
 34 22  1  0  0  0
 22 23  1  0  0  0
 23 24  2  0  0  0
 23 25  1  0  0  0
 25 26  1  0  0  0
 25 27  1  0  0  0
 27 28  1  0  0  0
 28 29  2  0  0  0
 29 30  1  0  0  0
 30 21  1  0  0  0
 21  1  1  0  0  0
  1  2  2  0  0  0
  1  3  1  0  0  0
  3  5  1  0  0  0
  5  6  2  0  0  0
  6  7  1  0  0  0
  7  8  2  0  0  0
  8  9  1  0  0  0
  9 10  2  0  0  0
  9 11  1  0  0  0
 11 12  2  0  0  0
 12 13  1  0  0  0
 13 14  2  0  0  0
 14 15  1  0  0  0
 15 16  2  0  0  0
 14 17  1  0  0  0
 17 18  1  0  0  0
 17 19  1  0  0  0
 17 20  1  0  0  0
 30 31  1  0  0  0
 31 32  1  0  0  0
 32 33  2  0  0  0
 32 22  1  0  0  0
 31 27  2  0  0  0
 10  5  1  0  0  0
 16 11  1  0  0  0
  3  4  1  0  0  0
M  END
> <minimizedAffinity>
-8.57393

> <CNNscore>
0.4107365012

> <CNNaffinity>
6.7629585266

> <CNN_VS>
2.7777938843

> <CNNaffinity_variance>
0.1904576719

$$$$
[H]c1nc(C(F)(F)F)nc([H])c1-c1nc(N([H])C(=O)C([H])([H])n2c([H])nc3c2c(=O)n(C([H])([H])C(=O)C([H])([H])[H])c(=O)n3C([H])([H])[H])c([H])c([H])c1[H]


 37 40  0  0  0  0  0  0  0  0999 V2000
  157.3382  139.7441  184.1330 C   0  0  0  0  0  0  0  0  0  0  0  0
  157.9490  139.1171  185.1118 O   0  0  0  0  0  0  0  0  0  0  0  0
  156.2355  140.5101  184.4682 N   0  0  0  0  0  0  0  0  0  0  0  0
  155.9371  140.5920  185.4849 H   0  0  0  0  0  0  0  0  0  0  0  0
  155.3123  141.0801  183.5207 C   0  0  0  0  0  0  0  0  0  0  0  0
  155.2109  142.4743  183.4447 C   0  0  0  0  0  0  0  0  0  0  0  0
  154.2192  143.0217  182.6917 C   0  0  0  0  0  0  0  0  0  0  0  0
  153.3627  142.1678  182.0439 C   0  0  0  0  0  0  0  0  0  0  0  0
  153.4628  140.8244  182.1230 C   0  0  0  0  0  0  0  0  0  0  0  0
  154.4503  140.2806  182.8680 N   0  0  0  0  0  0  0  0  0  0  0  0
  152.4274  139.9742  181.4944 C   0  0  0  0  0  0  0  0  0  0  0  0
  151.6996  139.0446  182.2257 C   0  0  0  0  0  0  0  0  0  0  0  0
  150.6844  138.3416  181.6388 N   0  0  0  0  0  0  0  0  0  0  0  0
  150.3432  138.5034  180.3549 C   0  0  0  0  0  0  0  0  0  0  0  0
  151.0402  139.3882  179.6492 N   0  0  0  0  0  0  0  0  0  0  0  0
  152.0589  140.1152  180.1803 C   0  0  0  0  0  0  0  0  0  0  0  0
  149.1867  137.7662  179.7310 C   0  0  0  0  0  0  0  0  0  0  0  0
  149.0611  138.0968  178.3824 F   0  0  0  0  0  0  0  0  0  0  0  0
  149.3863  136.4021  179.8070 F   0  0  0  0  0  0  0  0  0  0  0  0
  147.9946  138.0264  180.3424 F   0  0  0  0  0  0  0  0  0  0  0  0
  157.9351  139.5685  182.7544 C   0  0  0  0  0  0  0  0  0  0  0  0
  160.1903  143.0893  184.5094 N   0  0  0  0  0  0  0  0  0  0  0  0
  160.0615  144.1996  183.7418 C   0  0  0  0  0  0  0  0  0  0  0  0
  160.6170  145.2834  184.1141 O   0  0  0  0  0  0  0  0  0  0  0  0
  159.3624  144.1548  182.6178 N   0  0  0  0  0  0  0  0  0  0  0  0
  159.2204  145.3416  181.7559 C   0  0  0  0  0  0  0  0  0  0  0  0
  158.7594  143.0210  182.1971 C   0  0  0  0  0  0  0  0  0  0  0  0
  158.0094  142.6889  181.1064 N   0  0  0  0  0  0  0  0  0  0  0  0
  157.6685  141.3954  181.1789 C   0  0  0  0  0  0  0  0  0  0  0  0
  158.2192  140.9331  182.3354 N   0  0  0  0  0  0  0  0  0  0  0  0
  158.8774  141.8707  182.9704 C   0  0  0  0  0  0  0  0  0  0  0  0
  159.6219  141.9415  184.1525 C   0  0  0  0  0  0  0  0  0  0  0  0
  159.7137  140.9046  184.8260 O   0  0  0  0  0  0  0  0  0  0  0  0
  160.9268  143.1831  185.7577 C   0  0  0  0  0  0  0  0  0  0  0  0
  163.1649  142.4732  186.7944 C   0  0  0  0  0  0  0  0  0  0  0  0
  162.2455  142.5428  185.6223 C   0  0  0  0  0  0  0  0  0  0  0  0
  162.6078  142.0711  184.5628 O   0  0  0  0  0  0  0  0  0  0  0  0
 35 36  1  0  0  0
 36 37  2  0  0  0
 36 34  1  0  0  0
 34 22  1  0  0  0
 22 23  1  0  0  0
 23 24  2  0  0  0
 23 25  1  0  0  0
 25 26  1  0  0  0
 25 27  1  0  0  0
 27 28  1  0  0  0
 28 29  2  0  0  0
 29 30  1  0  0  0
 30 21  1  0  0  0
 21  1  1  0  0  0
  1  2  2  0  0  0
  1  3  1  0  0  0
  3  5  1  0  0  0
  5  6  2  0  0  0
  6  7  1  0  0  0
  7  8  2  0  0  0
  8  9  1  0  0  0
  9 10  2  0  0  0
  9 11  1  0  0  0
 11 12  2  0  0  0
 12 13  1  0  0  0
 13 14  2  0  0  0
 14 15  1  0  0  0
 15 16  2  0  0  0
 14 17  1  0  0  0
 17 18  1  0  0  0
 17 19  1  0  0  0
 17 20  1  0  0  0
 30 31  1  0  0  0
 31 32  1  0  0  0
 32 33  2  0  0  0
 32 22  1  0  0  0
 31 27  2  0  0  0
 10  5  1  0  0  0
 16 11  1  0  0  0
  3  4  1  0  0  0
M  END
> <minimizedAffinity>
-9.61184

> <CNNscore>
0.4102052748

> <CNNaffinity>
6.9400954247

> <CNN_VS>
2.8468637466

> <CNNaffinity_variance>
0.1379317492

$$$$
[H]c1nc(C(F)(F)F)nc([H])c1-c1nc(N([H])C(=O)C([H])([H])n2c([H])nc3c2c(=O)n(C([H])([H])C(=O)C([H])([H])[H])c(=O)n3C([H])([H])[H])c([H])c([H])c1[H]


 37 40  0  0  0  0  0  0  0  0999 V2000
  154.7811  138.2730  185.8087 C   0  0  0  0  0  0  0  0  0  0  0  0
  155.5279  137.5616  186.6213 O   0  0  0  0  0  0  0  0  0  0  0  0
  155.3144  138.5768  184.5684 N   0  0  0  0  0  0  0  0  0  0  0  0
  156.2765  138.2122  184.3022 H   0  0  0  0  0  0  0  0  0  0  0  0
  154.7501  139.5234  183.6409 C   0  0  0  0  0  0  0  0  0  0  0  0
  155.1476  140.8628  183.7306 C   0  0  0  0  0  0  0  0  0  0  0  0
  154.4914  141.7949  182.9884 C   0  0  0  0  0  0  0  0  0  0  0  0
  153.4637  141.3663  182.1869 C   0  0  0  0  0  0  0  0  0  0  0  0
  153.0822  140.0745  182.1064 C   0  0  0  0  0  0  0  0  0  0  0  0
  153.7366  139.1479  182.8408 N   0  0  0  0  0  0  0  0  0  0  0  0
  151.8870  139.7114  181.3130 C   0  0  0  0  0  0  0  0  0  0  0  0
  151.7939  139.9952  179.9567 C   0  0  0  0  0  0  0  0  0  0  0  0
  150.7196  139.5631  179.2299 N   0  0  0  0  0  0  0  0  0  0  0  0
  149.7179  138.8602  179.7715 C   0  0  0  0  0  0  0  0  0  0  0  0
  149.7996  138.5904  181.0705 N   0  0  0  0  0  0  0  0  0  0  0  0
  150.8438  138.9940  181.8419 C   0  0  0  0  0  0  0  0  0  0  0  0
  148.5658  138.3393  178.9520 C   0  0  0  0  0  0  0  0  0  0  0  0
  148.7333  138.6608  177.6058 F   0  0  0  0  0  0  0  0  0  0  0  0
  148.4911  136.9637  179.0439 F   0  0  0  0  0  0  0  0  0  0  0  0
  147.3578  138.8291  179.3561 F   0  0  0  0  0  0  0  0  0  0  0  0
  153.4113  138.6541  186.3246 C   0  0  0  0  0  0  0  0  0  0  0  0
  150.8048  135.5513  188.3596 N   0  0  0  0  0  0  0  0  0  0  0  0
  151.1288  135.4051  189.6681 C   0  0  0  0  0  0  0  0  0  0  0  0
  150.4688  134.5867  190.3867 O   0  0  0  0  0  0  0  0  0  0  0  0
  152.1209  136.1096  190.1912 N   0  0  0  0  0  0  0  0  0  0  0  0
  152.5054  135.9582  191.6057 C   0  0  0  0  0  0  0  0  0  0  0  0
  152.8381  136.9874  189.4557 C   0  0  0  0  0  0  0  0  0  0  0  0
  153.8919  137.8136  189.7190 N   0  0  0  0  0  0  0  0  0  0  0  0
  154.2306  138.4711  188.6020 C   0  0  0  0  0  0  0  0  0  0  0  0
  153.3661  138.0386  187.6429 N   0  0  0  0  0  0  0  0  0  0  0  0
  152.5214  137.1541  188.1115 C   0  0  0  0  0  0  0  0  0  0  0  0
  151.4709  136.3982  187.5806 C   0  0  0  0  0  0  0  0  0  0  0  0
  151.2059  136.5629  186.3806 O   0  0  0  0  0  0  0  0  0  0  0  0
  149.6838  134.7962  187.8276 C   0  0  0  0  0  0  0  0  0  0  0  0
  147.7986  136.0095  186.5778 C   0  0  0  0  0  0  0  0  0  0  0  0
  148.4591  135.6126  187.8546 C   0  0  0  0  0  0  0  0  0  0  0  0
  147.9733  135.9801  188.9060 O   0  0  0  0  0  0  0  0  0  0  0  0
 35 36  1  0  0  0
 36 37  2  0  0  0
 36 34  1  0  0  0
 34 22  1  0  0  0
 22 23  1  0  0  0
 23 24  2  0  0  0
 23 25  1  0  0  0
 25 26  1  0  0  0
 25 27  1  0  0  0
 27 28  1  0  0  0
 28 29  2  0  0  0
 29 30  1  0  0  0
 30 21  1  0  0  0
 21  1  1  0  0  0
  1  2  2  0  0  0
  1  3  1  0  0  0
  3  5  1  0  0  0
  5  6  2  0  0  0
  6  7  1  0  0  0
  7  8  2  0  0  0
  8  9  1  0  0  0
  9 10  2  0  0  0
  9 11  1  0  0  0
 11 12  2  0  0  0
 12 13  1  0  0  0
 13 14  2  0  0  0
 14 15  1  0  0  0
 15 16  2  0  0  0
 14 17  1  0  0  0
 17 18  1  0  0  0
 17 19  1  0  0  0
 17 20  1  0  0  0
 30 31  1  0  0  0
 31 32  1  0  0  0
 32 33  2  0  0  0
 32 22  1  0  0  0
 31 27  2  0  0  0
 10  5  1  0  0  0
 16 11  1  0  0  0
  3  4  1  0  0  0
M  END
> <minimizedAffinity>
-7.27753

> <CNNscore>
0.4071950912

> <CNNaffinity>
5.9202876091

> <CNN_VS>
2.4107120037

> <CNNaffinity_variance>
0.3134042323

$$$$
[H]c1nc(C(F)(F)F)nc([H])c1-c1nc(N([H])C(=O)C([H])([H])n2c([H])nc3c2c(=O)n(C([H])([H])C(=O)C([H])([H])[H])c(=O)n3C([H])([H])[H])c([H])c([H])c1[H]


 37 40  0  0  0  0  0  0  0  0999 V2000
  155.2592  139.3296  185.0350 C   0  0  0  0  0  0  0  0  0  0  0  0
  154.7305  140.1113  184.1221 O   0  0  0  0  0  0  0  0  0  0  0  0
  154.3853  138.5893  185.8117 N   0  0  0  0  0  0  0  0  0  0  0  0
  153.3391  138.6493  185.6348 H   0  0  0  0  0  0  0  0  0  0  0  0
  154.7559  137.8593  186.9969 C   0  0  0  0  0  0  0  0  0  0  0  0
  154.4811  138.4308  188.2450 C   0  0  0  0  0  0  0  0  0  0  0  0
  154.9865  137.8435  189.3630 C   0  0  0  0  0  0  0  0  0  0  0  0
  155.7477  136.7134  189.2033 C   0  0  0  0  0  0  0  0  0  0  0  0
  156.0125  136.1683  187.9976 C   0  0  0  0  0  0  0  0  0  0  0  0
  155.5073  136.7495  186.8872 N   0  0  0  0  0  0  0  0  0  0  0  0
  156.9417  135.0206  187.9003 C   0  0  0  0  0  0  0  0  0  0  0  0
  156.6847  133.9382  187.0692 C   0  0  0  0  0  0  0  0  0  0  0  0
  157.6062  132.9382  186.9278 N   0  0  0  0  0  0  0  0  0  0  0  0
  158.7808  132.9437  187.5692 C   0  0  0  0  0  0  0  0  0  0  0  0
  159.0294  133.9750  188.3700 N   0  0  0  0  0  0  0  0  0  0  0  0
  158.1508  134.9970  188.5485 C   0  0  0  0  0  0  0  0  0  0  0  0
  159.8142  131.8666  187.3641 C   0  0  0  0  0  0  0  0  0  0  0  0
  160.8127  132.3007  186.4932 F   0  0  0  0  0  0  0  0  0  0  0  0
  160.4200  131.5444  188.5622 F   0  0  0  0  0  0  0  0  0  0  0  0
  159.2894  130.7109  186.8625 F   0  0  0  0  0  0  0  0  0  0  0  0
  156.7699  139.3177  185.1081 C   0  0  0  0  0  0  0  0  0  0  0  0
  159.6205  142.8156  184.6595 N   0  0  0  0  0  0  0  0  0  0  0  0
  159.5378  143.3743  183.4268 C   0  0  0  0  0  0  0  0  0  0  0  0
  160.2591  144.3871  183.1512 O   0  0  0  0  0  0  0  0  0  0  0  0
  158.7126  142.8709  182.5215 N   0  0  0  0  0  0  0  0  0  0  0  0
  158.6151  143.4476  181.1688 C   0  0  0  0  0  0  0  0  0  0  0  0
  157.9330  141.7990  182.7841 C   0  0  0  0  0  0  0  0  0  0  0  0
  157.0268  141.0795  182.0603 N   0  0  0  0  0  0  0  0  0  0  0  0
  156.5437  140.0848  182.8165 C   0  0  0  0  0  0  0  0  0  0  0  0
  157.1654  140.2027  184.0223 N   0  0  0  0  0  0  0  0  0  0  0  0
  158.0008  141.2112  184.0431 C   0  0  0  0  0  0  0  0  0  0  0  0
  158.8806  141.7590  184.9825 C   0  0  0  0  0  0  0  0  0  0  0  0
  158.9247  141.2195  186.0979 O   0  0  0  0  0  0  0  0  0  0  0  0
  160.5030  143.4181  185.6433 C   0  0  0  0  0  0  0  0  0  0  0  0
  162.6253  142.7374  186.9161 C   0  0  0  0  0  0  0  0  0  0  0  0
  161.7893  142.7033  185.6817 C   0  0  0  0  0  0  0  0  0  0  0  0
  162.1924  142.0852  184.7163 O   0  0  0  0  0  0  0  0  0  0  0  0
 35 36  1  0  0  0
 36 37  2  0  0  0
 36 34  1  0  0  0
 34 22  1  0  0  0
 22 23  1  0  0  0
 23 24  2  0  0  0
 23 25  1  0  0  0
 25 26  1  0  0  0
 25 27  1  0  0  0
 27 28  1  0  0  0
 28 29  2  0  0  0
 29 30  1  0  0  0
 30 21  1  0  0  0
 21  1  1  0  0  0
  1  2  2  0  0  0
  1  3  1  0  0  0
  3  5  1  0  0  0
  5  6  2  0  0  0
  6  7  1  0  0  0
  7  8  2  0  0  0
  8  9  1  0  0  0
  9 10  2  0  0  0
  9 11  1  0  0  0
 11 12  2  0  0  0
 12 13  1  0  0  0
 13 14  2  0  0  0
 14 15  1  0  0  0
 15 16  2  0  0  0
 14 17  1  0  0  0
 17 18  1  0  0  0
 17 19  1  0  0  0
 17 20  1  0  0  0
 30 31  1  0  0  0
 31 32  1  0  0  0
 32 33  2  0  0  0
 32 22  1  0  0  0
 31 27  2  0  0  0
 10  5  1  0  0  0
 16 11  1  0  0  0
  3  4  1  0  0  0
M  END
> <minimizedAffinity>
-8.19038

> <CNNscore>
0.3558493555

> <CNNaffinity>
6.7018713951

> <CNN_VS>
2.3848567009

> <CNNaffinity_variance>
0.0885466635

$$$$
[H]c1nc(C(F)(F)F)nc([H])c1-c1nc(N([H])C(=O)C([H])([H])n2c([H])nc3c2c(=O)n(C([H])([H])C(=O)C([H])([H])[H])c(=O)n3C([H])([H])[H])c([H])c([H])c1[H]


 37 40  0  0  0  0  0  0  0  0999 V2000
  154.6416  138.2944  185.7253 C   0  0  0  0  0  0  0  0  0  0  0  0
  155.4049  137.5540  186.4955 O   0  0  0  0  0  0  0  0  0  0  0  0
  155.0717  138.5017  184.4264 N   0  0  0  0  0  0  0  0  0  0  0  0
  155.9692  138.0452  184.0868 H   0  0  0  0  0  0  0  0  0  0  0  0
  154.4971  139.4560  183.5130 C   0  0  0  0  0  0  0  0  0  0  0  0
  154.8689  140.8004  183.6324 C   0  0  0  0  0  0  0  0  0  0  0  0
  154.2012  141.7347  182.9034 C   0  0  0  0  0  0  0  0  0  0  0  0
  153.1881  141.3033  182.0851 C   0  0  0  0  0  0  0  0  0  0  0  0
  152.8313  140.0064  181.9761 C   0  0  0  0  0  0  0  0  0  0  0  0
  153.4971  139.0777  182.6974 N   0  0  0  0  0  0  0  0  0  0  0  0
  151.6494  139.6371  181.1658 C   0  0  0  0  0  0  0  0  0  0  0  0
  151.5708  139.9274  179.8100 C   0  0  0  0  0  0  0  0  0  0  0  0
  150.5095  139.4898  179.0674 N   0  0  0  0  0  0  0  0  0  0  0  0
  149.5073  138.7752  179.5928 C   0  0  0  0  0  0  0  0  0  0  0  0
  149.5751  138.4993  180.8913 N   0  0  0  0  0  0  0  0  0  0  0  0
  150.6060  138.9079  181.6778 C   0  0  0  0  0  0  0  0  0  0  0  0
  148.3703  138.2486  178.7562 C   0  0  0  0  0  0  0  0  0  0  0  0
  148.5768  138.5349  177.4074 F   0  0  0  0  0  0  0  0  0  0  0  0
  148.2753  136.8767  178.8794 F   0  0  0  0  0  0  0  0  0  0  0  0
  147.1586  138.7632  179.1164 F   0  0  0  0  0  0  0  0  0  0  0  0
  153.3660  138.8123  186.3515 C   0  0  0  0  0  0  0  0  0  0  0  0
  153.1460  136.4881  190.2389 N   0  0  0  0  0  0  0  0  0  0  0  0
  152.4466  135.3355  190.0946 C   0  0  0  0  0  0  0  0  0  0  0  0
  152.3163  134.5555  191.0928 O   0  0  0  0  0  0  0  0  0  0  0  0
  151.9074  135.0257  188.9252 N   0  0  0  0  0  0  0  0  0  0  0  0
  151.1279  133.7882  188.7447 C   0  0  0  0  0  0  0  0  0  0  0  0
  152.0299  135.8310  187.8471 C   0  0  0  0  0  0  0  0  0  0  0  0
  151.5814  135.7741  186.5594 N   0  0  0  0  0  0  0  0  0  0  0  0
  151.9869  136.8669  185.8992 C   0  0  0  0  0  0  0  0  0  0  0  0
  152.6966  137.6004  186.8008 N   0  0  0  0  0  0  0  0  0  0  0  0
  152.7449  137.0177  187.9727 C   0  0  0  0  0  0  0  0  0  0  0  0
  153.3040  137.3246  189.2176 C   0  0  0  0  0  0  0  0  0  0  0  0
  153.9370  138.3870  189.3067 O   0  0  0  0  0  0  0  0  0  0  0  0
  153.7614  136.7773  191.5224 C   0  0  0  0  0  0  0  0  0  0  0  0
  156.2767  137.2625  191.3619 C   0  0  0  0  0  0  0  0  0  0  0  0
  155.1533  136.2982  191.5412 C   0  0  0  0  0  0  0  0  0  0  0  0
  155.4092  135.1203  191.6943 O   0  0  0  0  0  0  0  0  0  0  0  0
 35 36  1  0  0  0
 36 37  2  0  0  0
 36 34  1  0  0  0
 34 22  1  0  0  0
 22 23  1  0  0  0
 23 24  2  0  0  0
 23 25  1  0  0  0
 25 26  1  0  0  0
 25 27  1  0  0  0
 27 28  1  0  0  0
 28 29  2  0  0  0
 29 30  1  0  0  0
 30 21  1  0  0  0
 21  1  1  0  0  0
  1  2  2  0  0  0
  1  3  1  0  0  0
  3  5  1  0  0  0
  5  6  2  0  0  0
  6  7  1  0  0  0
  7  8  2  0  0  0
  8  9  1  0  0  0
  9 10  2  0  0  0
  9 11  1  0  0  0
 11 12  2  0  0  0
 12 13  1  0  0  0
 13 14  2  0  0  0
 14 15  1  0  0  0
 15 16  2  0  0  0
 14 17  1  0  0  0
 17 18  1  0  0  0
 17 19  1  0  0  0
 17 20  1  0  0  0
 30 31  1  0  0  0
 31 32  1  0  0  0
 32 33  2  0  0  0
 32 22  1  0  0  0
 31 27  2  0  0  0
 10  5  1  0  0  0
 16 11  1  0  0  0
  3  4  1  0  0  0
M  END
> <minimizedAffinity>
-7.48162

> <CNNscore>
0.3504541516

> <CNNaffinity>
5.8339195251

> <CNN_VS>
2.0445213318

> <CNNaffinity_variance>
0.1972450912

$$$$
[H]c1nc(C(F)(F)F)nc([H])c1-c1nc(N([H])C(=O)C([H])([H])n2c([H])nc3c2c(=O)n(C([H])([H])C(=O)C([H])([H])[H])c(=O)n3C([H])([H])[H])c([H])c([H])c1[H]


 37 40  0  0  0  0  0  0  0  0999 V2000
  153.2534  136.6509  185.1322 C   0  0  0  0  0  0  0  0  0  0  0  0
  153.6330  135.4478  185.4963 O   0  0  0  0  0  0  0  0  0  0  0  0
  153.3779  136.9707  183.7916 N   0  0  0  0  0  0  0  0  0  0  0  0
  153.7405  136.2446  183.1056 H   0  0  0  0  0  0  0  0  0  0  0  0
  153.2307  138.2957  183.2459 C   0  0  0  0  0  0  0  0  0  0  0  0
  152.1123  138.5681  182.4492 C   0  0  0  0  0  0  0  0  0  0  0  0
  152.0533  139.7511  181.7805 C   0  0  0  0  0  0  0  0  0  0  0  0
  153.1057  140.6196  181.9235 C   0  0  0  0  0  0  0  0  0  0  0  0
  154.1832  140.3509  182.6901 C   0  0  0  0  0  0  0  0  0  0  0  0
  154.2401  139.1773  183.3574 N   0  0  0  0  0  0  0  0  0  0  0  0
  155.3305  141.2856  182.6951 C   0  0  0  0  0  0  0  0  0  0  0  0
  156.6384  140.8396  182.8327 C   0  0  0  0  0  0  0  0  0  0  0  0
  157.6836  141.7158  182.7378 N   0  0  0  0  0  0  0  0  0  0  0  0
  157.5103  143.0239  182.5146 C   0  0  0  0  0  0  0  0  0  0  0  0
  156.2600  143.4568  182.3875 N   0  0  0  0  0  0  0  0  0  0  0  0
  155.1830  142.6314  182.4722 C   0  0  0  0  0  0  0  0  0  0  0  0
  158.6695  143.9730  182.3550 C   0  0  0  0  0  0  0  0  0  0  0  0
  159.6918  143.6575  183.2489 F   0  0  0  0  0  0  0  0  0  0  0  0
  159.1920  143.8868  181.0799 F   0  0  0  0  0  0  0  0  0  0  0  0
  158.3229  145.2781  182.5533 F   0  0  0  0  0  0  0  0  0  0  0  0
  152.7010  137.5352  186.2278 C   0  0  0  0  0  0  0  0  0  0  0  0
  153.2472  136.0005  190.4597 N   0  0  0  0  0  0  0  0  0  0  0  0
  154.4355  136.3897  190.9842 C   0  0  0  0  0  0  0  0  0  0  0  0
  154.7283  136.0595  192.1788 O   0  0  0  0  0  0  0  0  0  0  0  0
  155.2800  137.1080  190.2597 N   0  0  0  0  0  0  0  0  0  0  0  0
  156.5851  137.5299  190.7986 C   0  0  0  0  0  0  0  0  0  0  0  0
  154.9974  137.4761  188.9906 C   0  0  0  0  0  0  0  0  0  0  0  0
  155.6647  138.1826  188.0324 N   0  0  0  0  0  0  0  0  0  0  0  0
  154.9168  138.2415  186.9225 C   0  0  0  0  0  0  0  0  0  0  0  0
  153.7735  137.5605  187.2115 N   0  0  0  0  0  0  0  0  0  0  0  0
  153.7831  137.0888  188.4334 C   0  0  0  0  0  0  0  0  0  0  0  0
  152.9079  136.3294  189.2168 C   0  0  0  0  0  0  0  0  0  0  0  0
  151.8314  135.9954  188.7002 O   0  0  0  0  0  0  0  0  0  0  0  0
  152.3253  135.2510  191.2950 C   0  0  0  0  0  0  0  0  0  0  0  0
  149.8321  135.7991  191.5619 C   0  0  0  0  0  0  0  0  0  0  0  0
  151.2645  136.1347  191.8057 C   0  0  0  0  0  0  0  0  0  0  0  0
  151.5338  137.1466  192.4222 O   0  0  0  0  0  0  0  0  0  0  0  0
 35 36  1  0  0  0
 36 37  2  0  0  0
 36 34  1  0  0  0
 34 22  1  0  0  0
 22 23  1  0  0  0
 23 24  2  0  0  0
 23 25  1  0  0  0
 25 26  1  0  0  0
 25 27  1  0  0  0
 27 28  1  0  0  0
 28 29  2  0  0  0
 29 30  1  0  0  0
 30 21  1  0  0  0
 21  1  1  0  0  0
  1  2  2  0  0  0
  1  3  1  0  0  0
  3  5  1  0  0  0
  5  6  2  0  0  0
  6  7  1  0  0  0
  7  8  2  0  0  0
  8  9  1  0  0  0
  9 10  2  0  0  0
  9 11  1  0  0  0
 11 12  2  0  0  0
 12 13  1  0  0  0
 13 14  2  0  0  0
 14 15  1  0  0  0
 15 16  2  0  0  0
 14 17  1  0  0  0
 17 18  1  0  0  0
 17 19  1  0  0  0
 17 20  1  0  0  0
 30 31  1  0  0  0
 31 32  1  0  0  0
 32 33  2  0  0  0
 32 22  1  0  0  0
 31 27  2  0  0  0
 10  5  1  0  0  0
 16 11  1  0  0  0
  3  4  1  0  0  0
M  END
> <minimizedAffinity>
-7.78102

> <CNNscore>
0.3319660723

> <CNNaffinity>
6.2353768349

> <CNN_VS>
2.0699336529

> <CNNaffinity_variance>
0.0542966612

$$$$
[H]c1nc(C(F)(F)F)nc([H])c1-c1nc(N([H])C(=O)C([H])([H])n2c([H])nc3c2c(=O)n(C([H])([H])C(=O)C([H])([H])[H])c(=O)n3C([H])([H])[H])c([H])c([H])c1[H]


 37 40  0  0  0  0  0  0  0  0999 V2000
  155.2586  140.7064  183.5912 C   0  0  0  0  0  0  0  0  0  0  0  0
  155.0444  141.9935  183.4436 O   0  0  0  0  0  0  0  0  0  0  0  0
  154.2197  139.9510  184.1060 N   0  0  0  0  0  0  0  0  0  0  0  0
  153.2912  140.4145  184.3353 H   0  0  0  0  0  0  0  0  0  0  0  0
  154.3372  138.5848  184.5472 C   0  0  0  0  0  0  0  0  0  0  0  0
  153.7222  137.5834  183.7865 C   0  0  0  0  0  0  0  0  0  0  0  0
  153.6680  136.3188  184.2845 C   0  0  0  0  0  0  0  0  0  0  0  0
  154.2225  136.0934  185.5190 C   0  0  0  0  0  0  0  0  0  0  0  0
  154.8114  137.0630  186.2498 C   0  0  0  0  0  0  0  0  0  0  0  0
  154.8686  138.3185  185.7535 N   0  0  0  0  0  0  0  0  0  0  0  0
  155.2763  136.7655  187.6229 C   0  0  0  0  0  0  0  0  0  0  0  0
  154.6322  137.2775  188.7417 C   0  0  0  0  0  0  0  0  0  0  0  0
  155.0258  136.9087  189.9979 N   0  0  0  0  0  0  0  0  0  0  0  0
  156.0327  136.0548  190.2168 C   0  0  0  0  0  0  0  0  0  0  0  0
  156.6560  135.5660  189.1494 N   0  0  0  0  0  0  0  0  0  0  0  0
  156.3074  135.8969  187.8777 C   0  0  0  0  0  0  0  0  0  0  0  0
  156.4231  135.6099  191.6024 C   0  0  0  0  0  0  0  0  0  0  0  0
  156.9186  136.6821  192.3432 F   0  0  0  0  0  0  0  0  0  0  0  0
  155.3260  135.1117  192.2765 F   0  0  0  0  0  0  0  0  0  0  0  0
  157.3678  134.6250  191.6012 F   0  0  0  0  0  0  0  0  0  0  0  0
  156.6161  140.2026  183.1544 C   0  0  0  0  0  0  0  0  0  0  0  0
  159.8057  143.0684  184.6297 N   0  0  0  0  0  0  0  0  0  0  0  0
  159.9786  144.1078  183.7764 C   0  0  0  0  0  0  0  0  0  0  0  0
  160.8239  145.0163  184.0629 O   0  0  0  0  0  0  0  0  0  0  0  0
  159.2723  144.1761  182.6581 N   0  0  0  0  0  0  0  0  0  0  0  0
  159.4521  145.2853  181.7048 C   0  0  0  0  0  0  0  0  0  0  0  0
  158.3664  143.2296  182.3273 C   0  0  0  0  0  0  0  0  0  0  0  0
  157.5311  143.0400  181.2648 N   0  0  0  0  0  0  0  0  0  0  0  0
  156.8419  141.9046  181.4387 C   0  0  0  0  0  0  0  0  0  0  0  0
  157.2639  141.3956  182.6293 N   0  0  0  0  0  0  0  0  0  0  0  0
  158.1720  142.1553  183.1894 C   0  0  0  0  0  0  0  0  0  0  0  0
  158.9303  142.1036  184.3636 C   0  0  0  0  0  0  0  0  0  0  0  0
  158.7406  141.1375  185.1172 O   0  0  0  0  0  0  0  0  0  0  0  0
  160.5642  143.0458  185.8682 C   0  0  0  0  0  0  0  0  0  0  0  0
  162.9669  142.6269  186.6678 C   0  0  0  0  0  0  0  0  0  0  0  0
  161.8984  142.4672  185.6397 C   0  0  0  0  0  0  0  0  0  0  0  0
  162.1529  141.8618  184.6174 O   0  0  0  0  0  0  0  0  0  0  0  0
 35 36  1  0  0  0
 36 37  2  0  0  0
 36 34  1  0  0  0
 34 22  1  0  0  0
 22 23  1  0  0  0
 23 24  2  0  0  0
 23 25  1  0  0  0
 25 26  1  0  0  0
 25 27  1  0  0  0
 27 28  1  0  0  0
 28 29  2  0  0  0
 29 30  1  0  0  0
 30 21  1  0  0  0
 21  1  1  0  0  0
  1  2  2  0  0  0
  1  3  1  0  0  0
  3  5  1  0  0  0
  5  6  2  0  0  0
  6  7  1  0  0  0
  7  8  2  0  0  0
  8  9  1  0  0  0
  9 10  2  0  0  0
  9 11  1  0  0  0
 11 12  2  0  0  0
 12 13  1  0  0  0
 13 14  2  0  0  0
 14 15  1  0  0  0
 15 16  2  0  0  0
 14 17  1  0  0  0
 17 18  1  0  0  0
 17 19  1  0  0  0
 17 20  1  0  0  0
 30 31  1  0  0  0
 31 32  1  0  0  0
 32 33  2  0  0  0
 32 22  1  0  0  0
 31 27  2  0  0  0
 10  5  1  0  0  0
 16 11  1  0  0  0
  3  4  1  0  0  0
M  END
> <minimizedAffinity>
-8.76993

> <CNNscore>
0.3285039961

> <CNNaffinity>
6.8535299301

> <CNN_VS>
2.2514119148

> <CNNaffinity_variance>
0.0200358182

$$$$
[H]c1nc(C(F)(F)F)nc([H])c1-c1nc(N([H])C(=O)C([H])([H])n2c([H])nc3c2c(=O)n(C([H])([H])C(=O)C([H])([H])[H])c(=O)n3C([H])([H])[H])c([H])c([H])c1[H]


 37 40  0  0  0  0  0  0  0  0999 V2000
  155.0556  140.4950  184.0127 C   0  0  0  0  0  0  0  0  0  0  0  0
  154.8153  141.7376  183.6628 O   0  0  0  0  0  0  0  0  0  0  0  0
  154.0064  139.7841  184.5685 N   0  0  0  0  0  0  0  0  0  0  0  0
  153.0520  140.2406  184.6685 H   0  0  0  0  0  0  0  0  0  0  0  0
  154.1330  138.5026  185.2140 C   0  0  0  0  0  0  0  0  0  0  0  0
  154.2661  137.3626  184.4123 C   0  0  0  0  0  0  0  0  0  0  0  0
  154.2021  136.1361  184.9969 C   0  0  0  0  0  0  0  0  0  0  0  0
  154.0058  136.0840  186.3537 C   0  0  0  0  0  0  0  0  0  0  0  0
  153.8748  137.1858  187.1217 C   0  0  0  0  0  0  0  0  0  0  0  0
  153.9421  138.4044  186.5415 N   0  0  0  0  0  0  0  0  0  0  0  0
  153.5437  137.0436  188.5570 C   0  0  0  0  0  0  0  0  0  0  0  0
  154.3371  137.6019  189.5508 C   0  0  0  0  0  0  0  0  0  0  0  0
  153.9552  137.5359  190.8619 N   0  0  0  0  0  0  0  0  0  0  0  0
  152.8224  136.9410  191.2542 C   0  0  0  0  0  0  0  0  0  0  0  0
  152.0622  136.4004  190.3074 N   0  0  0  0  0  0  0  0  0  0  0  0
  152.3916  136.4364  188.9889 C   0  0  0  0  0  0  0  0  0  0  0  0
  152.3810  136.9222  192.6947 C   0  0  0  0  0  0  0  0  0  0  0  0
  152.5374  138.1804  193.2747 F   0  0  0  0  0  0  0  0  0  0  0  0
  151.0449  136.5865  192.7858 F   0  0  0  0  0  0  0  0  0  0  0  0
  153.0686  136.0193  193.4527 F   0  0  0  0  0  0  0  0  0  0  0  0
  156.4530  139.9846  183.7404 C   0  0  0  0  0  0  0  0  0  0  0  0
  159.7150  142.9372  184.8379 N   0  0  0  0  0  0  0  0  0  0  0  0
  159.8756  143.8846  183.8813 C   0  0  0  0  0  0  0  0  0  0  0  0
  160.7389  144.8050  184.0534 O   0  0  0  0  0  0  0  0  0  0  0  0
  159.1391  143.8518  182.7811 N   0  0  0  0  0  0  0  0  0  0  0  0
  159.3046  144.8586  181.7178 C   0  0  0  0  0  0  0  0  0  0  0  0
  158.2136  142.8900  182.5703 C   0  0  0  0  0  0  0  0  0  0  0  0
  157.3468  142.6080  181.5546 N   0  0  0  0  0  0  0  0  0  0  0  0
  156.6499  141.5052  181.8588 C   0  0  0  0  0  0  0  0  0  0  0  0
  157.0993  141.1106  183.0822 N   0  0  0  0  0  0  0  0  0  0  0  0
  158.0313  141.9091  183.5396 C   0  0  0  0  0  0  0  0  0  0  0  0
  158.8216  141.9632  184.6925 C   0  0  0  0  0  0  0  0  0  0  0  0
  158.6422  141.0792  185.5431 O   0  0  0  0  0  0  0  0  0  0  0  0
  160.5076  143.0267  186.0518 C   0  0  0  0  0  0  0  0  0  0  0  0
  162.9274  142.6940  186.8401 C   0  0  0  0  0  0  0  0  0  0  0  0
  161.8585  142.4892  185.8206 C   0  0  0  0  0  0  0  0  0  0  0  0
  162.1262  141.8818  184.8029 O   0  0  0  0  0  0  0  0  0  0  0  0
 35 36  1  0  0  0
 36 37  2  0  0  0
 36 34  1  0  0  0
 34 22  1  0  0  0
 22 23  1  0  0  0
 23 24  2  0  0  0
 23 25  1  0  0  0
 25 26  1  0  0  0
 25 27  1  0  0  0
 27 28  1  0  0  0
 28 29  2  0  0  0
 29 30  1  0  0  0
 30 21  1  0  0  0
 21  1  1  0  0  0
  1  2  2  0  0  0
  1  3  1  0  0  0
  3  5  1  0  0  0
  5  6  2  0  0  0
  6  7  1  0  0  0
  7  8  2  0  0  0
  8  9  1  0  0  0
  9 10  2  0  0  0
  9 11  1  0  0  0
 11 12  2  0  0  0
 12 13  1  0  0  0
 13 14  2  0  0  0
 14 15  1  0  0  0
 15 16  2  0  0  0
 14 17  1  0  0  0
 17 18  1  0  0  0
 17 19  1  0  0  0
 17 20  1  0  0  0
 30 31  1  0  0  0
 31 32  1  0  0  0
 32 33  2  0  0  0
 32 22  1  0  0  0
 31 27  2  0  0  0
 10  5  1  0  0  0
 16 11  1  0  0  0
  3  4  1  0  0  0
M  END
> <minimizedAffinity>
-8.94615

> <CNNscore>
0.3193583488

> <CNNaffinity>
6.5064644814

> <CNN_VS>
2.0778937340

> <CNNaffinity_variance>
0.1032888442

$$$$
[H]c1nc([H])c(N([H])C(=O)[C@@]([H])(n2c([H])nc3c2c(=O)n(C([H])([H])C#N)c(=O)n3C([H])([H])[H])C([H])([H])[H])nc1-c1c([H])nc(N2C([H])([H])C([H])([H])C([H])([H])[C@]2([H])C(F)(F)F)nc1[H]


 42 46  0  0  0  0  0  0  0  0999 V2000
  154.7810  137.8894  189.0559 C   0  0  0  0  0  0  0  0  0  0  0  0
  155.8380  137.7749  188.4478 O   0  0  0  0  0  0  0  0  0  0  0  0
  153.5200  137.9559  188.4843 N   0  0  0  0  0  0  0  0  0  0  0  0
  152.6419  138.0573  189.1053 H   0  0  0  0  0  0  0  0  0  0  0  0
  153.2368  137.9023  187.1018 C   0  0  0  0  0  0  0  0  0  0  0  0
  152.2000  137.2067  186.5505 C   0  0  0  0  0  0  0  0  0  0  0  0
  151.9852  137.1995  185.1958 N   0  0  0  0  0  0  0  0  0  0  0  0
  152.8211  137.8952  184.4164 C   0  0  0  0  0  0  0  0  0  0  0  0
  153.8802  138.6129  184.9141 C   0  0  0  0  0  0  0  0  0  0  0  0
  154.0551  138.5951  186.2310 N   0  0  0  0  0  0  0  0  0  0  0  0
  154.8140  139.3844  184.0922 C   0  0  0  0  0  0  0  0  0  0  0  0
  154.4223  140.1123  182.9956 C   0  0  0  0  0  0  0  0  0  0  0  0
  155.3466  140.8111  182.2709 N   0  0  0  0  0  0  0  0  0  0  0  0
  156.6518  140.8220  182.5853 C   0  0  0  0  0  0  0  0  0  0  0  0
  157.0356  140.1098  183.6586 N   0  0  0  0  0  0  0  0  0  0  0  0
  156.1688  139.4056  184.4050 C   0  0  0  0  0  0  0  0  0  0  0  0
  157.6033  141.5605  181.8129 N   0  0  0  0  0  0  0  0  0  0  0  0
  158.2928  141.1003  180.6522 C   0  0  0  0  0  0  0  0  0  0  0  0
  158.4386  142.3432  179.8053 C   0  0  0  0  0  0  0  0  0  0  0  0
  158.1806  143.5090  180.7214 C   0  0  0  0  0  0  0  0  0  0  0  0
  158.0161  142.9034  182.0955 C   0  0  0  0  0  0  0  0  0  0  0  0
  159.3239  142.9771  182.8804 C   0  0  0  0  0  0  0  0  0  0  0  0
  160.1589  141.9765  182.4892 F   0  0  0  0  0  0  0  0  0  0  0  0
  159.8770  144.2283  182.8330 F   0  0  0  0  0  0  0  0  0  0  0  0
  159.0197  142.7233  184.2247 F   0  0  0  0  0  0  0  0  0  0  0  0
  156.1803  138.2525  191.1113 C   0  0  0  0  0  0  0  0  0  0  0  0
  154.8273  137.9640  190.5694 C   0  0  0  0  0  0  0  0  0  0  0  0
  154.0508  136.9696  191.2189 N   0  0  0  0  0  0  0  0  0  0  0  0
  152.9095  137.1535  191.9513 C   0  0  0  0  0  0  0  0  0  0  0  0
  152.4402  136.0021  192.4184 N   0  0  0  0  0  0  0  0  0  0  0  0
  153.2453  135.0161  192.0174 C   0  0  0  0  0  0  0  0  0  0  0  0
  153.2000  133.6815  192.2276 N   0  0  0  0  0  0  0  0  0  0  0  0
  152.1109  133.1352  193.0250 C   0  0  0  0  0  0  0  0  0  0  0  0
  154.1574  132.9201  191.6947 C   0  0  0  0  0  0  0  0  0  0  0  0
  154.0880  131.6686  191.9096 O   0  0  0  0  0  0  0  0  0  0  0  0
  155.1535  133.4411  190.9631 N   0  0  0  0  0  0  0  0  0  0  0  0
  155.2096  134.7753  190.7458 C   0  0  0  0  0  0  0  0  0  0  0  0
  156.1388  135.2675  190.0623 O   0  0  0  0  0  0  0  0  0  0  0  0
  154.2554  135.6218  191.2652 C   0  0  0  0  0  0  0  0  0  0  0  0
  156.1743  132.5833  190.4009 C   0  0  0  0  0  0  0  0  0  0  0  0
  157.2388  132.4733  191.4220 C   0  0  0  0  0  0  0  0  0  0  0  0
  158.0846  132.3917  192.2109 N   0  0  0  0  0  0  0  0  0  0  0  0
 26 27  1  0  0  0
 27  1  1  0  0  0
  1  2  2  0  0  0
  1  3  1  0  0  0
  3  5  1  0  0  0
  5  6  2  0  0  0
  6  7  1  0  0  0
  7  8  2  0  0  0
  8  9  1  0  0  0
  9 10  2  0  0  0
  9 11  1  0  0  0
 11 12  2  0  0  0
 12 13  1  0  0  0
 13 14  2  0  0  0
 14 15  1  0  0  0
 15 16  2  0  0  0
 14 17  1  0  0  0
 17 18  1  0  0  0
 18 19  1  0  0  0
 19 20  1  0  0  0
 20 21  1  0  0  0
 21 22  1  0  0  0
 22 23  1  0  0  0
 22 24  1  0  0  0
 22 25  1  0  0  0
 27 28  1  0  0  0
 28 29  1  0  0  0
 29 30  2  0  0  0
 30 31  1  0  0  0
 31 32  1  0  0  0
 32 33  1  0  0  0
 32 34  1  0  0  0
 34 35  2  0  0  0
 34 36  1  0  0  0
 36 40  1  0  0  0
 40 41  1  0  0  0
 41 42  3  0  0  0
 36 37  1  0  0  0
 37 38  2  0  0  0
 37 39  1  0  0  0
 10  5  1  0  0  0
 16 11  1  0  0  0
 21 17  1  0  0  0
 39 28  1  0  0  0
 39 31  2  0  0  0
  3  4  1  0  0  0
M  END
> <minimizedAffinity>
-8.26809

> <CNNscore>
0.3103025556

> <CNNaffinity>
6.8110747337

> <CNN_VS>
2.1134939194

> <CNNaffinity_variance>
0.0591752939

$$$$
[H]c1nc([H])c(N([H])C(=O)[C@@]([H])(n2c([H])nc3c2c(=O)n(C([H])([H])C#N)c(=O)n3C([H])([H])[H])C([H])([H])[H])nc1-c1c([H])nc(N2C([H])([H])C([H])([H])C([H])([H])[C@]2([H])C(F)(F)F)nc1[H]


 42 46  0  0  0  0  0  0  0  0999 V2000
  154.5564  137.8241  188.8628 C   0  0  0  0  0  0  0  0  0  0  0  0
  155.5782  138.1857  188.2924 O   0  0  0  0  0  0  0  0  0  0  0  0
  153.3431  137.5451  188.2534 N   0  0  0  0  0  0  0  0  0  0  0  0
  152.4938  137.2312  188.8424 H   0  0  0  0  0  0  0  0  0  0  0  0
  153.0765  137.6292  186.8690 C   0  0  0  0  0  0  0  0  0  0  0  0
  152.0246  137.0231  186.2453 C   0  0  0  0  0  0  0  0  0  0  0  0
  151.8274  137.1484  184.8937 N   0  0  0  0  0  0  0  0  0  0  0  0
  152.6959  137.8842  184.1906 C   0  0  0  0  0  0  0  0  0  0  0  0
  153.7715  138.5165  184.7632 C   0  0  0  0  0  0  0  0  0  0  0  0
  153.9285  138.3712  186.0745 N   0  0  0  0  0  0  0  0  0  0  0  0
  154.7408  139.3285  184.0258 C   0  0  0  0  0  0  0  0  0  0  0  0
  154.4106  140.0646  182.9146 C   0  0  0  0  0  0  0  0  0  0  0  0
  155.3654  140.8019  182.2722 N   0  0  0  0  0  0  0  0  0  0  0  0
  156.6428  140.8437  182.6835 C   0  0  0  0  0  0  0  0  0  0  0  0
  156.9664  140.1234  183.7712 N   0  0  0  0  0  0  0  0  0  0  0  0
  156.0675  139.3820  184.4395 C   0  0  0  0  0  0  0  0  0  0  0  0
  157.6271  141.6222  181.9963 N   0  0  0  0  0  0  0  0  0  0  0  0
  158.3084  141.2597  180.7968 C   0  0  0  0  0  0  0  0  0  0  0  0
  158.5068  142.5776  180.0848 C   0  0  0  0  0  0  0  0  0  0  0  0
  158.2847  143.6506  181.1163 C   0  0  0  0  0  0  0  0  0  0  0  0
  158.0869  142.9119  182.4190 C   0  0  0  0  0  0  0  0  0  0  0  0
  159.3902  142.8544  183.2128 C   0  0  0  0  0  0  0  0  0  0  0  0
  160.1803  141.8532  182.7388 F   0  0  0  0  0  0  0  0  0  0  0  0
  160.0020  144.0773  183.2775 F   0  0  0  0  0  0  0  0  0  0  0  0
  159.0632  142.4990  184.5284 F   0  0  0  0  0  0  0  0  0  0  0  0
  155.4550  138.6525  191.0584 C   0  0  0  0  0  0  0  0  0  0  0  0
  154.5956  137.6557  190.3690 C   0  0  0  0  0  0  0  0  0  0  0  0
  154.6739  136.3045  190.7953 N   0  0  0  0  0  0  0  0  0  0  0  0
  155.8038  135.5520  190.9685 C   0  0  0  0  0  0  0  0  0  0  0  0
  155.5117  134.3226  191.3777 N   0  0  0  0  0  0  0  0  0  0  0  0
  154.1866  134.2115  191.4915 C   0  0  0  0  0  0  0  0  0  0  0  0
  153.4038  133.1759  191.8683 N   0  0  0  0  0  0  0  0  0  0  0  0
  154.0371  131.9160  192.2317 C   0  0  0  0  0  0  0  0  0  0  0  0
  152.0815  133.3523  191.8907 C   0  0  0  0  0  0  0  0  0  0  0  0
  151.3714  132.3602  192.2493 O   0  0  0  0  0  0  0  0  0  0  0  0
  151.5155  134.5202  191.5520 N   0  0  0  0  0  0  0  0  0  0  0  0
  152.2885  135.5640  191.1732 C   0  0  0  0  0  0  0  0  0  0  0  0
  151.7643  136.6583  190.8557 O   0  0  0  0  0  0  0  0  0  0  0  0
  153.6605  135.4538  191.1266 C   0  0  0  0  0  0  0  0  0  0  0  0
  150.0772  134.6741  191.5886 C   0  0  0  0  0  0  0  0  0  0  0  0
  149.7447  135.1911  192.9339 C   0  0  0  0  0  0  0  0  0  0  0  0
  149.4825  135.6119  193.9821 N   0  0  0  0  0  0  0  0  0  0  0  0
 26 27  1  0  0  0
 27  1  1  0  0  0
  1  2  2  0  0  0
  1  3  1  0  0  0
  3  5  1  0  0  0
  5  6  2  0  0  0
  6  7  1  0  0  0
  7  8  2  0  0  0
  8  9  1  0  0  0
  9 10  2  0  0  0
  9 11  1  0  0  0
 11 12  2  0  0  0
 12 13  1  0  0  0
 13 14  2  0  0  0
 14 15  1  0  0  0
 15 16  2  0  0  0
 14 17  1  0  0  0
 17 18  1  0  0  0
 18 19  1  0  0  0
 19 20  1  0  0  0
 20 21  1  0  0  0
 21 22  1  0  0  0
 22 23  1  0  0  0
 22 24  1  0  0  0
 22 25  1  0  0  0
 27 28  1  0  0  0
 28 29  1  0  0  0
 29 30  2  0  0  0
 30 31  1  0  0  0
 31 32  1  0  0  0
 32 33  1  0  0  0
 32 34  1  0  0  0
 34 35  2  0  0  0
 34 36  1  0  0  0
 36 40  1  0  0  0
 40 41  1  0  0  0
 41 42  3  0  0  0
 36 37  1  0  0  0
 37 38  2  0  0  0
 37 39  1  0  0  0
 10  5  1  0  0  0
 16 11  1  0  0  0
 21 17  1  0  0  0
 39 28  1  0  0  0
 39 31  2  0  0  0
  3  4  1  0  0  0
M  END
> <minimizedAffinity>
-8.46770

> <CNNscore>
0.2826943994

> <CNNaffinity>
6.8281517029

> <CNN_VS>
1.9302802086

> <CNNaffinity_variance>
0.0615022369

$$$$
[H]c1nc([H])c(N([H])C(=O)[C@@]([H])(n2c([H])nc3c2c(=O)n(C([H])([H])C#N)c(=O)n3C([H])([H])[H])C([H])([H])[H])nc1-c1c([H])nc(N2C([H])([H])C([H])([H])C([H])([H])[C@]2([H])C(F)(F)F)nc1[H]


 42 46  0  0  0  0  0  0  0  0999 V2000
  154.2587  137.7799  184.5958 C   0  0  0  0  0  0  0  0  0  0  0  0
  154.2926  137.0268  183.6304 O   0  0  0  0  0  0  0  0  0  0  0  0
  153.1947  137.9277  185.4717 N   0  0  0  0  0  0  0  0  0  0  0  0
  153.2578  138.6204  186.2981 H   0  0  0  0  0  0  0  0  0  0  0  0
  151.9662  137.2345  185.4020 C   0  0  0  0  0  0  0  0  0  0  0  0
  151.2004  137.1278  184.2773 C   0  0  0  0  0  0  0  0  0  0  0  0
  150.0152  136.4375  184.2832 N   0  0  0  0  0  0  0  0  0  0  0  0
  149.6197  135.8642  185.4257 C   0  0  0  0  0  0  0  0  0  0  0  0
  150.3478  135.9379  186.5872 C   0  0  0  0  0  0  0  0  0  0  0  0
  151.4898  136.6153  186.5411 N   0  0  0  0  0  0  0  0  0  0  0  0
  149.9463  135.3240  187.8539 C   0  0  0  0  0  0  0  0  0  0  0  0
  148.7653  134.6421  188.0151 C   0  0  0  0  0  0  0  0  0  0  0  0
  148.4510  134.0924  189.2263 N   0  0  0  0  0  0  0  0  0  0  0  0
  149.2597  134.1880  190.2938 C   0  0  0  0  0  0  0  0  0  0  0  0
  150.4157  134.8554  190.1364 N   0  0  0  0  0  0  0  0  0  0  0  0
  150.7730  135.4145  188.9684 C   0  0  0  0  0  0  0  0  0  0  0  0
  148.9115  133.6051  191.5532 N   0  0  0  0  0  0  0  0  0  0  0  0
  147.6028  133.2357  191.9834 C   0  0  0  0  0  0  0  0  0  0  0  0
  147.8386  132.0147  192.8417 C   0  0  0  0  0  0  0  0  0  0  0  0
  149.3068  132.0101  193.1722 C   0  0  0  0  0  0  0  0  0  0  0  0
  149.8460  133.2979  192.5953 C   0  0  0  0  0  0  0  0  0  0  0  0
  149.9262  134.3810  193.6687 C   0  0  0  0  0  0  0  0  0  0  0  0
  149.3852  135.5393  193.2027 F   0  0  0  0  0  0  0  0  0  0  0  0
  149.4106  133.9544  194.8628 F   0  0  0  0  0  0  0  0  0  0  0  0
  151.2835  134.6501  193.8907 F   0  0  0  0  0  0  0  0  0  0  0  0
  155.9281  138.5755  186.2971 C   0  0  0  0  0  0  0  0  0  0  0  0
  155.4770  138.6354  184.8828 C   0  0  0  0  0  0  0  0  0  0  0  0
  155.4523  139.9040  184.2475 N   0  0  0  0  0  0  0  0  0  0  0  0
  154.3505  140.6293  183.8829 C   0  0  0  0  0  0  0  0  0  0  0  0
  154.6919  141.7772  183.3082 N   0  0  0  0  0  0  0  0  0  0  0  0
  156.0235  141.8584  183.2692 C   0  0  0  0  0  0  0  0  0  0  0  0
  156.8486  142.8163  182.7907 N   0  0  0  0  0  0  0  0  0  0  0  0
  156.2642  144.0081  182.1921 C   0  0  0  0  0  0  0  0  0  0  0  0
  158.1660  142.6282  182.8870 C   0  0  0  0  0  0  0  0  0  0  0  0
  158.9166  143.5465  182.4282 O   0  0  0  0  0  0  0  0  0  0  0  0
  158.6864  141.5232  183.4413 N   0  0  0  0  0  0  0  0  0  0  0  0
  157.8709  140.5576  183.9238 C   0  0  0  0  0  0  0  0  0  0  0  0
  158.3524  139.5226  184.4431 O   0  0  0  0  0  0  0  0  0  0  0  0
  156.5010  140.6843  183.8579 C   0  0  0  0  0  0  0  0  0  0  0  0
  160.1209  141.3545  183.5282 C   0  0  0  0  0  0  0  0  0  0  0  0
  160.5423  141.9918  184.7946 C   0  0  0  0  0  0  0  0  0  0  0  0
  160.8606  142.4832  185.7956 N   0  0  0  0  0  0  0  0  0  0  0  0
 26 27  1  0  0  0
 27  1  1  0  0  0
  1  2  2  0  0  0
  1  3  1  0  0  0
  3  5  1  0  0  0
  5  6  2  0  0  0
  6  7  1  0  0  0
  7  8  2  0  0  0
  8  9  1  0  0  0
  9 10  2  0  0  0
  9 11  1  0  0  0
 11 12  2  0  0  0
 12 13  1  0  0  0
 13 14  2  0  0  0
 14 15  1  0  0  0
 15 16  2  0  0  0
 14 17  1  0  0  0
 17 18  1  0  0  0
 18 19  1  0  0  0
 19 20  1  0  0  0
 20 21  1  0  0  0
 21 22  1  0  0  0
 22 23  1  0  0  0
 22 24  1  0  0  0
 22 25  1  0  0  0
 27 28  1  0  0  0
 28 29  1  0  0  0
 29 30  2  0  0  0
 30 31  1  0  0  0
 31 32  1  0  0  0
 32 33  1  0  0  0
 32 34  1  0  0  0
 34 35  2  0  0  0
 34 36  1  0  0  0
 36 40  1  0  0  0
 40 41  1  0  0  0
 41 42  3  0  0  0
 36 37  1  0  0  0
 37 38  2  0  0  0
 37 39  1  0  0  0
 10  5  1  0  0  0
 16 11  1  0  0  0
 21 17  1  0  0  0
 39 28  1  0  0  0
 39 31  2  0  0  0
  3  4  1  0  0  0
M  END
> <minimizedAffinity>
-6.76277

> <CNNscore>
0.2496621907

> <CNNaffinity>
6.4444084167

> <CNN_VS>
1.6089251041

> <CNNaffinity_variance>
0.1553446800

$$$$
[H]c1nc([H])c(N([H])C(=O)[C@@]([H])(n2c([H])nc3c2c(=O)n(C([H])([H])C#N)c(=O)n3C([H])([H])[H])C([H])([H])[H])nc1-c1c([H])nc(N2C([H])([H])C([H])([H])C([H])([H])[C@]2([H])C(F)(F)F)nc1[H]


 42 46  0  0  0  0  0  0  0  0999 V2000
  154.9346  137.4773  188.7381 C   0  0  0  0  0  0  0  0  0  0  0  0
  156.0006  137.5568  188.1403 O   0  0  0  0  0  0  0  0  0  0  0  0
  153.6761  137.4991  188.1577 N   0  0  0  0  0  0  0  0  0  0  0  0
  152.7893  137.4227  188.7699 H   0  0  0  0  0  0  0  0  0  0  0  0
  153.4064  137.6159  186.7764 C   0  0  0  0  0  0  0  0  0  0  0  0
  152.4969  136.8569  186.0984 C   0  0  0  0  0  0  0  0  0  0  0  0
  152.2871  137.0256  184.7535 N   0  0  0  0  0  0  0  0  0  0  0  0
  152.9992  137.9589  184.1116 C   0  0  0  0  0  0  0  0  0  0  0  0
  153.9271  138.7515  184.7406 C   0  0  0  0  0  0  0  0  0  0  0  0
  154.1016  138.5579  186.0434 N   0  0  0  0  0  0  0  0  0  0  0  0
  154.7234  139.7811  184.0709 C   0  0  0  0  0  0  0  0  0  0  0  0
  154.2191  140.5979  183.0889 C   0  0  0  0  0  0  0  0  0  0  0  0
  155.0179  141.5400  182.5039 N   0  0  0  0  0  0  0  0  0  0  0  0
  156.3037  141.7115  182.8499 C   0  0  0  0  0  0  0  0  0  0  0  0
  156.7976  140.9123  183.8111 N   0  0  0  0  0  0  0  0  0  0  0  0
  156.0565  139.9708  184.4183 C   0  0  0  0  0  0  0  0  0  0  0  0
  157.1229  142.7040  182.2246 N   0  0  0  0  0  0  0  0  0  0  0  0
  156.7617  144.0587  181.9623 C   0  0  0  0  0  0  0  0  0  0  0  0
  158.0599  144.8143  182.1266 C   0  0  0  0  0  0  0  0  0  0  0  0
  159.1557  143.7841  182.0742 C   0  0  0  0  0  0  0  0  0  0  0  0
  158.4592  142.4817  181.7572 C   0  0  0  0  0  0  0  0  0  0  0  0
  158.5299  142.1791  180.2621 C   0  0  0  0  0  0  0  0  0  0  0  0
  157.2773  141.9905  179.7653 F   0  0  0  0  0  0  0  0  0  0  0  0
  159.2729  143.1106  179.5881 F   0  0  0  0  0  0  0  0  0  0  0  0
  159.1930  140.9533  180.1144 F   0  0  0  0  0  0  0  0  0  0  0  0
  155.9262  138.2581  190.9110 C   0  0  0  0  0  0  0  0  0  0  0  0
  154.9659  137.3389  190.2475 C   0  0  0  0  0  0  0  0  0  0  0  0
  154.9094  135.9964  190.7038 N   0  0  0  0  0  0  0  0  0  0  0  0
  155.9592  135.1409  190.9009 C   0  0  0  0  0  0  0  0  0  0  0  0
  155.5461  133.9554  191.3349 N   0  0  0  0  0  0  0  0  0  0  0  0
  154.2160  133.9773  191.4422 C   0  0  0  0  0  0  0  0  0  0  0  0
  153.3337  133.0320  191.8363 N   0  0  0  0  0  0  0  0  0  0  0  0
  153.8388  131.7246  192.2314 C   0  0  0  0  0  0  0  0  0  0  0  0
  152.0349  133.3376  191.8461 C   0  0  0  0  0  0  0  0  0  0  0  0
  151.2294  132.4281  192.2215 O   0  0  0  0  0  0  0  0  0  0  0  0
  151.5879  134.5474  191.4781 N   0  0  0  0  0  0  0  0  0  0  0  0
  152.4611  135.5018  191.0818 C   0  0  0  0  0  0  0  0  0  0  0  0
  152.0483  136.6347  190.7370 O   0  0  0  0  0  0  0  0  0  0  0  0
  153.8159  135.2566  191.0468 C   0  0  0  0  0  0  0  0  0  0  0  0
  150.1714  134.8422  191.5018 C   0  0  0  0  0  0  0  0  0  0  0  0
  149.8650  135.3195  192.8678 C   0  0  0  0  0  0  0  0  0  0  0  0
  149.6380  135.6852  193.9445 N   0  0  0  0  0  0  0  0  0  0  0  0
 26 27  1  0  0  0
 27  1  1  0  0  0
  1  2  2  0  0  0
  1  3  1  0  0  0
  3  5  1  0  0  0
  5  6  2  0  0  0
  6  7  1  0  0  0
  7  8  2  0  0  0
  8  9  1  0  0  0
  9 10  2  0  0  0
  9 11  1  0  0  0
 11 12  2  0  0  0
 12 13  1  0  0  0
 13 14  2  0  0  0
 14 15  1  0  0  0
 15 16  2  0  0  0
 14 17  1  0  0  0
 17 18  1  0  0  0
 18 19  1  0  0  0
 19 20  1  0  0  0
 20 21  1  0  0  0
 21 22  1  0  0  0
 22 23  1  0  0  0
 22 24  1  0  0  0
 22 25  1  0  0  0
 27 28  1  0  0  0
 28 29  1  0  0  0
 29 30  2  0  0  0
 30 31  1  0  0  0
 31 32  1  0  0  0
 32 33  1  0  0  0
 32 34  1  0  0  0
 34 35  2  0  0  0
 34 36  1  0  0  0
 36 40  1  0  0  0
 40 41  1  0  0  0
 41 42  3  0  0  0
 36 37  1  0  0  0
 37 38  2  0  0  0
 37 39  1  0  0  0
 10  5  1  0  0  0
 16 11  1  0  0  0
 21 17  1  0  0  0
 39 28  1  0  0  0
 39 31  2  0  0  0
  3  4  1  0  0  0
M  END
> <minimizedAffinity>
-8.00620

> <CNNscore>
0.2352025062

> <CNNaffinity>
6.6250391006

> <CNN_VS>
1.5582257509

> <CNNaffinity_variance>
0.0679049566

$$$$
[H]c1nc([H])c(N([H])C(=O)[C@@]([H])(n2c([H])nc3c2c(=O)n(C([H])([H])C#N)c(=O)n3C([H])([H])[H])C([H])([H])[H])nc1-c1c([H])nc(N2C([H])([H])C([H])([H])C([H])([H])[C@]2([H])C(F)(F)F)nc1[H]


 42 46  0  0  0  0  0  0  0  0999 V2000
  154.3341  137.9457  188.8809 C   0  0  0  0  0  0  0  0  0  0  0  0
  155.3949  138.2352  188.3414 O   0  0  0  0  0  0  0  0  0  0  0  0
  153.1361  137.6941  188.2307 N   0  0  0  0  0  0  0  0  0  0  0  0
  152.2488  137.4452  188.7944 H   0  0  0  0  0  0  0  0  0  0  0  0
  152.9326  137.7276  186.8336 C   0  0  0  0  0  0  0  0  0  0  0  0
  151.9041  137.1064  186.1861 C   0  0  0  0  0  0  0  0  0  0  0  0
  151.7689  137.1819  184.8233 N   0  0  0  0  0  0  0  0  0  0  0  0
  152.6749  137.8840  184.1330 C   0  0  0  0  0  0  0  0  0  0  0  0
  153.7295  138.5293  184.7295 C   0  0  0  0  0  0  0  0  0  0  0  0
  153.8262  138.4326  186.0511 N   0  0  0  0  0  0  0  0  0  0  0  0
  154.7385  139.3054  184.0067 C   0  0  0  0  0  0  0  0  0  0  0  0
  156.0642  139.3283  184.3640 C   0  0  0  0  0  0  0  0  0  0  0  0
  156.9550  140.0751  183.6452 N   0  0  0  0  0  0  0  0  0  0  0  0
  156.5897  140.8062  182.5800 C   0  0  0  0  0  0  0  0  0  0  0  0
  155.2922  140.7839  182.2299 N   0  0  0  0  0  0  0  0  0  0  0  0
  154.3757  140.0675  182.9015 C   0  0  0  0  0  0  0  0  0  0  0  0
  157.5386  141.5813  181.8411 N   0  0  0  0  0  0  0  0  0  0  0  0
  158.2045  141.1882  180.6426 C   0  0  0  0  0  0  0  0  0  0  0  0
  158.3531  142.4809  179.8743 C   0  0  0  0  0  0  0  0  0  0  0  0
  158.1237  143.5887  180.8668 C   0  0  0  0  0  0  0  0  0  0  0  0
  157.9726  142.8985  182.2019 C   0  0  0  0  0  0  0  0  0  0  0  0
  159.2930  142.9068  182.9690 C   0  0  0  0  0  0  0  0  0  0  0  0
  159.0630  142.7003  184.2941 F   0  0  0  0  0  0  0  0  0  0  0  0
  160.2106  142.0565  182.4134 F   0  0  0  0  0  0  0  0  0  0  0  0
  159.8282  144.1980  182.8661 F   0  0  0  0  0  0  0  0  0  0  0  0
  155.3786  138.6143  191.0664 C   0  0  0  0  0  0  0  0  0  0  0  0
  154.3016  137.8435  190.3932 C   0  0  0  0  0  0  0  0  0  0  0  0
  154.0176  136.5398  190.8761 N   0  0  0  0  0  0  0  0  0  0  0  0
  152.8571  136.1027  191.4552 C   0  0  0  0  0  0  0  0  0  0  0  0
  152.9340  134.8200  191.7911 N   0  0  0  0  0  0  0  0  0  0  0  0
  154.1392  134.3586  191.4508 C   0  0  0  0  0  0  0  0  0  0  0  0
  154.6991  133.1350  191.5804 N   0  0  0  0  0  0  0  0  0  0  0  0
  153.9176  132.0691  192.1915 C   0  0  0  0  0  0  0  0  0  0  0  0
  155.9466  132.9560  191.1425 C   0  0  0  0  0  0  0  0  0  0  0  0
  156.4462  131.7944  191.2780 O   0  0  0  0  0  0  0  0  0  0  0  0
  156.6517  133.9501  190.5827 N   0  0  0  0  0  0  0  0  0  0  0  0
  156.1022  135.1790  190.4474 C   0  0  0  0  0  0  0  0  0  0  0  0
  156.7572  136.1120  189.9244 O   0  0  0  0  0  0  0  0  0  0  0  0
  154.8192  135.4363  190.8771 C   0  0  0  0  0  0  0  0  0  0  0  0
  158.0027  133.7179  190.1192 C   0  0  0  0  0  0  0  0  0  0  0  0
  157.8972  133.3300  188.6959 C   0  0  0  0  0  0  0  0  0  0  0  0
  157.7977  133.0279  187.5808 N   0  0  0  0  0  0  0  0  0  0  0  0
 26 27  1  0  0  0
 27  1  1  0  0  0
  1  2  2  0  0  0
  1  3  1  0  0  0
  3  5  1  0  0  0
  5  6  2  0  0  0
  6  7  1  0  0  0
  7  8  2  0  0  0
  8  9  1  0  0  0
  9 10  2  0  0  0
  9 11  1  0  0  0
 11 12  2  0  0  0
 12 13  1  0  0  0
 13 14  2  0  0  0
 14 15  1  0  0  0
 15 16  2  0  0  0
 14 17  1  0  0  0
 17 18  1  0  0  0
 18 19  1  0  0  0
 19 20  1  0  0  0
 20 21  1  0  0  0
 21 22  1  0  0  0
 22 23  1  0  0  0
 22 24  1  0  0  0
 22 25  1  0  0  0
 27 28  1  0  0  0
 28 29  1  0  0  0
 29 30  2  0  0  0
 30 31  1  0  0  0
 31 32  1  0  0  0
 32 33  1  0  0  0
 32 34  1  0  0  0
 34 35  2  0  0  0
 34 36  1  0  0  0
 36 40  1  0  0  0
 40 41  1  0  0  0
 41 42  3  0  0  0
 36 37  1  0  0  0
 37 38  2  0  0  0
 37 39  1  0  0  0
 10  5  1  0  0  0
 16 11  1  0  0  0
 21 17  1  0  0  0
 39 28  1  0  0  0
 39 31  2  0  0  0
  3  4  1  0  0  0
M  END
> <minimizedAffinity>
-8.14211

> <CNNscore>
0.2070859224

> <CNNaffinity>
6.6692419052

> <CNN_VS>
1.3811061382

> <CNNaffinity_variance>
0.1687680781

$$$$
[H]c1nc([H])c(N([H])C(=O)[C@@]([H])(n2c([H])nc3c2c(=O)n(C([H])([H])C#N)c(=O)n3C([H])([H])[H])C([H])([H])[H])nc1-c1c([H])nc(N2C([H])([H])C([H])([H])C([H])([H])[C@]2([H])C(F)(F)F)nc1[H]


 42 46  0  0  0  0  0  0  0  0999 V2000
  155.3957  137.4833  189.2838 C   0  0  0  0  0  0  0  0  0  0  0  0
  156.2034  138.2655  188.7982 O   0  0  0  0  0  0  0  0  0  0  0  0
  154.4535  136.7498  188.5798 N   0  0  0  0  0  0  0  0  0  0  0  0
  153.7806  136.0822  189.0977 H   0  0  0  0  0  0  0  0  0  0  0  0
  154.2632  136.7780  187.1806 C   0  0  0  0  0  0  0  0  0  0  0  0
  153.5834  135.8294  186.4728 C   0  0  0  0  0  0  0  0  0  0  0  0
  153.4380  135.9216  185.1121 N   0  0  0  0  0  0  0  0  0  0  0  0
  153.9815  136.9710  184.4848 C   0  0  0  0  0  0  0  0  0  0  0  0
  154.6757  137.9552  185.1438 C   0  0  0  0  0  0  0  0  0  0  0  0
  154.7949  137.8303  186.4611 N   0  0  0  0  0  0  0  0  0  0  0  0
  155.2831  139.1160  184.4908 C   0  0  0  0  0  0  0  0  0  0  0  0
  156.5138  139.6142  184.8412 C   0  0  0  0  0  0  0  0  0  0  0  0
  157.0234  140.7025  184.1902 N   0  0  0  0  0  0  0  0  0  0  0  0
  156.3643  141.3249  183.1998 C   0  0  0  0  0  0  0  0  0  0  0  0
  155.1597  140.8374  182.8564 N   0  0  0  0  0  0  0  0  0  0  0  0
  154.6128  139.7712  183.4635 C   0  0  0  0  0  0  0  0  0  0  0  0
  156.9159  142.4632  182.5311 N   0  0  0  0  0  0  0  0  0  0  0  0
  156.2247  143.6633  182.1904 C   0  0  0  0  0  0  0  0  0  0  0  0
  157.2794  144.7364  182.3289 C   0  0  0  0  0  0  0  0  0  0  0  0
  158.6048  144.0237  182.3467 C   0  0  0  0  0  0  0  0  0  0  0  0
  158.2760  142.5712  182.0930 C   0  0  0  0  0  0  0  0  0  0  0  0
  158.4614  142.2231  180.6178 C   0  0  0  0  0  0  0  0  0  0  0  0
  158.2438  140.8943  180.4220 F   0  0  0  0  0  0  0  0  0  0  0  0
  157.7277  143.0439  179.8043 F   0  0  0  0  0  0  0  0  0  0  0  0
  159.8087  142.4448  180.3019 F   0  0  0  0  0  0  0  0  0  0  0  0
  156.6417  136.6185  191.2873 C   0  0  0  0  0  0  0  0  0  0  0  0
  155.4083  137.2777  190.7858 C   0  0  0  0  0  0  0  0  0  0  0  0
  154.1644  136.8510  191.3189 N   0  0  0  0  0  0  0  0  0  0  0  0
  153.2086  137.6247  191.9196 C   0  0  0  0  0  0  0  0  0  0  0  0
  152.1649  136.8982  192.3033 N   0  0  0  0  0  0  0  0  0  0  0  0
  152.3851  135.6235  191.9747 C   0  0  0  0  0  0  0  0  0  0  0  0
  151.6356  134.5119  192.1476 N   0  0  0  0  0  0  0  0  0  0  0  0
  150.3407  134.6357  192.8021 C   0  0  0  0  0  0  0  0  0  0  0  0
  152.1154  133.3461  191.7106 C   0  0  0  0  0  0  0  0  0  0  0  0
  151.3878  132.3182  191.8873 O   0  0  0  0  0  0  0  0  0  0  0  0
  153.3110  133.2511  191.1103 N   0  0  0  0  0  0  0  0  0  0  0  0
  154.0702  134.3565  190.9315 C   0  0  0  0  0  0  0  0  0  0  0  0
  155.1889  134.2731  190.3706 O   0  0  0  0  0  0  0  0  0  0  0  0
  153.6385  135.5931  191.3574 C   0  0  0  0  0  0  0  0  0  0  0  0
  153.7983  131.9689  190.6493 C   0  0  0  0  0  0  0  0  0  0  0  0
  154.5658  131.3841  191.7704 C   0  0  0  0  0  0  0  0  0  0  0  0
  155.1799  130.9365  192.6462 N   0  0  0  0  0  0  0  0  0  0  0  0
 26 27  1  0  0  0
 27  1  1  0  0  0
  1  2  2  0  0  0
  1  3  1  0  0  0
  3  5  1  0  0  0
  5  6  2  0  0  0
  6  7  1  0  0  0
  7  8  2  0  0  0
  8  9  1  0  0  0
  9 10  2  0  0  0
  9 11  1  0  0  0
 11 12  2  0  0  0
 12 13  1  0  0  0
 13 14  2  0  0  0
 14 15  1  0  0  0
 15 16  2  0  0  0
 14 17  1  0  0  0
 17 18  1  0  0  0
 18 19  1  0  0  0
 19 20  1  0  0  0
 20 21  1  0  0  0
 21 22  1  0  0  0
 22 23  1  0  0  0
 22 24  1  0  0  0
 22 25  1  0  0  0
 27 28  1  0  0  0
 28 29  1  0  0  0
 29 30  2  0  0  0
 30 31  1  0  0  0
 31 32  1  0  0  0
 32 33  1  0  0  0
 32 34  1  0  0  0
 34 35  2  0  0  0
 34 36  1  0  0  0
 36 40  1  0  0  0
 40 41  1  0  0  0
 41 42  3  0  0  0
 36 37  1  0  0  0
 37 38  2  0  0  0
 37 39  1  0  0  0
 10  5  1  0  0  0
 16 11  1  0  0  0
 21 17  1  0  0  0
 39 28  1  0  0  0
 39 31  2  0  0  0
  3  4  1  0  0  0
M  END
> <minimizedAffinity>
-7.32128

> <CNNscore>
0.1952461749

> <CNNaffinity>
6.5671935081

> <CNN_VS>
1.2822194099

> <CNNaffinity_variance>
0.0910882950

$$$$
[H]c1nc([H])c(N([H])C(=O)[C@@]([H])(n2c([H])nc3c2c(=O)n(C([H])([H])C#N)c(=O)n3C([H])([H])[H])C([H])([H])[H])nc1-c1c([H])nc(N2C([H])([H])C([H])([H])C([H])([H])[C@]2([H])C(F)(F)F)nc1[H]


 42 46  0  0  0  0  0  0  0  0999 V2000
  154.0865  138.7849  184.5361 C   0  0  0  0  0  0  0  0  0  0  0  0
  153.4868  138.8395  185.6026 O   0  0  0  0  0  0  0  0  0  0  0  0
  153.5800  138.2875  183.3456 N   0  0  0  0  0  0  0  0  0  0  0  0
  154.1874  138.2807  182.4524 H   0  0  0  0  0  0  0  0  0  0  0  0
  152.2841  137.7584  183.1573 C   0  0  0  0  0  0  0  0  0  0  0  0
  151.6052  137.7764  181.9734 C   0  0  0  0  0  0  0  0  0  0  0  0
  150.3464  137.2429  181.8640 N   0  0  0  0  0  0  0  0  0  0  0  0
  149.7905  136.6983  182.9524 C   0  0  0  0  0  0  0  0  0  0  0  0
  150.4249  136.6516  184.1689 C   0  0  0  0  0  0  0  0  0  0  0  0
  151.6427  137.1787  184.2346 N   0  0  0  0  0  0  0  0  0  0  0  0
  149.8478  136.0645  185.3793 C   0  0  0  0  0  0  0  0  0  0  0  0
  148.4977  135.8856  185.5551 C   0  0  0  0  0  0  0  0  0  0  0  0
  148.0246  135.3308  186.7111 N   0  0  0  0  0  0  0  0  0  0  0  0
  148.8343  134.9420  187.7090 C   0  0  0  0  0  0  0  0  0  0  0  0
  150.1558  135.1169  187.5372 N   0  0  0  0  0  0  0  0  0  0  0  0
  150.6733  135.6569  186.4215 C   0  0  0  0  0  0  0  0  0  0  0  0
  148.3182  134.3632  188.9114 N   0  0  0  0  0  0  0  0  0  0  0  0
  146.9529  134.3411  189.3234 C   0  0  0  0  0  0  0  0  0  0  0  0
  146.8207  133.0265  190.0565 C   0  0  0  0  0  0  0  0  0  0  0  0
  148.2225  132.5731  190.3632 C   0  0  0  0  0  0  0  0  0  0  0  0
  149.1130  133.7041  189.9051 C   0  0  0  0  0  0  0  0  0  0  0  0
  149.4835  134.6109  191.0765 C   0  0  0  0  0  0  0  0  0  0  0  0
  150.7587  134.3564  191.4773 F   0  0  0  0  0  0  0  0  0  0  0  0
  149.2271  135.9274  190.8029 F   0  0  0  0  0  0  0  0  0  0  0  0
  148.6615  134.2575  192.1552 F   0  0  0  0  0  0  0  0  0  0  0  0
  156.3087  138.9749  185.6939 C   0  0  0  0  0  0  0  0  0  0  0  0
  155.5101  139.3039  184.4850 C   0  0  0  0  0  0  0  0  0  0  0  0
  155.6269  140.6125  183.9487 N   0  0  0  0  0  0  0  0  0  0  0  0
  154.6195  141.5109  183.7228 C   0  0  0  0  0  0  0  0  0  0  0  0
  155.0844  142.6446  183.2103 N   0  0  0  0  0  0  0  0  0  0  0  0
  156.4085  142.5442  183.0768 C   0  0  0  0  0  0  0  0  0  0  0  0
  157.3301  143.4157  182.6092 N   0  0  0  0  0  0  0  0  0  0  0  0
  156.8856  144.7227  182.1460 C   0  0  0  0  0  0  0  0  0  0  0  0
  158.6103  143.0402  182.5916 C   0  0  0  0  0  0  0  0  0  0  0  0
  159.4538  143.8813  182.1463 O   0  0  0  0  0  0  0  0  0  0  0  0
  159.0013  141.8315  183.0219 N   0  0  0  0  0  0  0  0  0  0  0  0
  158.0883  140.9508  183.4921 C   0  0  0  0  0  0  0  0  0  0  0  0
  158.4487  139.8194  183.8959 O   0  0  0  0  0  0  0  0  0  0  0  0
  156.7495  141.2704  183.5396 C   0  0  0  0  0  0  0  0  0  0  0  0
  160.3993  141.4597  182.9875 C   0  0  0  0  0  0  0  0  0  0  0  0
  160.9925  141.9403  184.2543 C   0  0  0  0  0  0  0  0  0  0  0  0
  161.4423  142.3217  185.2527 N   0  0  0  0  0  0  0  0  0  0  0  0
 26 27  1  0  0  0
 27  1  1  0  0  0
  1  2  2  0  0  0
  1  3  1  0  0  0
  3  5  1  0  0  0
  5  6  2  0  0  0
  6  7  1  0  0  0
  7  8  2  0  0  0
  8  9  1  0  0  0
  9 10  2  0  0  0
  9 11  1  0  0  0
 11 12  2  0  0  0
 12 13  1  0  0  0
 13 14  2  0  0  0
 14 15  1  0  0  0
 15 16  2  0  0  0
 14 17  1  0  0  0
 17 18  1  0  0  0
 18 19  1  0  0  0
 19 20  1  0  0  0
 20 21  1  0  0  0
 21 22  1  0  0  0
 22 23  1  0  0  0
 22 24  1  0  0  0
 22 25  1  0  0  0
 27 28  1  0  0  0
 28 29  1  0  0  0
 29 30  2  0  0  0
 30 31  1  0  0  0
 31 32  1  0  0  0
 32 33  1  0  0  0
 32 34  1  0  0  0
 34 35  2  0  0  0
 34 36  1  0  0  0
 36 40  1  0  0  0
 40 41  1  0  0  0
 41 42  3  0  0  0
 36 37  1  0  0  0
 37 38  2  0  0  0
 37 39  1  0  0  0
 10  5  1  0  0  0
 16 11  1  0  0  0
 21 17  1  0  0  0
 39 28  1  0  0  0
 39 31  2  0  0  0
  3  4  1  0  0  0
M  END
> <minimizedAffinity>
-6.45833

> <CNNscore>
0.1860699058

> <CNNaffinity>
6.5884156227

> <CNN_VS>
1.2259058952

> <CNNaffinity_variance>
0.1471236497

$$$$
[H]c1nc([H])c(N([H])C(=O)[C@@]([H])(n2c([H])nc3c2c(=O)n(C([H])([H])C#N)c(=O)n3C([H])([H])[H])C([H])([H])[H])nc1-c1c([H])nc(N2C([H])([H])C([H])([H])C([H])([H])[C@]2([H])C(F)(F)F)nc1[H]


 42 46  0  0  0  0  0  0  0  0999 V2000
  152.9453  135.1846  184.0602 C   0  0  0  0  0  0  0  0  0  0  0  0
  153.9609  134.8857  183.4442 O   0  0  0  0  0  0  0  0  0  0  0  0
  152.8790  136.0431  185.1464 N   0  0  0  0  0  0  0  0  0  0  0  0
  151.9331  136.2465  185.6267 H   0  0  0  0  0  0  0  0  0  0  0  0
  153.9717  136.7218  185.7296 C   0  0  0  0  0  0  0  0  0  0  0  0
  154.5547  136.3757  186.9141 C   0  0  0  0  0  0  0  0  0  0  0  0
  155.6151  137.0825  187.4214 N   0  0  0  0  0  0  0  0  0  0  0  0
  156.0720  138.1296  186.7250 C   0  0  0  0  0  0  0  0  0  0  0  0
  155.5260  138.5242  185.5288 C   0  0  0  0  0  0  0  0  0  0  0  0
  154.5005  137.8144  185.0706 N   0  0  0  0  0  0  0  0  0  0  0  0
  155.9993  139.6633  184.7407 C   0  0  0  0  0  0  0  0  0  0  0  0
  155.1953  140.3595  183.8720 C   0  0  0  0  0  0  0  0  0  0  0  0
  155.7012  141.4145  183.1658 N   0  0  0  0  0  0  0  0  0  0  0  0
  156.9775  141.8149  183.2817 C   0  0  0  0  0  0  0  0  0  0  0  0
  157.7648  141.1338  184.1320 N   0  0  0  0  0  0  0  0  0  0  0  0
  157.3184  140.0899  184.8498 C   0  0  0  0  0  0  0  0  0  0  0  0
  157.4873  142.9224  182.5328 N   0  0  0  0  0  0  0  0  0  0  0  0
  156.8064  144.1452  182.2583 C   0  0  0  0  0  0  0  0  0  0  0  0
  157.9105  145.1768  182.2511 C   0  0  0  0  0  0  0  0  0  0  0  0
  159.1999  144.4118  182.1207 C   0  0  0  0  0  0  0  0  0  0  0  0
  158.7875  142.9709  181.9323 C   0  0  0  0  0  0  0  0  0  0  0  0
  158.7795  142.5985  180.4514 C   0  0  0  0  0  0  0  0  0  0  0  0
  159.0898  141.2823  180.3005 F   0  0  0  0  0  0  0  0  0  0  0  0
  157.6184  142.9816  179.8358 F   0  0  0  0  0  0  0  0  0  0  0  0
  159.8156  143.3131  179.8349 F   0  0  0  0  0  0  0  0  0  0  0  0
  151.7482  133.7166  182.4090 C   0  0  0  0  0  0  0  0  0  0  0  0
  151.6295  134.5782  183.6136 C   0  0  0  0  0  0  0  0  0  0  0  0
  150.5302  135.4726  183.6837 N   0  0  0  0  0  0  0  0  0  0  0  0
  149.4882  135.4406  184.5704 C   0  0  0  0  0  0  0  0  0  0  0  0
  148.6315  136.4316  184.3505 N   0  0  0  0  0  0  0  0  0  0  0  0
  149.0679  137.1549  183.3173 C   0  0  0  0  0  0  0  0  0  0  0  0
  148.5585  138.2519  182.7135 N   0  0  0  0  0  0  0  0  0  0  0  0
  147.3116  138.8117  183.2156 C   0  0  0  0  0  0  0  0  0  0  0  0
  149.2213  138.7758  181.6807 C   0  0  0  0  0  0  0  0  0  0  0  0
  148.7176  139.8073  181.1334 O   0  0  0  0  0  0  0  0  0  0  0  0
  150.3686  138.2461  181.2315 N   0  0  0  0  0  0  0  0  0  0  0  0
  150.8883  137.1484  181.8276 C   0  0  0  0  0  0  0  0  0  0  0  0
  151.9610  136.6492  181.4115 O   0  0  0  0  0  0  0  0  0  0  0  0
  150.2582  136.5544  182.8986 C   0  0  0  0  0  0  0  0  0  0  0  0
  151.0594  138.8423  180.1084 C   0  0  0  0  0  0  0  0  0  0  0  0
  152.1316  139.6881  180.6764 C   0  0  0  0  0  0  0  0  0  0  0  0
  152.9641  140.3514  181.1364 N   0  0  0  0  0  0  0  0  0  0  0  0
 26 27  1  0  0  0
 27  1  1  0  0  0
  1  2  2  0  0  0
  1  3  1  0  0  0
  3  5  1  0  0  0
  5  6  2  0  0  0
  6  7  1  0  0  0
  7  8  2  0  0  0
  8  9  1  0  0  0
  9 10  2  0  0  0
  9 11  1  0  0  0
 11 12  2  0  0  0
 12 13  1  0  0  0
 13 14  2  0  0  0
 14 15  1  0  0  0
 15 16  2  0  0  0
 14 17  1  0  0  0
 17 18  1  0  0  0
 18 19  1  0  0  0
 19 20  1  0  0  0
 20 21  1  0  0  0
 21 22  1  0  0  0
 22 23  1  0  0  0
 22 24  1  0  0  0
 22 25  1  0  0  0
 27 28  1  0  0  0
 28 29  1  0  0  0
 29 30  2  0  0  0
 30 31  1  0  0  0
 31 32  1  0  0  0
 32 33  1  0  0  0
 32 34  1  0  0  0
 34 35  2  0  0  0
 34 36  1  0  0  0
 36 40  1  0  0  0
 40 41  1  0  0  0
 41 42  3  0  0  0
 36 37  1  0  0  0
 37 38  2  0  0  0
 37 39  1  0  0  0
 10  5  1  0  0  0
 16 11  1  0  0  0
 21 17  1  0  0  0
 39 28  1  0  0  0
 39 31  2  0  0  0
  3  4  1  0  0  0
M  END
> <minimizedAffinity>
-7.54457

> <CNNscore>
0.1774697155

> <CNNaffinity>
6.7921838760

> <CNN_VS>
1.2054069042

> <CNNaffinity_variance>
0.4262419343

$$$$
[H]c1nc([H])c(N([H])C(=O)[C@@]([H])(n2c([H])nc3c2c(=O)n(C([H])([H])C#N)c(=O)n3C([H])([H])[H])C([H])([H])[H])nc1-c1c([H])nc(N2C([H])([H])C([H])([H])C([H])([H])[C@]2([H])C(F)(F)F)nc1[H]


 42 46  0  0  0  0  0  0  0  0999 V2000
  150.9188  136.4373  186.1982 C   0  0  0  0  0  0  0  0  0  0  0  0
  150.2415  137.4251  186.4543 O   0  0  0  0  0  0  0  0  0  0  0  0
  151.7675  136.2957  185.1114 N   0  0  0  0  0  0  0  0  0  0  0  0
  152.3264  135.3825  184.9684 H   0  0  0  0  0  0  0  0  0  0  0  0
  151.9977  137.2669  184.1123 C   0  0  0  0  0  0  0  0  0  0  0  0
  151.1561  137.5169  183.0674 C   0  0  0  0  0  0  0  0  0  0  0  0
  151.4449  138.4776  182.1319 N   0  0  0  0  0  0  0  0  0  0  0  0
  152.5804  139.1726  182.2649 C   0  0  0  0  0  0  0  0  0  0  0  0
  153.4646  138.9652  183.2944 C   0  0  0  0  0  0  0  0  0  0  0  0
  153.1496  138.0263  184.1800 N   0  0  0  0  0  0  0  0  0  0  0  0
  154.7148  139.7058  183.4711 C   0  0  0  0  0  0  0  0  0  0  0  0
  155.0859  140.7532  182.6643 C   0  0  0  0  0  0  0  0  0  0  0  0
  156.2682  141.4025  182.8843 N   0  0  0  0  0  0  0  0  0  0  0  0
  157.1067  141.0589  183.8750 C   0  0  0  0  0  0  0  0  0  0  0  0
  156.7438  140.0337  184.6650 N   0  0  0  0  0  0  0  0  0  0  0  0
  155.5935  139.3618  184.4926 C   0  0  0  0  0  0  0  0  0  0  0  0
  158.3401  141.7519  184.0881 N   0  0  0  0  0  0  0  0  0  0  0  0
  158.9002  142.1175  185.3479 C   0  0  0  0  0  0  0  0  0  0  0  0
  160.3903  142.0024  185.1249 C   0  0  0  0  0  0  0  0  0  0  0  0
  160.5912  141.9704  183.6338 C   0  0  0  0  0  0  0  0  0  0  0  0
  159.2180  142.1931  183.0449 C   0  0  0  0  0  0  0  0  0  0  0  0
  159.0191  143.6607  182.6730 C   0  0  0  0  0  0  0  0  0  0  0  0
  157.7128  144.0079  182.8297 F   0  0  0  0  0  0  0  0  0  0  0  0
  159.9046  144.4762  183.3247 F   0  0  0  0  0  0  0  0  0  0  0  0
  159.2908  143.7857  181.3039 F   0  0  0  0  0  0  0  0  0  0  0  0
  149.7473  134.3017  186.8156 C   0  0  0  0  0  0  0  0  0  0  0  0
  150.8435  135.2509  187.1391 C   0  0  0  0  0  0  0  0  0  0  0  0
  151.0523  135.5834  188.5027 N   0  0  0  0  0  0  0  0  0  0  0  0
  150.1626  135.4556  189.5348 C   0  0  0  0  0  0  0  0  0  0  0  0
  150.6889  135.8631  190.6842 N   0  0  0  0  0  0  0  0  0  0  0  0
  151.9390  136.2742  190.4621 C   0  0  0  0  0  0  0  0  0  0  0  0
  152.8795  136.7718  191.2960 N   0  0  0  0  0  0  0  0  0  0  0  0
  152.5548  136.9212  192.7076 C   0  0  0  0  0  0  0  0  0  0  0  0
  154.0674  137.1061  190.7888 C   0  0  0  0  0  0  0  0  0  0  0  0
  154.9315  137.5714  191.5976 O   0  0  0  0  0  0  0  0  0  0  0  0
  154.3485  136.9621  189.4853 N   0  0  0  0  0  0  0  0  0  0  0  0
  153.4156  136.4651  188.6410 C   0  0  0  0  0  0  0  0  0  0  0  0
  153.6734  136.3282  187.4212 O   0  0  0  0  0  0  0  0  0  0  0  0
  152.1677  136.0991  189.0947 C   0  0  0  0  0  0  0  0  0  0  0  0
  155.6487  137.3357  188.9716 C   0  0  0  0  0  0  0  0  0  0  0  0
  156.5216  136.1535  189.1394 C   0  0  0  0  0  0  0  0  0  0  0  0
  157.2131  135.2299  189.2560 N   0  0  0  0  0  0  0  0  0  0  0  0
 26 27  1  0  0  0
 27  1  1  0  0  0
  1  2  2  0  0  0
  1  3  1  0  0  0
  3  5  1  0  0  0
  5  6  2  0  0  0
  6  7  1  0  0  0
  7  8  2  0  0  0
  8  9  1  0  0  0
  9 10  2  0  0  0
  9 11  1  0  0  0
 11 12  2  0  0  0
 12 13  1  0  0  0
 13 14  2  0  0  0
 14 15  1  0  0  0
 15 16  2  0  0  0
 14 17  1  0  0  0
 17 18  1  0  0  0
 18 19  1  0  0  0
 19 20  1  0  0  0
 20 21  1  0  0  0
 21 22  1  0  0  0
 22 23  1  0  0  0
 22 24  1  0  0  0
 22 25  1  0  0  0
 27 28  1  0  0  0
 28 29  1  0  0  0
 29 30  2  0  0  0
 30 31  1  0  0  0
 31 32  1  0  0  0
 32 33  1  0  0  0
 32 34  1  0  0  0
 34 35  2  0  0  0
 34 36  1  0  0  0
 36 40  1  0  0  0
 40 41  1  0  0  0
 41 42  3  0  0  0
 36 37  1  0  0  0
 37 38  2  0  0  0
 37 39  1  0  0  0
 10  5  1  0  0  0
 16 11  1  0  0  0
 21 17  1  0  0  0
 39 28  1  0  0  0
 39 31  2  0  0  0
  3  4  1  0  0  0
M  END
> <minimizedAffinity>
-7.72017

> <CNNscore>
0.1608258933

> <CNNaffinity>
6.6791315079

> <CNN_VS>
1.0741772652

> <CNNaffinity_variance>
0.2435950041

$$$$
[H]c1nc([H])c(N([H])C(=O)[C@@]([H])(n2c([H])nc3c2c(=O)n(C([H])([H])c2noc(C([H])([H])[H])c2[H])c(=O)n3C([H])([H])[H])C([H])([H])[H])nc1-c1c([H])nc(C(F)(F)F)nc1[H]


 41 45  0  0  0  0  0  0  0  0999 V2000
  150.6116  136.0607  187.2712 C   0  0  0  0  0  0  0  0  0  0  0  0
  150.6434  135.5458  185.8418 C   0  0  0  0  0  0  0  0  0  0  0  0
  149.7924  136.4095  185.0115 N   0  0  0  0  0  0  0  0  0  0  0  0
  148.4828  136.6838  185.2504 C   0  0  0  0  0  0  0  0  0  0  0  0
  148.0033  137.5262  184.3574 N   0  0  0  0  0  0  0  0  0  0  0  0
  149.0004  137.8196  183.5133 C   0  0  0  0  0  0  0  0  0  0  0  0
  149.0126  138.6437  182.4656 N   0  0  0  0  0  0  0  0  0  0  0  0
  147.7961  139.3406  182.0564 C   0  0  0  0  0  0  0  0  0  0  0  0
  150.1689  138.8039  181.7786 C   0  0  0  0  0  0  0  0  0  0  0  0
  150.1367  139.5912  180.7977 O   0  0  0  0  0  0  0  0  0  0  0  0
  151.2723  138.1436  182.1442 N   0  0  0  0  0  0  0  0  0  0  0  0
  151.2657  137.3027  183.1979 C   0  0  0  0  0  0  0  0  0  0  0  0
  152.3233  136.6828  183.4947 O   0  0  0  0  0  0  0  0  0  0  0  0
  150.1253  137.1214  183.9182 C   0  0  0  0  0  0  0  0  0  0  0  0
  152.5055  138.4226  181.4454 C   0  0  0  0  0  0  0  0  0  0  0  0
  153.1468  139.6027  182.1489 C   0  0  0  0  0  0  0  0  0  0  0  0
  153.1174  140.9131  181.7778 C   0  0  0  0  0  0  0  0  0  0  0  0
  153.8271  141.6437  182.7344 C   0  0  0  0  0  0  0  0  0  0  0  0
  154.0543  143.1094  182.7388 C   0  0  0  0  0  0  0  0  0  0  0  0
  154.2484  140.7450  183.6226 O   0  0  0  0  0  0  0  0  0  0  0  0
  153.8624  139.5566  183.3009 N   0  0  0  0  0  0  0  0  0  0  0  0
  150.2779  134.1270  185.7150 C   0  0  0  0  0  0  0  0  0  0  0  0
  149.0471  133.8248  185.8815 O   0  0  0  0  0  0  0  0  0  0  0  0
  151.1576  133.0781  185.4472 N   0  0  0  0  0  0  0  0  0  0  0  0
  150.7501  132.0531  185.4360 H   0  0  0  0  0  0  0  0  0  0  0  0
  152.4671  133.0758  184.9145 C   0  0  0  0  0  0  0  0  0  0  0  0
  152.6595  133.2646  183.5686 C   0  0  0  0  0  0  0  0  0  0  0  0
  153.8822  133.4592  183.0367 N   0  0  0  0  0  0  0  0  0  0  0  0
  154.9840  133.4788  183.8368 C   0  0  0  0  0  0  0  0  0  0  0  0
  154.7974  133.2922  185.2183 C   0  0  0  0  0  0  0  0  0  0  0  0
  153.5931  133.0992  185.6984 N   0  0  0  0  0  0  0  0  0  0  0  0
  155.9754  133.5452  186.0515 C   0  0  0  0  0  0  0  0  0  0  0  0
  156.0467  134.4746  187.0457 C   0  0  0  0  0  0  0  0  0  0  0  0
  157.1064  134.5051  187.9044 N   0  0  0  0  0  0  0  0  0  0  0  0
  158.1312  133.6273  187.8201 C   0  0  0  0  0  0  0  0  0  0  0  0
  158.0890  132.7106  186.8511 N   0  0  0  0  0  0  0  0  0  0  0  0
  157.0611  132.6409  185.9750 C   0  0  0  0  0  0  0  0  0  0  0  0
  159.2522  133.6862  188.8302 C   0  0  0  0  0  0  0  0  0  0  0  0
  160.0838  134.7371  188.5168 F   0  0  0  0  0  0  0  0  0  0  0  0
  159.9725  132.5240  188.8805 F   0  0  0  0  0  0  0  0  0  0  0  0
  158.6898  134.0060  190.0546 F   0  0  0  0  0  0  0  0  0  0  0  0
  1  2  1  0  0  0
  2 22  1  0  0  0
 22 23  2  0  0  0
 22 24  1  0  0  0
 24 26  1  0  0  0
 26 27  2  0  0  0
 27 28  1  0  0  0
 28 29  2  0  0  0
 29 30  1  0  0  0
 30 31  2  0  0  0
 30 32  1  0  0  0
 32 33  2  0  0  0
 33 34  1  0  0  0
 34 35  2  0  0  0
 35 36  1  0  0  0
 36 37  2  0  0  0
 35 38  1  0  0  0
 38 39  1  0  0  0
 38 40  1  0  0  0
 38 41  1  0  0  0
  2  3  1  0  0  0
  3  4  1  0  0  0
  4  5  2  0  0  0
  5  6  1  0  0  0
  6  7  1  0  0  0
  7  8  1  0  0  0
  7  9  1  0  0  0
  9 10  2  0  0  0
  9 11  1  0  0  0
 11 15  1  0  0  0
 15 16  1  0  0  0
 16 17  1  0  0  0
 17 18  2  0  0  0
 18 19  1  0  0  0
 18 20  1  0  0  0
 20 21  1  0  0  0
 11 12  1  0  0  0
 12 13  2  0  0  0
 12 14  1  0  0  0
 31 26  1  0  0  0
 37 32  1  0  0  0
 14  3  1  0  0  0
 14  6  2  0  0  0
 21 16  2  0  0  0
 24 25  1  0  0  0
M  END
> <minimizedAffinity>
-6.19517

> <CNNscore>
0.4351081252

> <CNNaffinity>
6.3351917267

> <CNN_VS>
2.7564933300

> <CNNaffinity_variance>
0.0858344287

$$$$
[H]c1nc([H])c(N([H])C(=O)[C@@]([H])(n2c([H])nc3c2c(=O)n(C([H])([H])c2noc(C([H])([H])[H])c2[H])c(=O)n3C([H])([H])[H])C([H])([H])[H])nc1-c1c([H])nc(C(F)(F)F)nc1[H]


 41 45  0  0  0  0  0  0  0  0999 V2000
  154.8009  138.6172  189.5726 C   0  0  0  0  0  0  0  0  0  0  0  0
  153.9692  137.6465  188.7509 C   0  0  0  0  0  0  0  0  0  0  0  0
  153.0220  136.9651  189.6444 N   0  0  0  0  0  0  0  0  0  0  0  0
  153.1017  136.9408  191.0010 C   0  0  0  0  0  0  0  0  0  0  0  0
  152.0827  136.2899  191.5252 N   0  0  0  0  0  0  0  0  0  0  0  0
  151.3130  135.8750  190.5112 C   0  0  0  0  0  0  0  0  0  0  0  0
  150.1624  135.2024  190.5371 N   0  0  0  0  0  0  0  0  0  0  0  0
  149.5940  134.7547  191.8058 C   0  0  0  0  0  0  0  0  0  0  0  0
  149.5450  134.9260  189.3637 C   0  0  0  0  0  0  0  0  0  0  0  0
  148.4613  134.2905  189.4335 O   0  0  0  0  0  0  0  0  0  0  0  0
  150.0840  135.3177  188.2047 N   0  0  0  0  0  0  0  0  0  0  0  0
  151.2511  135.9916  188.1701 C   0  0  0  0  0  0  0  0  0  0  0  0
  151.7354  136.3226  187.0535 O   0  0  0  0  0  0  0  0  0  0  0  0
  151.8976  136.2951  189.3285 C   0  0  0  0  0  0  0  0  0  0  0  0
  149.3405  135.0899  186.9873 C   0  0  0  0  0  0  0  0  0  0  0  0
  148.5875  136.3721  186.6910 C   0  0  0  0  0  0  0  0  0  0  0  0
  148.5447  137.0637  185.5181 C   0  0  0  0  0  0  0  0  0  0  0  0
  147.7124  138.1703  185.7052 C   0  0  0  0  0  0  0  0  0  0  0  0
  147.3724  139.2025  184.6957 C   0  0  0  0  0  0  0  0  0  0  0  0
  147.3031  138.0934  186.9703 O   0  0  0  0  0  0  0  0  0  0  0  0
  147.7987  137.0567  187.5573 N   0  0  0  0  0  0  0  0  0  0  0  0
  154.7714  136.6936  187.9691 C   0  0  0  0  0  0  0  0  0  0  0  0
  154.8443  135.4951  188.4077 O   0  0  0  0  0  0  0  0  0  0  0  0
  155.4756  136.9851  186.8009 N   0  0  0  0  0  0  0  0  0  0  0  0
  156.0826  136.1817  186.3504 H   0  0  0  0  0  0  0  0  0  0  0  0
  155.3683  138.0655  185.8955 C   0  0  0  0  0  0  0  0  0  0  0  0
  156.4013  138.9610  185.7719 C   0  0  0  0  0  0  0  0  0  0  0  0
  156.4337  139.8925  184.7989 N   0  0  0  0  0  0  0  0  0  0  0  0
  155.4237  139.9705  183.8889 C   0  0  0  0  0  0  0  0  0  0  0  0
  154.3631  139.0537  184.0028 C   0  0  0  0  0  0  0  0  0  0  0  0
  154.3630  138.1657  184.9668 N   0  0  0  0  0  0  0  0  0  0  0  0
  153.4259  139.0338  182.8772 C   0  0  0  0  0  0  0  0  0  0  0  0
  152.5175  138.0481  182.6315 C   0  0  0  0  0  0  0  0  0  0  0  0
  151.5487  138.2054  181.6839 N   0  0  0  0  0  0  0  0  0  0  0  0
  151.4353  139.3324  180.9456 C   0  0  0  0  0  0  0  0  0  0  0  0
  152.3165  140.3110  181.1621 N   0  0  0  0  0  0  0  0  0  0  0  0
  153.2954  140.2017  182.0888 C   0  0  0  0  0  0  0  0  0  0  0  0
  150.3122  139.4615  179.9445 C   0  0  0  0  0  0  0  0  0  0  0  0
  149.9516  138.2062  179.5104 F   0  0  0  0  0  0  0  0  0  0  0  0
  150.6531  140.2422  178.8737 F   0  0  0  0  0  0  0  0  0  0  0  0
  149.2092  139.9549  180.6209 F   0  0  0  0  0  0  0  0  0  0  0  0
  1  2  1  0  0  0
  2 22  1  0  0  0
 22 23  2  0  0  0
 22 24  1  0  0  0
 24 26  1  0  0  0
 26 27  2  0  0  0
 27 28  1  0  0  0
 28 29  2  0  0  0
 29 30  1  0  0  0
 30 31  2  0  0  0
 30 32  1  0  0  0
 32 33  2  0  0  0
 33 34  1  0  0  0
 34 35  2  0  0  0
 35 36  1  0  0  0
 36 37  2  0  0  0
 35 38  1  0  0  0
 38 39  1  0  0  0
 38 40  1  0  0  0
 38 41  1  0  0  0
  2  3  1  0  0  0
  3  4  1  0  0  0
  4  5  2  0  0  0
  5  6  1  0  0  0
  6  7  1  0  0  0
  7  8  1  0  0  0
  7  9  1  0  0  0
  9 10  2  0  0  0
  9 11  1  0  0  0
 11 15  1  0  0  0
 15 16  1  0  0  0
 16 17  1  0  0  0
 17 18  2  0  0  0
 18 19  1  0  0  0
 18 20  1  0  0  0
 20 21  1  0  0  0
 11 12  1  0  0  0
 12 13  2  0  0  0
 12 14  1  0  0  0
 31 26  1  0  0  0
 37 32  1  0  0  0
 14  3  1  0  0  0
 14  6  2  0  0  0
 21 16  2  0  0  0
 24 25  1  0  0  0
M  END
> <minimizedAffinity>
-7.33215

> <CNNscore>
0.4222787023

> <CNNaffinity>
6.5673761368

> <CNN_VS>
2.7732629776

> <CNNaffinity_variance>
0.5397731662

$$$$
[H]c1nc([H])c(N([H])C(=O)[C@@]([H])(n2c([H])nc3c2c(=O)n(C([H])([H])c2noc(C([H])([H])[H])c2[H])c(=O)n3C([H])([H])[H])C([H])([H])[H])nc1-c1c([H])nc(C(F)(F)F)nc1[H]


 41 45  0  0  0  0  0  0  0  0999 V2000
  149.4642  137.3500  186.9845 C   0  0  0  0  0  0  0  0  0  0  0  0
  149.1901  136.3636  185.8614 C   0  0  0  0  0  0  0  0  0  0  0  0
  148.5688  137.0857  184.7423 N   0  0  0  0  0  0  0  0  0  0  0  0
  147.3120  137.6032  184.7435 C   0  0  0  0  0  0  0  0  0  0  0  0
  147.0567  138.2336  183.6145 N   0  0  0  0  0  0  0  0  0  0  0  0
  148.1522  138.1383  182.8505 C   0  0  0  0  0  0  0  0  0  0  0  0
  148.3885  138.6374  181.6373 N   0  0  0  0  0  0  0  0  0  0  0  0
  147.3467  139.3681  180.9205 C   0  0  0  0  0  0  0  0  0  0  0  0
  149.6049  138.4345  181.0771 C   0  0  0  0  0  0  0  0  0  0  0  0
  149.7861  138.9231  179.9319 O   0  0  0  0  0  0  0  0  0  0  0  0
  150.5454  137.7434  181.7292 N   0  0  0  0  0  0  0  0  0  0  0  0
  150.3111  137.2292  182.9531 C   0  0  0  0  0  0  0  0  0  0  0  0
  151.2189  136.5647  183.5232 O   0  0  0  0  0  0  0  0  0  0  0  0
  149.1041  137.4186  183.5525 C   0  0  0  0  0  0  0  0  0  0  0  0
  151.8588  137.6392  181.1367 C   0  0  0  0  0  0  0  0  0  0  0  0
  152.6161  138.8910  181.5346 C   0  0  0  0  0  0  0  0  0  0  0  0
  153.2016  139.1676  182.7331 C   0  0  0  0  0  0  0  0  0  0  0  0
  153.7984  140.4273  182.6359 C   0  0  0  0  0  0  0  0  0  0  0  0
  154.5518  141.1338  183.7004 C   0  0  0  0  0  0  0  0  0  0  0  0
  153.5411  140.8444  181.3975 O   0  0  0  0  0  0  0  0  0  0  0  0
  152.8581  139.9666  180.7434 N   0  0  0  0  0  0  0  0  0  0  0  0
  148.3923  135.2000  186.2765 C   0  0  0  0  0  0  0  0  0  0  0  0
  147.8104  135.2673  187.4127 O   0  0  0  0  0  0  0  0  0  0  0  0
  148.2285  134.0211  185.5491 N   0  0  0  0  0  0  0  0  0  0  0  0
  147.6455  133.2067  186.0112 H   0  0  0  0  0  0  0  0  0  0  0  0
  148.4479  133.7337  184.1825 C   0  0  0  0  0  0  0  0  0  0  0  0
  147.4547  133.9692  183.2648 C   0  0  0  0  0  0  0  0  0  0  0  0
  147.6691  133.8933  181.9366 N   0  0  0  0  0  0  0  0  0  0  0  0
  148.9043  133.5787  181.4574 C   0  0  0  0  0  0  0  0  0  0  0  0
  149.9308  133.3413  182.3891 C   0  0  0  0  0  0  0  0  0  0  0  0
  149.6826  133.4179  183.6738 N   0  0  0  0  0  0  0  0  0  0  0  0
  151.2783  133.2307  181.8251 C   0  0  0  0  0  0  0  0  0  0  0  0
  151.5755  133.2558  180.4954 C   0  0  0  0  0  0  0  0  0  0  0  0
  152.8666  133.3527  180.0655 N   0  0  0  0  0  0  0  0  0  0  0  0
  153.9102  133.4290  180.9217 C   0  0  0  0  0  0  0  0  0  0  0  0
  153.6470  133.4001  182.2297 N   0  0  0  0  0  0  0  0  0  0  0  0
  152.3844  133.3036  182.7046 C   0  0  0  0  0  0  0  0  0  0  0  0
  155.3121  133.5806  180.3813 C   0  0  0  0  0  0  0  0  0  0  0  0
  155.6918  132.4014  179.7819 F   0  0  0  0  0  0  0  0  0  0  0  0
  156.2138  133.9179  181.3536 F   0  0  0  0  0  0  0  0  0  0  0  0
  155.2646  134.5193  179.3644 F   0  0  0  0  0  0  0  0  0  0  0  0
  1  2  1  0  0  0
  2 22  1  0  0  0
 22 23  2  0  0  0
 22 24  1  0  0  0
 24 26  1  0  0  0
 26 27  2  0  0  0
 27 28  1  0  0  0
 28 29  2  0  0  0
 29 30  1  0  0  0
 30 31  2  0  0  0
 30 32  1  0  0  0
 32 33  2  0  0  0
 33 34  1  0  0  0
 34 35  2  0  0  0
 35 36  1  0  0  0
 36 37  2  0  0  0
 35 38  1  0  0  0
 38 39  1  0  0  0
 38 40  1  0  0  0
 38 41  1  0  0  0
  2  3  1  0  0  0
  3  4  1  0  0  0
  4  5  2  0  0  0
  5  6  1  0  0  0
  6  7  1  0  0  0
  7  8  1  0  0  0
  7  9  1  0  0  0
  9 10  2  0  0  0
  9 11  1  0  0  0
 11 15  1  0  0  0
 15 16  1  0  0  0
 16 17  1  0  0  0
 17 18  2  0  0  0
 18 19  1  0  0  0
 18 20  1  0  0  0
 20 21  1  0  0  0
 11 12  1  0  0  0
 12 13  2  0  0  0
 12 14  1  0  0  0
 31 26  1  0  0  0
 37 32  1  0  0  0
 14  3  1  0  0  0
 14  6  2  0  0  0
 21 16  2  0  0  0
 24 25  1  0  0  0
M  END
> <minimizedAffinity>
-5.32704

> <CNNscore>
0.4198442101

> <CNNaffinity>
6.2495527267

> <CNN_VS>
2.6238384247

> <CNNaffinity_variance>
0.4727950692

$$$$
[H]c1nc([H])c(N([H])C(=O)[C@@]([H])(n2c([H])nc3c2c(=O)n(C([H])([H])c2noc(C([H])([H])[H])c2[H])c(=O)n3C([H])([H])[H])C([H])([H])[H])nc1-c1c([H])nc(C(F)(F)F)nc1[H]


 41 45  0  0  0  0  0  0  0  0999 V2000
  150.2642  137.0535  186.6283 C   0  0  0  0  0  0  0  0  0  0  0  0
  149.6733  136.1429  185.5649 C   0  0  0  0  0  0  0  0  0  0  0  0
  149.0241  136.9741  184.5415 N   0  0  0  0  0  0  0  0  0  0  0  0
  147.7218  137.3628  184.5566 C   0  0  0  0  0  0  0  0  0  0  0  0
  147.4461  138.1404  183.5288 N   0  0  0  0  0  0  0  0  0  0  0  0
  148.5736  138.2746  182.8192 C   0  0  0  0  0  0  0  0  0  0  0  0
  148.8033  138.9835  181.7140 N   0  0  0  0  0  0  0  0  0  0  0  0
  147.7199  139.7182  181.0661 C   0  0  0  0  0  0  0  0  0  0  0  0
  150.0543  138.9905  181.1950 C   0  0  0  0  0  0  0  0  0  0  0  0
  150.2277  139.6730  180.1523 O   0  0  0  0  0  0  0  0  0  0  0  0
  151.0353  138.2956  181.7798 N   0  0  0  0  0  0  0  0  0  0  0  0
  150.8089  137.5702  182.8933 C   0  0  0  0  0  0  0  0  0  0  0  0
  151.7578  136.9115  183.3998 O   0  0  0  0  0  0  0  0  0  0  0  0
  149.5670  137.5446  183.4494 C   0  0  0  0  0  0  0  0  0  0  0  0
  152.3740  138.4139  181.2497 C   0  0  0  0  0  0  0  0  0  0  0  0
  153.0423  139.5463  182.0046 C   0  0  0  0  0  0  0  0  0  0  0  0
  153.0766  140.8667  181.6712 C   0  0  0  0  0  0  0  0  0  0  0  0
  153.7878  141.5402  182.6678 C   0  0  0  0  0  0  0  0  0  0  0  0
  154.0740  142.9945  182.7212 C   0  0  0  0  0  0  0  0  0  0  0  0
  154.1468  140.6004  183.5406 O   0  0  0  0  0  0  0  0  0  0  0  0
  153.7223  139.4384  183.1740 N   0  0  0  0  0  0  0  0  0  0  0  0
  148.7639  135.1189  186.1006 C   0  0  0  0  0  0  0  0  0  0  0  0
  147.5632  135.1182  185.6620 O   0  0  0  0  0  0  0  0  0  0  0  0
  149.0892  134.1589  187.0589 N   0  0  0  0  0  0  0  0  0  0  0  0
  148.2873  133.4877  187.4097 H   0  0  0  0  0  0  0  0  0  0  0  0
  150.3414  133.6797  187.5072 C   0  0  0  0  0  0  0  0  0  0  0  0
  150.8815  132.5478  186.9491 C   0  0  0  0  0  0  0  0  0  0  0  0
  152.1455  132.1542  187.2003 N   0  0  0  0  0  0  0  0  0  0  0  0
  152.9408  132.8860  188.0287 C   0  0  0  0  0  0  0  0  0  0  0  0
  152.3992  134.0509  188.6013 C   0  0  0  0  0  0  0  0  0  0  0  0
  151.1630  134.3985  188.3385 N   0  0  0  0  0  0  0  0  0  0  0  0
  153.3574  134.9136  189.2966 C   0  0  0  0  0  0  0  0  0  0  0  0
  154.7133  134.8094  189.2076 C   0  0  0  0  0  0  0  0  0  0  0  0
  155.5276  135.7756  189.7220 N   0  0  0  0  0  0  0  0  0  0  0  0
  155.0432  136.8763  190.3398 C   0  0  0  0  0  0  0  0  0  0  0  0
  153.7186  136.9997  190.4460 N   0  0  0  0  0  0  0  0  0  0  0  0
  152.8705  136.0684  189.9536 C   0  0  0  0  0  0  0  0  0  0  0  0
  155.9976  137.9309  190.8470 C   0  0  0  0  0  0  0  0  0  0  0  0
  156.7848  137.3856  191.8356 F   0  0  0  0  0  0  0  0  0  0  0  0
  155.3489  139.0357  191.3276 F   0  0  0  0  0  0  0  0  0  0  0  0
  156.8607  138.2416  189.8097 F   0  0  0  0  0  0  0  0  0  0  0  0
  1  2  1  0  0  0
  2 22  1  0  0  0
 22 23  2  0  0  0
 22 24  1  0  0  0
 24 26  1  0  0  0
 26 27  2  0  0  0
 27 28  1  0  0  0
 28 29  2  0  0  0
 29 30  1  0  0  0
 30 31  2  0  0  0
 30 32  1  0  0  0
 32 33  2  0  0  0
 33 34  1  0  0  0
 34 35  2  0  0  0
 35 36  1  0  0  0
 36 37  2  0  0  0
 35 38  1  0  0  0
 38 39  1  0  0  0
 38 40  1  0  0  0
 38 41  1  0  0  0
  2  3  1  0  0  0
  3  4  1  0  0  0
  4  5  2  0  0  0
  5  6  1  0  0  0
  6  7  1  0  0  0
  7  8  1  0  0  0
  7  9  1  0  0  0
  9 10  2  0  0  0
  9 11  1  0  0  0
 11 15  1  0  0  0
 15 16  1  0  0  0
 16 17  1  0  0  0
 17 18  2  0  0  0
 18 19  1  0  0  0
 18 20  1  0  0  0
 20 21  1  0  0  0
 11 12  1  0  0  0
 12 13  2  0  0  0
 12 14  1  0  0  0
 31 26  1  0  0  0
 37 32  1  0  0  0
 14  3  1  0  0  0
 14  6  2  0  0  0
 21 16  2  0  0  0
 24 25  1  0  0  0
M  END
> <minimizedAffinity>
-6.86502

> <CNNscore>
0.3955985606

> <CNNaffinity>
6.5555086136

> <CNN_VS>
2.5933496952

> <CNNaffinity_variance>
0.1993386000

$$$$
[H]c1nc([H])c(N([H])C(=O)[C@@]([H])(n2c([H])nc3c2c(=O)n(C([H])([H])c2noc(C([H])([H])[H])c2[H])c(=O)n3C([H])([H])[H])C([H])([H])[H])nc1-c1c([H])nc(C(F)(F)F)nc1[H]


 41 45  0  0  0  0  0  0  0  0999 V2000
  154.5867  139.6750  184.6278 C   0  0  0  0  0  0  0  0  0  0  0  0
  154.6236  139.8520  183.1189 C   0  0  0  0  0  0  0  0  0  0  0  0
  155.0318  141.2310  182.8168 N   0  0  0  0  0  0  0  0  0  0  0  0
  154.1850  142.2798  182.6428 C   0  0  0  0  0  0  0  0  0  0  0  0
  154.8503  143.3975  182.4304 N   0  0  0  0  0  0  0  0  0  0  0  0
  156.1543  143.0953  182.4632 C   0  0  0  0  0  0  0  0  0  0  0  0
  157.2151  143.8914  182.3296 N   0  0  0  0  0  0  0  0  0  0  0  0
  157.0433  145.3143  182.0490 C   0  0  0  0  0  0  0  0  0  0  0  0
  158.4516  143.3496  182.4387 C   0  0  0  0  0  0  0  0  0  0  0  0
  159.4248  144.1363  182.3071 O   0  0  0  0  0  0  0  0  0  0  0  0
  158.6012  142.0416  182.6713 N   0  0  0  0  0  0  0  0  0  0  0  0
  157.5332  141.2290  182.7999 C   0  0  0  0  0  0  0  0  0  0  0  0
  157.7200  139.9972  182.9966 O   0  0  0  0  0  0  0  0  0  0  0  0
  156.2744  141.7373  182.7047 C   0  0  0  0  0  0  0  0  0  0  0  0
  159.9348  141.5272  182.8805 C   0  0  0  0  0  0  0  0  0  0  0  0
  160.3128  141.8665  184.3090 C   0  0  0  0  0  0  0  0  0  0  0  0
  161.5188  142.2964  184.7744 C   0  0  0  0  0  0  0  0  0  0  0  0
  161.3971  142.4999  186.1514 C   0  0  0  0  0  0  0  0  0  0  0  0
  162.4597  142.9691  187.0737 C   0  0  0  0  0  0  0  0  0  0  0  0
  160.1376  142.1812  186.4446 O   0  0  0  0  0  0  0  0  0  0  0  0
  159.4930  141.8131  185.3892 N   0  0  0  0  0  0  0  0  0  0  0  0
  153.3650  139.4912  182.4493 C   0  0  0  0  0  0  0  0  0  0  0  0
  153.0771  140.1171  181.3726 O   0  0  0  0  0  0  0  0  0  0  0  0
  152.4475  138.5392  182.8938 N   0  0  0  0  0  0  0  0  0  0  0  0
  151.5154  138.4127  182.3177 H   0  0  0  0  0  0  0  0  0  0  0  0
  152.5815  137.4807  183.8213 C   0  0  0  0  0  0  0  0  0  0  0  0
  152.6707  136.1858  183.3749 C   0  0  0  0  0  0  0  0  0  0  0  0
  152.9864  135.1626  184.1928 N   0  0  0  0  0  0  0  0  0  0  0  0
  153.2357  135.3899  185.5122 C   0  0  0  0  0  0  0  0  0  0  0  0
  153.1528  136.7141  185.9789 C   0  0  0  0  0  0  0  0  0  0  0  0
  152.8364  137.6826  185.1544 N   0  0  0  0  0  0  0  0  0  0  0  0
  153.6460  136.9325  187.3409 C   0  0  0  0  0  0  0  0  0  0  0  0
  154.3701  136.0336  188.0654 C   0  0  0  0  0  0  0  0  0  0  0  0
  154.9618  136.3924  189.2410 N   0  0  0  0  0  0  0  0  0  0  0  0
  154.8660  137.6425  189.7471 C   0  0  0  0  0  0  0  0  0  0  0  0
  154.1569  138.5406  189.0602 N   0  0  0  0  0  0  0  0  0  0  0  0
  153.5508  138.2327  187.8911 C   0  0  0  0  0  0  0  0  0  0  0  0
  155.5828  137.9874  191.0306 C   0  0  0  0  0  0  0  0  0  0  0  0
  156.8914  138.3022  190.7430 F   0  0  0  0  0  0  0  0  0  0  0  0
  155.5408  136.9688  191.9432 F   0  0  0  0  0  0  0  0  0  0  0  0
  155.0166  139.1522  191.5209 F   0  0  0  0  0  0  0  0  0  0  0  0
  1  2  1  0  0  0
  2 22  1  0  0  0
 22 23  2  0  0  0
 22 24  1  0  0  0
 24 26  1  0  0  0
 26 27  2  0  0  0
 27 28  1  0  0  0
 28 29  2  0  0  0
 29 30  1  0  0  0
 30 31  2  0  0  0
 30 32  1  0  0  0
 32 33  2  0  0  0
 33 34  1  0  0  0
 34 35  2  0  0  0
 35 36  1  0  0  0
 36 37  2  0  0  0
 35 38  1  0  0  0
 38 39  1  0  0  0
 38 40  1  0  0  0
 38 41  1  0  0  0
  2  3  1  0  0  0
  3  4  1  0  0  0
  4  5  2  0  0  0
  5  6  1  0  0  0
  6  7  1  0  0  0
  7  8  1  0  0  0
  7  9  1  0  0  0
  9 10  2  0  0  0
  9 11  1  0  0  0
 11 15  1  0  0  0
 15 16  1  0  0  0
 16 17  1  0  0  0
 17 18  2  0  0  0
 18 19  1  0  0  0
 18 20  1  0  0  0
 20 21  1  0  0  0
 11 12  1  0  0  0
 12 13  2  0  0  0
 12 14  1  0  0  0
 31 26  1  0  0  0
 37 32  1  0  0  0
 14  3  1  0  0  0
 14  6  2  0  0  0
 21 16  2  0  0  0
 24 25  1  0  0  0
M  END
> <minimizedAffinity>
-9.97872

> <CNNscore>
0.3591350317

> <CNNaffinity>
7.3307542801

> <CNN_VS>
2.6327307224

> <CNNaffinity_variance>
0.3894070983

$$$$
[H]c1nc([H])c(N([H])C(=O)[C@@]([H])(n2c([H])nc3c2c(=O)n(C([H])([H])c2noc(C([H])([H])[H])c2[H])c(=O)n3C([H])([H])[H])C([H])([H])[H])nc1-c1c([H])nc(C(F)(F)F)nc1[H]


 41 45  0  0  0  0  0  0  0  0999 V2000
  153.8316  138.8212  186.4101 C   0  0  0  0  0  0  0  0  0  0  0  0
  153.5126  137.3359  186.3710 C   0  0  0  0  0  0  0  0  0  0  0  0
  154.5390  136.6140  187.1358 N   0  0  0  0  0  0  0  0  0  0  0  0
  155.5770  135.9214  186.5969 C   0  0  0  0  0  0  0  0  0  0  0  0
  156.3541  135.4221  187.5369 N   0  0  0  0  0  0  0  0  0  0  0  0
  155.8329  135.7838  188.7160 C   0  0  0  0  0  0  0  0  0  0  0  0
  156.2744  135.5429  189.9505 N   0  0  0  0  0  0  0  0  0  0  0  0
  157.4664  134.7267  190.1653 C   0  0  0  0  0  0  0  0  0  0  0  0
  155.5838  136.0523  190.9984 C   0  0  0  0  0  0  0  0  0  0  0  0
  156.0354  135.8019  192.1458 O   0  0  0  0  0  0  0  0  0  0  0  0
  154.4795  136.7779  190.7948 N   0  0  0  0  0  0  0  0  0  0  0  0
  154.0227  137.0193  189.5496 C   0  0  0  0  0  0  0  0  0  0  0  0
  152.9645  137.6899  189.4038 O   0  0  0  0  0  0  0  0  0  0  0  0
  154.6936  136.5313  188.4708 C   0  0  0  0  0  0  0  0  0  0  0  0
  153.8339  137.3847  191.9357 C   0  0  0  0  0  0  0  0  0  0  0  0
  152.7526  136.4223  192.3866 C   0  0  0  0  0  0  0  0  0  0  0  0
  152.8779  135.3618  193.2325 C   0  0  0  0  0  0  0  0  0  0  0  0
  151.6172  134.7755  193.3717 C   0  0  0  0  0  0  0  0  0  0  0  0
  151.2783  133.5923  194.1992 C   0  0  0  0  0  0  0  0  0  0  0  0
  150.8044  135.5021  192.6066 O   0  0  0  0  0  0  0  0  0  0  0  0
  151.4442  136.4622  192.0288 N   0  0  0  0  0  0  0  0  0  0  0  0
  153.3599  136.7984  185.0107 C   0  0  0  0  0  0  0  0  0  0  0  0
  152.6736  135.7279  184.8804 O   0  0  0  0  0  0  0  0  0  0  0  0
  153.9126  137.3422  183.8512 N   0  0  0  0  0  0  0  0  0  0  0  0
  153.7612  136.7986  182.9035 H   0  0  0  0  0  0  0  0  0  0  0  0
  154.4319  138.6297  183.5840 C   0  0  0  0  0  0  0  0  0  0  0  0
  153.5773  139.6828  183.3726 C   0  0  0  0  0  0  0  0  0  0  0  0
  154.0092  140.9572  183.3016 N   0  0  0  0  0  0  0  0  0  0  0  0
  155.3330  141.2426  183.4452 C   0  0  0  0  0  0  0  0  0  0  0  0
  156.2167  140.1713  183.6682 C   0  0  0  0  0  0  0  0  0  0  0  0
  155.7602  138.9440  183.7246 N   0  0  0  0  0  0  0  0  0  0  0  0
  157.5828  140.5499  184.0374 C   0  0  0  0  0  0  0  0  0  0  0  0
  158.7087  140.1673  183.3717 C   0  0  0  0  0  0  0  0  0  0  0  0
  159.9191  140.7277  183.6581 N   0  0  0  0  0  0  0  0  0  0  0  0
  160.0687  141.6817  184.6045 C   0  0  0  0  0  0  0  0  0  0  0  0
  158.9826  142.0699  185.2757 N   0  0  0  0  0  0  0  0  0  0  0  0
  157.7616  141.5433  185.0291 C   0  0  0  0  0  0  0  0  0  0  0  0
  161.4285  142.2942  184.8414 C   0  0  0  0  0  0  0  0  0  0  0  0
  161.7894  142.0915  186.1540 F   0  0  0  0  0  0  0  0  0  0  0  0
  161.4570  143.6316  184.5540 F   0  0  0  0  0  0  0  0  0  0  0  0
  162.3424  141.5779  184.0869 F   0  0  0  0  0  0  0  0  0  0  0  0
  1  2  1  0  0  0
  2 22  1  0  0  0
 22 23  2  0  0  0
 22 24  1  0  0  0
 24 26  1  0  0  0
 26 27  2  0  0  0
 27 28  1  0  0  0
 28 29  2  0  0  0
 29 30  1  0  0  0
 30 31  2  0  0  0
 30 32  1  0  0  0
 32 33  2  0  0  0
 33 34  1  0  0  0
 34 35  2  0  0  0
 35 36  1  0  0  0
 36 37  2  0  0  0
 35 38  1  0  0  0
 38 39  1  0  0  0
 38 40  1  0  0  0
 38 41  1  0  0  0
  2  3  1  0  0  0
  3  4  1  0  0  0
  4  5  2  0  0  0
  5  6  1  0  0  0
  6  7  1  0  0  0
  7  8  1  0  0  0
  7  9  1  0  0  0
  9 10  2  0  0  0
  9 11  1  0  0  0
 11 15  1  0  0  0
 15 16  1  0  0  0
 16 17  1  0  0  0
 17 18  2  0  0  0
 18 19  1  0  0  0
 18 20  1  0  0  0
 20 21  1  0  0  0
 11 12  1  0  0  0
 12 13  2  0  0  0
 12 14  1  0  0  0
 31 26  1  0  0  0
 37 32  1  0  0  0
 14  3  1  0  0  0
 14  6  2  0  0  0
 21 16  2  0  0  0
 24 25  1  0  0  0
M  END
> <minimizedAffinity>
-7.48717

> <CNNscore>
0.3436166942

> <CNNaffinity>
6.7778673172

> <CNN_VS>
2.3289883137

> <CNNaffinity_variance>
0.4495794177

$$$$
[H]c1nc([H])c(N([H])C(=O)[C@@]([H])(n2c([H])nc3c2c(=O)n(C([H])([H])c2noc(C([H])([H])[H])c2[H])c(=O)n3C([H])([H])[H])C([H])([H])[H])nc1-c1c([H])nc(C(F)(F)F)nc1[H]


 41 45  0  0  0  0  0  0  0  0999 V2000
  150.9901  135.5959  186.9716 C   0  0  0  0  0  0  0  0  0  0  0  0
  150.7705  135.1057  185.5501 C   0  0  0  0  0  0  0  0  0  0  0  0
  149.8905  136.0558  184.8554 N   0  0  0  0  0  0  0  0  0  0  0  0
  148.5993  136.3178  185.1894 C   0  0  0  0  0  0  0  0  0  0  0  0
  148.0868  137.2494  184.4106 N   0  0  0  0  0  0  0  0  0  0  0  0
  149.0431  137.6154  183.5478 C   0  0  0  0  0  0  0  0  0  0  0  0
  149.0132  138.5394  182.5874 N   0  0  0  0  0  0  0  0  0  0  0  0
  147.7876  139.2852  182.3142 C   0  0  0  0  0  0  0  0  0  0  0  0
  150.1346  138.7557  181.8591 C   0  0  0  0  0  0  0  0  0  0  0  0
  150.0634  139.6369  180.9638 O   0  0  0  0  0  0  0  0  0  0  0  0
  151.2455  138.0517  182.0988 N   0  0  0  0  0  0  0  0  0  0  0  0
  151.2809  137.1104  183.0632 C   0  0  0  0  0  0  0  0  0  0  0  0
  152.3431  136.4539  183.2408 O   0  0  0  0  0  0  0  0  0  0  0  0
  150.1769  136.8696  183.8216 C   0  0  0  0  0  0  0  0  0  0  0  0
  152.4448  138.3867  181.3664 C   0  0  0  0  0  0  0  0  0  0  0  0
  153.0909  139.5473  182.0973 C   0  0  0  0  0  0  0  0  0  0  0  0
  153.1250  140.8563  181.7215 C   0  0  0  0  0  0  0  0  0  0  0  0
  153.8115  141.5664  182.7098 C   0  0  0  0  0  0  0  0  0  0  0  0
  154.0886  143.0235  182.7213 C   0  0  0  0  0  0  0  0  0  0  0  0
  154.1573  140.6580  183.6204 O   0  0  0  0  0  0  0  0  0  0  0  0
  153.7469  139.4820  183.2834 N   0  0  0  0  0  0  0  0  0  0  0  0
  150.2645  133.7272  185.4704 C   0  0  0  0  0  0  0  0  0  0  0  0
  149.4382  133.3563  186.3724 O   0  0  0  0  0  0  0  0  0  0  0  0
  150.6196  132.7816  184.5084 N   0  0  0  0  0  0  0  0  0  0  0  0
  150.2023  131.7651  184.6056 H   0  0  0  0  0  0  0  0  0  0  0  0
  151.2260  132.9282  183.2398 C   0  0  0  0  0  0  0  0  0  0  0  0
  150.5425  133.5434  182.2207 C   0  0  0  0  0  0  0  0  0  0  0  0
  151.1333  133.8774  181.0567 N   0  0  0  0  0  0  0  0  0  0  0  0
  152.4539  133.6126  180.8560 C   0  0  0  0  0  0  0  0  0  0  0  0
  153.1652  132.9877  181.8962 C   0  0  0  0  0  0  0  0  0  0  0  0
  152.5547  132.6718  183.0122 N   0  0  0  0  0  0  0  0  0  0  0  0
  154.6181  132.9311  181.7185 C   0  0  0  0  0  0  0  0  0  0  0  0
  155.5184  132.6661  182.7066 C   0  0  0  0  0  0  0  0  0  0  0  0
  156.8307  132.4310  182.4172 N   0  0  0  0  0  0  0  0  0  0  0  0
  157.3062  132.4462  181.1517 C   0  0  0  0  0  0  0  0  0  0  0  0
  156.4464  132.7095  180.1656 N   0  0  0  0  0  0  0  0  0  0  0  0
  155.1368  132.9505  180.4021 C   0  0  0  0  0  0  0  0  0  0  0  0
  158.7609  132.1327  180.8948 C   0  0  0  0  0  0  0  0  0  0  0  0
  158.8775  131.5157  179.6701 F   0  0  0  0  0  0  0  0  0  0  0  0
  159.3045  131.3387  181.8676 F   0  0  0  0  0  0  0  0  0  0  0  0
  159.4289  133.3394  180.7714 F   0  0  0  0  0  0  0  0  0  0  0  0
  1  2  1  0  0  0
  2 22  1  0  0  0
 22 23  2  0  0  0
 22 24  1  0  0  0
 24 26  1  0  0  0
 26 27  2  0  0  0
 27 28  1  0  0  0
 28 29  2  0  0  0
 29 30  1  0  0  0
 30 31  2  0  0  0
 30 32  1  0  0  0
 32 33  2  0  0  0
 33 34  1  0  0  0
 34 35  2  0  0  0
 35 36  1  0  0  0
 36 37  2  0  0  0
 35 38  1  0  0  0
 38 39  1  0  0  0
 38 40  1  0  0  0
 38 41  1  0  0  0
  2  3  1  0  0  0
  3  4  1  0  0  0
  4  5  2  0  0  0
  5  6  1  0  0  0
  6  7  1  0  0  0
  7  8  1  0  0  0
  7  9  1  0  0  0
  9 10  2  0  0  0
  9 11  1  0  0  0
 11 15  1  0  0  0
 15 16  1  0  0  0
 16 17  1  0  0  0
 17 18  2  0  0  0
 18 19  1  0  0  0
 18 20  1  0  0  0
 20 21  1  0  0  0
 11 12  1  0  0  0
 12 13  2  0  0  0
 12 14  1  0  0  0
 31 26  1  0  0  0
 37 32  1  0  0  0
 14  3  1  0  0  0
 14  6  2  0  0  0
 21 16  2  0  0  0
 24 25  1  0  0  0
M  END
> <minimizedAffinity>
-6.24810

> <CNNscore>
0.3031703532

> <CNNaffinity>
6.2225799561

> <CNN_VS>
1.8865017891

> <CNNaffinity_variance>
0.1486008018

$$$$
[H]c1nc([H])c(N([H])C(=O)[C@@]([H])(n2c([H])nc3c2c(=O)n(C([H])([H])c2noc(C([H])([H])[H])c2[H])c(=O)n3C([H])([H])[H])C([H])([H])[H])nc1-c1c([H])nc(C(F)(F)F)nc1[H]


 41 45  0  0  0  0  0  0  0  0999 V2000
  156.0329  137.9013  188.4502 C   0  0  0  0  0  0  0  0  0  0  0  0
  155.5530  136.4711  188.2671 C   0  0  0  0  0  0  0  0  0  0  0  0
  154.0878  136.4774  188.1538 N   0  0  0  0  0  0  0  0  0  0  0  0
  153.2222  136.6806  189.1818 C   0  0  0  0  0  0  0  0  0  0  0  0
  151.9736  136.6749  188.7598 N   0  0  0  0  0  0  0  0  0  0  0  0
  152.0029  136.4669  187.4374 C   0  0  0  0  0  0  0  0  0  0  0  0
  150.9977  136.4063  186.5639 N   0  0  0  0  0  0  0  0  0  0  0  0
  149.6139  136.5169  187.0175 C   0  0  0  0  0  0  0  0  0  0  0  0
  151.2861  136.2195  185.2537 C   0  0  0  0  0  0  0  0  0  0  0  0
  150.3083  136.1694  184.4635 O   0  0  0  0  0  0  0  0  0  0  0  0
  152.5542  136.0945  184.8493 N   0  0  0  0  0  0  0  0  0  0  0  0
  153.5754  136.1471  185.7278 C   0  0  0  0  0  0  0  0  0  0  0  0
  154.7553  136.0022  185.3062 O   0  0  0  0  0  0  0  0  0  0  0  0
  153.3266  136.3416  187.0515 C   0  0  0  0  0  0  0  0  0  0  0  0
  152.8191  135.9986  183.4324 C   0  0  0  0  0  0  0  0  0  0  0  0
  152.7558  137.4097  182.8815 C   0  0  0  0  0  0  0  0  0  0  0  0
  152.1108  137.8411  181.7618 C   0  0  0  0  0  0  0  0  0  0  0  0
  152.3118  139.2200  181.6580 C   0  0  0  0  0  0  0  0  0  0  0  0
  151.7910  140.1123  180.5939 C   0  0  0  0  0  0  0  0  0  0  0  0
  153.0643  139.5463  182.7074 O   0  0  0  0  0  0  0  0  0  0  0  0
  153.3305  138.5103  183.4290 N   0  0  0  0  0  0  0  0  0  0  0  0
  156.0203  135.5508  189.3147 C   0  0  0  0  0  0  0  0  0  0  0  0
  156.4240  136.0711  190.4103 O   0  0  0  0  0  0  0  0  0  0  0  0
  156.0797  134.1609  189.2132 N   0  0  0  0  0  0  0  0  0  0  0  0
  156.5068  133.5995  190.0612 H   0  0  0  0  0  0  0  0  0  0  0  0
  155.4481  133.2660  188.3194 C   0  0  0  0  0  0  0  0  0  0  0  0
  154.2601  132.6735  188.6686 C   0  0  0  0  0  0  0  0  0  0  0  0
  153.5233  131.9657  187.7901 N   0  0  0  0  0  0  0  0  0  0  0  0
  153.9431  131.8190  186.5029 C   0  0  0  0  0  0  0  0  0  0  0  0
  155.1562  132.4271  186.1331 C   0  0  0  0  0  0  0  0  0  0  0  0
  155.8489  133.1025  187.0173 N   0  0  0  0  0  0  0  0  0  0  0  0
  155.4458  132.4296  184.6971 C   0  0  0  0  0  0  0  0  0  0  0  0
  154.5872  132.8493  183.7255 C   0  0  0  0  0  0  0  0  0  0  0  0
  155.0076  133.0102  182.4377 N   0  0  0  0  0  0  0  0  0  0  0  0
  156.2820  132.7670  182.0572 C   0  0  0  0  0  0  0  0  0  0  0  0
  157.1418  132.3488  182.9882 N   0  0  0  0  0  0  0  0  0  0  0  0
  156.7725  132.1729  184.2773 C   0  0  0  0  0  0  0  0  0  0  0  0
  156.6944  133.0086  180.6247 C   0  0  0  0  0  0  0  0  0  0  0  0
  158.0650  133.1194  180.5650 F   0  0  0  0  0  0  0  0  0  0  0  0
  156.1152  134.1297  180.0956 F   0  0  0  0  0  0  0  0  0  0  0  0
  156.3791  131.8683  179.9052 F   0  0  0  0  0  0  0  0  0  0  0  0
  1  2  1  0  0  0
  2 22  1  0  0  0
 22 23  2  0  0  0
 22 24  1  0  0  0
 24 26  1  0  0  0
 26 27  2  0  0  0
 27 28  1  0  0  0
 28 29  2  0  0  0
 29 30  1  0  0  0
 30 31  2  0  0  0
 30 32  1  0  0  0
 32 33  2  0  0  0
 33 34  1  0  0  0
 34 35  2  0  0  0
 35 36  1  0  0  0
 36 37  2  0  0  0
 35 38  1  0  0  0
 38 39  1  0  0  0
 38 40  1  0  0  0
 38 41  1  0  0  0
  2  3  1  0  0  0
  3  4  1  0  0  0
  4  5  2  0  0  0
  5  6  1  0  0  0
  6  7  1  0  0  0
  7  8  1  0  0  0
  7  9  1  0  0  0
  9 10  2  0  0  0
  9 11  1  0  0  0
 11 15  1  0  0  0
 15 16  1  0  0  0
 16 17  1  0  0  0
 17 18  2  0  0  0
 18 19  1  0  0  0
 18 20  1  0  0  0
 20 21  1  0  0  0
 11 12  1  0  0  0
 12 13  2  0  0  0
 12 14  1  0  0  0
 31 26  1  0  0  0
 37 32  1  0  0  0
 14  3  1  0  0  0
 14  6  2  0  0  0
 21 16  2  0  0  0
 24 25  1  0  0  0
M  END
> <minimizedAffinity>
-5.40061

> <CNNscore>
0.2924435437

> <CNNaffinity>
6.1245965958

> <CNN_VS>
1.7910987139

> <CNNaffinity_variance>
0.2459583730

$$$$
[H]c1nc([H])c(N([H])C(=O)[C@@]([H])(n2c([H])nc3c2c(=O)n(C([H])([H])c2noc(C([H])([H])[H])c2[H])c(=O)n3C([H])([H])[H])C([H])([H])[H])nc1-c1c([H])nc(C(F)(F)F)nc1[H]


 41 45  0  0  0  0  0  0  0  0999 V2000
  153.7820  139.5613  185.4922 C   0  0  0  0  0  0  0  0  0  0  0  0
  154.3681  139.3153  184.1118 C   0  0  0  0  0  0  0  0  0  0  0  0
  154.7271  140.6097  183.5157 N   0  0  0  0  0  0  0  0  0  0  0  0
  153.8457  141.5813  183.1602 C   0  0  0  0  0  0  0  0  0  0  0  0
  154.4719  142.6442  182.6962 N   0  0  0  0  0  0  0  0  0  0  0  0
  155.7843  142.3829  182.7420 C   0  0  0  0  0  0  0  0  0  0  0  0
  156.8172  143.1559  182.4068 N   0  0  0  0  0  0  0  0  0  0  0  0
  156.5963  144.4855  181.8443 C   0  0  0  0  0  0  0  0  0  0  0  0
  158.0716  142.6747  182.5793 C   0  0  0  0  0  0  0  0  0  0  0  0
  159.0173  143.4370  182.2513 O   0  0  0  0  0  0  0  0  0  0  0  0
  158.2655  141.4471  183.0718 N   0  0  0  0  0  0  0  0  0  0  0  0
  157.2257  140.6567  183.4058 C   0  0  0  0  0  0  0  0  0  0  0  0
  157.4535  139.4969  183.8460 O   0  0  0  0  0  0  0  0  0  0  0  0
  155.9506  141.1076  183.2547 C   0  0  0  0  0  0  0  0  0  0  0  0
  159.6192  141.0154  183.3328 C   0  0  0  0  0  0  0  0  0  0  0  0
  160.0168  141.6138  184.6680 C   0  0  0  0  0  0  0  0  0  0  0  0
  161.1678  142.2729  184.9784 C   0  0  0  0  0  0  0  0  0  0  0  0
  161.0895  142.6608  186.3185 C   0  0  0  0  0  0  0  0  0  0  0  0
  162.1171  143.4065  187.0853 C   0  0  0  0  0  0  0  0  0  0  0  0
  159.9088  142.2162  186.7455 O   0  0  0  0  0  0  0  0  0  0  0  0
  159.2720  141.6081  185.8023 N   0  0  0  0  0  0  0  0  0  0  0  0
  153.4953  138.5261  183.2297 C   0  0  0  0  0  0  0  0  0  0  0  0
  153.3343  138.9524  182.0354 O   0  0  0  0  0  0  0  0  0  0  0  0
  152.8123  137.3630  183.5852 N   0  0  0  0  0  0  0  0  0  0  0  0
  152.1461  136.9060  182.8341 H   0  0  0  0  0  0  0  0  0  0  0  0
  152.9979  136.4686  184.6642 C   0  0  0  0  0  0  0  0  0  0  0  0
  152.0385  135.5286  184.9476 C   0  0  0  0  0  0  0  0  0  0  0  0
  152.2435  134.5363  185.8359 N   0  0  0  0  0  0  0  0  0  0  0  0
  153.4346  134.4333  186.4877 C   0  0  0  0  0  0  0  0  0  0  0  0
  154.4267  135.3880  186.2003 C   0  0  0  0  0  0  0  0  0  0  0  0
  154.1884  136.3430  185.3348 N   0  0  0  0  0  0  0  0  0  0  0  0
  155.7528  135.1023  186.7532 C   0  0  0  0  0  0  0  0  0  0  0  0
  156.3821  135.8478  187.7048 C   0  0  0  0  0  0  0  0  0  0  0  0
  157.5203  135.4003  188.3092 N   0  0  0  0  0  0  0  0  0  0  0  0
  158.0807  134.2084  188.0041 C   0  0  0  0  0  0  0  0  0  0  0  0
  157.4877  133.4613  187.0706 N   0  0  0  0  0  0  0  0  0  0  0  0
  156.3592  133.8621  186.4423 C   0  0  0  0  0  0  0  0  0  0  0  0
  159.3158  133.7510  188.7426 C   0  0  0  0  0  0  0  0  0  0  0  0
  160.3046  134.6963  188.5918 F   0  0  0  0  0  0  0  0  0  0  0  0
  159.7662  132.5351  188.3057 F   0  0  0  0  0  0  0  0  0  0  0  0
  159.0105  133.7406  190.0933 F   0  0  0  0  0  0  0  0  0  0  0  0
  1  2  1  0  0  0
  2 22  1  0  0  0
 22 23  2  0  0  0
 22 24  1  0  0  0
 24 26  1  0  0  0
 26 27  2  0  0  0
 27 28  1  0  0  0
 28 29  2  0  0  0
 29 30  1  0  0  0
 30 31  2  0  0  0
 30 32  1  0  0  0
 32 33  2  0  0  0
 33 34  1  0  0  0
 34 35  2  0  0  0
 35 36  1  0  0  0
 36 37  2  0  0  0
 35 38  1  0  0  0
 38 39  1  0  0  0
 38 40  1  0  0  0
 38 41  1  0  0  0
  2  3  1  0  0  0
  3  4  1  0  0  0
  4  5  2  0  0  0
  5  6  1  0  0  0
  6  7  1  0  0  0
  7  8  1  0  0  0
  7  9  1  0  0  0
  9 10  2  0  0  0
  9 11  1  0  0  0
 11 15  1  0  0  0
 15 16  1  0  0  0
 16 17  1  0  0  0
 17 18  2  0  0  0
 18 19  1  0  0  0
 18 20  1  0  0  0
 20 21  1  0  0  0
 11 12  1  0  0  0
 12 13  2  0  0  0
 12 14  1  0  0  0
 31 26  1  0  0  0
 37 32  1  0  0  0
 14  3  1  0  0  0
 14  6  2  0  0  0
 21 16  2  0  0  0
 24 25  1  0  0  0
M  END
> <minimizedAffinity>
-8.31525

> <CNNscore>
0.2912556827

> <CNNaffinity>
6.9833459854

> <CNN_VS>
2.0339391232

> <CNNaffinity_variance>
0.3840565383

$$$$
[H]c1nc(C([H])([H])N([H])C(=O)[C@@]2([H])N(S(=O)(=O)c3c([H])c([H])c(F)c([H])c3[H])[C@@]([H])(C([H])([H])[H])[C@]([H])(F)C2([H])[H])c([H])c(-c2c([H])nc(C(F)(F)F)nc2[H])c1C#N


 40 43  0  0  0  0  0  0  0  0999 V2000
  155.3342  141.8249  183.5026 C   0  0  0  0  0  0  0  0  0  0  0  0
  154.8441  142.6368  184.3027 O   0  0  0  0  0  0  0  0  0  0  0  0
  154.9208  140.4787  183.6064 N   0  0  0  0  0  0  0  0  0  0  0  0
  155.4106  139.8067  182.9104 H   0  0  0  0  0  0  0  0  0  0  0  0
  159.7204  143.2037  181.8573 C   0  0  0  0  0  0  0  0  0  0  0  0
  158.2900  142.8752  181.8251 C   0  0  0  0  0  0  0  0  0  0  0  0
  157.8895  141.8103  180.8232 C   0  0  0  0  0  0  0  0  0  0  0  0
  157.7631  142.3435  179.5561 F   0  0  0  0  0  0  0  0  0  0  0  0
  156.4912  141.3711  181.3021 C   0  0  0  0  0  0  0  0  0  0  0  0
  156.2932  142.2458  182.4934 C   0  0  0  0  0  0  0  0  0  0  0  0
  157.6245  142.4588  182.9810 N   0  0  0  0  0  0  0  0  0  0  0  0
  158.3058  141.4579  184.0862 S   0  0  0  0  0  0  0  0  0  0  0  0
  158.5740  140.1161  183.4274 O   0  0  0  0  0  0  0  0  0  0  0  0
  157.2753  141.1318  185.1587 O   0  0  0  0  0  0  0  0  0  0  0  0
  159.7365  141.9471  184.9347 C   0  0  0  0  0  0  0  0  0  0  0  0
  160.9817  141.9163  184.3630 C   0  0  0  0  0  0  0  0  0  0  0  0
  162.1189  142.3094  185.0352 C   0  0  0  0  0  0  0  0  0  0  0  0
  162.0333  142.7543  186.3358 C   0  0  0  0  0  0  0  0  0  0  0  0
  163.1442  143.1463  187.0169 F   0  0  0  0  0  0  0  0  0  0  0  0
  160.7727  142.7816  186.9085 C   0  0  0  0  0  0  0  0  0  0  0  0
  159.6526  142.3872  186.2256 C   0  0  0  0  0  0  0  0  0  0  0  0
  153.9683  139.9101  184.4742 C   0  0  0  0  0  0  0  0  0  0  0  0
  154.5018  138.9848  185.4901 C   0  0  0  0  0  0  0  0  0  0  0  0
  153.9220  138.6987  186.7043 C   0  0  0  0  0  0  0  0  0  0  0  0
  154.5339  137.8912  187.6652 C   0  0  0  0  0  0  0  0  0  0  0  0
  155.7647  137.3702  187.3674 C   0  0  0  0  0  0  0  0  0  0  0  0
  156.3661  137.6432  186.1532 C   0  0  0  0  0  0  0  0  0  0  0  0
  155.7279  138.4148  185.2946 N   0  0  0  0  0  0  0  0  0  0  0  0
  153.9228  137.6395  188.9390 C   0  0  0  0  0  0  0  0  0  0  0  0
  154.5095  138.1218  190.0929 C   0  0  0  0  0  0  0  0  0  0  0  0
  153.9725  137.8447  191.3010 N   0  0  0  0  0  0  0  0  0  0  0  0
  152.8699  137.1056  191.4368 C   0  0  0  0  0  0  0  0  0  0  0  0
  152.2887  136.6331  190.3262 N   0  0  0  0  0  0  0  0  0  0  0  0
  152.7896  136.8860  189.1006 C   0  0  0  0  0  0  0  0  0  0  0  0
  152.2932  136.7942  192.7648 C   0  0  0  0  0  0  0  0  0  0  0  0
  152.1991  137.9985  193.4379 F   0  0  0  0  0  0  0  0  0  0  0  0
  153.1697  136.0131  193.5211 F   0  0  0  0  0  0  0  0  0  0  0  0
  151.0542  136.2228  192.6244 F   0  0  0  0  0  0  0  0  0  0  0  0
  156.5086  136.5662  188.2890 C   0  0  0  0  0  0  0  0  0  0  0  0
  157.0970  135.9057  189.0738 N   0  0  0  0  0  0  0  0  0  0  0  0
  5  6  1  0  0  0
  6  7  1  0  0  0
  7  8  1  0  0  0
  7  9  1  0  0  0
  9 10  1  0  0  0
 10 11  1  0  0  0
 11 12  1  0  0  0
 12 13  2  0  0  0
 12 14  2  0  0  0
 12 15  1  0  0  0
 15 16  2  0  0  0
 16 17  1  0  0  0
 17 18  2  0  0  0
 18 19  1  0  0  0
 18 20  1  0  0  0
 20 21  2  0  0  0
 10  1  1  0  0  0
  1  2  2  0  0  0
  1  3  1  0  0  0
  3 22  1  0  0  0
 22 23  1  0  0  0
 23 24  2  0  0  0
 24 25  1  0  0  0
 25 29  1  0  0  0
 29 30  2  0  0  0
 30 31  1  0  0  0
 31 32  2  0  0  0
 32 33  1  0  0  0
 33 34  2  0  0  0
 32 35  1  0  0  0
 35 36  1  0  0  0
 35 37  1  0  0  0
 35 38  1  0  0  0
 25 26  2  0  0  0
 26 27  1  0  0  0
 27 28  2  0  0  0
 26 39  1  0  0  0
 39 40  3  0  0  0
 11  6  1  0  0  0
 21 15  1  0  0  0
 28 23  1  0  0  0
 34 29  1  0  0  0
  3  4  1  0  0  0
M  END
> <minimizedAffinity>
-9.02936

> <CNNscore>
0.5164562464

> <CNNaffinity>
7.2316160202

> <CNN_VS>
3.7348132133

> <CNNaffinity_variance>
0.1271124631

$$$$
[H]c1nc(C([H])([H])N([H])C(=O)[C@@]2([H])N(S(=O)(=O)c3c([H])c([H])c(F)c([H])c3[H])[C@@]([H])(C([H])([H])[H])[C@]([H])(F)C2([H])[H])c([H])c(-c2c([H])nc(C(F)(F)F)nc2[H])c1C#N


 40 43  0  0  0  0  0  0  0  0999 V2000
  153.2872  137.9115  187.4682 C   0  0  0  0  0  0  0  0  0  0  0  0
  152.1213  137.8801  187.0449 O   0  0  0  0  0  0  0  0  0  0  0  0
  154.3273  137.8448  186.5155 N   0  0  0  0  0  0  0  0  0  0  0  0
  155.3238  137.8351  186.9430 H   0  0  0  0  0  0  0  0  0  0  0  0
  153.7678  136.2383  192.0307 C   0  0  0  0  0  0  0  0  0  0  0  0
  153.7526  137.2010  190.9226 C   0  0  0  0  0  0  0  0  0  0  0  0
  155.0293  137.9964  190.7342 C   0  0  0  0  0  0  0  0  0  0  0  0
  155.0868  139.0585  191.6142 F   0  0  0  0  0  0  0  0  0  0  0  0
  154.8956  138.5616  189.3059 C   0  0  0  0  0  0  0  0  0  0  0  0
  153.5703  138.0187  188.8908 C   0  0  0  0  0  0  0  0  0  0  0  0
  153.4665  136.7880  189.6187 N   0  0  0  0  0  0  0  0  0  0  0  0
  154.0104  135.3723  188.9962 S   0  0  0  0  0  0  0  0  0  0  0  0
  153.4281  135.1970  187.6046 O   0  0  0  0  0  0  0  0  0  0  0  0
  153.4050  134.2202  189.7866 O   0  0  0  0  0  0  0  0  0  0  0  0
  155.7132  135.0543  188.9214 C   0  0  0  0  0  0  0  0  0  0  0  0
  156.4686  135.3307  187.8118 C   0  0  0  0  0  0  0  0  0  0  0  0
  157.8231  135.0827  187.7532 C   0  0  0  0  0  0  0  0  0  0  0  0
  158.4721  134.5335  188.8367 C   0  0  0  0  0  0  0  0  0  0  0  0
  159.8085  134.2804  188.7986 F   0  0  0  0  0  0  0  0  0  0  0  0
  157.7032  134.2548  189.9543 C   0  0  0  0  0  0  0  0  0  0  0  0
  156.3576  134.5080  189.9954 C   0  0  0  0  0  0  0  0  0  0  0  0
  154.2387  137.7984  185.1107 C   0  0  0  0  0  0  0  0  0  0  0  0
  154.9086  138.8973  184.3919 C   0  0  0  0  0  0  0  0  0  0  0  0
  156.1959  139.3332  184.6043 C   0  0  0  0  0  0  0  0  0  0  0  0
  156.7346  140.4488  183.9599 C   0  0  0  0  0  0  0  0  0  0  0  0
  155.9310  141.1253  183.0816 C   0  0  0  0  0  0  0  0  0  0  0  0
  154.6345  140.7048  182.8515 C   0  0  0  0  0  0  0  0  0  0  0  0
  154.1940  139.6422  183.4971 N   0  0  0  0  0  0  0  0  0  0  0  0
  158.0689  140.9039  184.2283 C   0  0  0  0  0  0  0  0  0  0  0  0
  158.3549  141.5362  185.4227 C   0  0  0  0  0  0  0  0  0  0  0  0
  159.5943  142.0166  185.6630 N   0  0  0  0  0  0  0  0  0  0  0  0
  160.5845  141.9063  184.7755 C   0  0  0  0  0  0  0  0  0  0  0  0
  160.3223  141.2932  183.6136 N   0  0  0  0  0  0  0  0  0  0  0  0
  159.1006  140.7979  183.3326 C   0  0  0  0  0  0  0  0  0  0  0  0
  161.9378  142.4467  185.0392 C   0  0  0  0  0  0  0  0  0  0  0  0
  161.8911  143.7876  184.7045 F   0  0  0  0  0  0  0  0  0  0  0  0
  162.8801  141.8809  184.1776 F   0  0  0  0  0  0  0  0  0  0  0  0
  162.2634  142.2917  186.3626 F   0  0  0  0  0  0  0  0  0  0  0  0
  156.3564  142.3077  182.3961 C   0  0  0  0  0  0  0  0  0  0  0  0
  156.7109  143.3009  181.8609 N   0  0  0  0  0  0  0  0  0  0  0  0
  5  6  1  0  0  0
  6  7  1  0  0  0
  7  8  1  0  0  0
  7  9  1  0  0  0
  9 10  1  0  0  0
 10 11  1  0  0  0
 11 12  1  0  0  0
 12 13  2  0  0  0
 12 14  2  0  0  0
 12 15  1  0  0  0
 15 16  2  0  0  0
 16 17  1  0  0  0
 17 18  2  0  0  0
 18 19  1  0  0  0
 18 20  1  0  0  0
 20 21  2  0  0  0
 10  1  1  0  0  0
  1  2  2  0  0  0
  1  3  1  0  0  0
  3 22  1  0  0  0
 22 23  1  0  0  0
 23 24  2  0  0  0
 24 25  1  0  0  0
 25 29  1  0  0  0
 29 30  2  0  0  0
 30 31  1  0  0  0
 31 32  2  0  0  0
 32 33  1  0  0  0
 33 34  2  0  0  0
 32 35  1  0  0  0
 35 36  1  0  0  0
 35 37  1  0  0  0
 35 38  1  0  0  0
 25 26  2  0  0  0
 26 27  1  0  0  0
 27 28  2  0  0  0
 26 39  1  0  0  0
 39 40  3  0  0  0
 11  6  1  0  0  0
 21 15  1  0  0  0
 28 23  1  0  0  0
 34 29  1  0  0  0
  3  4  1  0  0  0
M  END
> <minimizedAffinity>
-9.72902

> <CNNscore>
0.4964566529

> <CNNaffinity>
7.2394227982

> <CNN_VS>
3.5940597057

> <CNNaffinity_variance>
0.0893114805

$$$$
[H]c1nc(C([H])([H])N([H])C(=O)[C@@]2([H])N(S(=O)(=O)c3c([H])c([H])c(F)c([H])c3[H])[C@@]([H])(C([H])([H])[H])[C@]([H])(F)C2([H])[H])c([H])c(-c2c([H])nc(C(F)(F)F)nc2[H])c1C#N


 40 43  0  0  0  0  0  0  0  0999 V2000
  155.2006  141.2223  182.9769 C   0  0  0  0  0  0  0  0  0  0  0  0
  154.2579  141.6408  183.6666 O   0  0  0  0  0  0  0  0  0  0  0  0
  155.3143  139.8248  182.8096 N   0  0  0  0  0  0  0  0  0  0  0  0
  156.1780  139.5135  182.2326 H   0  0  0  0  0  0  0  0  0  0  0  0
  159.1985  144.0222  182.8193 C   0  0  0  0  0  0  0  0  0  0  0  0
  157.9541  143.3897  182.3648 C   0  0  0  0  0  0  0  0  0  0  0  0
  158.0574  142.6062  181.0710 C   0  0  0  0  0  0  0  0  0  0  0  0
  157.9935  143.4451  179.9765 F   0  0  0  0  0  0  0  0  0  0  0  0
  156.7904  141.7275  181.0785 C   0  0  0  0  0  0  0  0  0  0  0  0
  156.1481  142.1374  182.3603 C   0  0  0  0  0  0  0  0  0  0  0  0
  157.2570  142.5047  183.1914 N   0  0  0  0  0  0  0  0  0  0  0  0
  158.0077  141.4121  184.1559 S   0  0  0  0  0  0  0  0  0  0  0  0
  158.3158  140.1708  183.3369 O   0  0  0  0  0  0  0  0  0  0  0  0
  157.0193  140.9157  185.2024 O   0  0  0  0  0  0  0  0  0  0  0  0
  159.4373  141.8617  185.0278 C   0  0  0  0  0  0  0  0  0  0  0  0
  160.6865  141.8316  184.4647 C   0  0  0  0  0  0  0  0  0  0  0  0
  161.8228  142.1934  185.1556 C   0  0  0  0  0  0  0  0  0  0  0  0
  161.7324  142.6043  186.4670 C   0  0  0  0  0  0  0  0  0  0  0  0
  162.8424  142.9649  187.1665 F   0  0  0  0  0  0  0  0  0  0  0  0
  160.4677  142.6309  187.0309 C   0  0  0  0  0  0  0  0  0  0  0  0
  159.3486  142.2680  186.3294 C   0  0  0  0  0  0  0  0  0  0  0  0
  154.4635  138.8054  183.2792 C   0  0  0  0  0  0  0  0  0  0  0  0
  154.5013  138.5611  184.7325 C   0  0  0  0  0  0  0  0  0  0  0  0
  155.2630  137.6100  185.3708 C   0  0  0  0  0  0  0  0  0  0  0  0
  155.1731  137.3618  186.7420 C   0  0  0  0  0  0  0  0  0  0  0  0
  154.2822  138.1081  187.4661 C   0  0  0  0  0  0  0  0  0  0  0  0
  153.5071  139.0701  186.8462 C   0  0  0  0  0  0  0  0  0  0  0  0
  153.6465  139.2486  185.5466 N   0  0  0  0  0  0  0  0  0  0  0  0
  155.9531  136.3375  187.3760 C   0  0  0  0  0  0  0  0  0  0  0  0
  156.9611  136.6829  188.2551 C   0  0  0  0  0  0  0  0  0  0  0  0
  157.7367  135.7294  188.8157 N   0  0  0  0  0  0  0  0  0  0  0  0
  157.5706  134.4319  188.5527 C   0  0  0  0  0  0  0  0  0  0  0  0
  156.5952  134.0820  187.7037 N   0  0  0  0  0  0  0  0  0  0  0  0
  155.7972  134.9998  187.1227 C   0  0  0  0  0  0  0  0  0  0  0  0
  158.4326  133.3921  189.1601 C   0  0  0  0  0  0  0  0  0  0  0  0
  159.6623  133.9866  189.3763 F   0  0  0  0  0  0  0  0  0  0  0  0
  158.6752  132.3531  188.2590 F   0  0  0  0  0  0  0  0  0  0  0  0
  157.8931  132.9574  190.3438 F   0  0  0  0  0  0  0  0  0  0  0  0
  154.0695  137.9141  188.8683 C   0  0  0  0  0  0  0  0  0  0  0  0
  153.9019  137.7876  190.0321 N   0  0  0  0  0  0  0  0  0  0  0  0
  5  6  1  0  0  0
  6  7  1  0  0  0
  7  8  1  0  0  0
  7  9  1  0  0  0
  9 10  1  0  0  0
 10 11  1  0  0  0
 11 12  1  0  0  0
 12 13  2  0  0  0
 12 14  2  0  0  0
 12 15  1  0  0  0
 15 16  2  0  0  0
 16 17  1  0  0  0
 17 18  2  0  0  0
 18 19  1  0  0  0
 18 20  1  0  0  0
 20 21  2  0  0  0
 10  1  1  0  0  0
  1  2  2  0  0  0
  1  3  1  0  0  0
  3 22  1  0  0  0
 22 23  1  0  0  0
 23 24  2  0  0  0
 24 25  1  0  0  0
 25 29  1  0  0  0
 29 30  2  0  0  0
 30 31  1  0  0  0
 31 32  2  0  0  0
 32 33  1  0  0  0
 33 34  2  0  0  0
 32 35  1  0  0  0
 35 36  1  0  0  0
 35 37  1  0  0  0
 35 38  1  0  0  0
 25 26  2  0  0  0
 26 27  1  0  0  0
 27 28  2  0  0  0
 26 39  1  0  0  0
 39 40  3  0  0  0
 11  6  1  0  0  0
 21 15  1  0  0  0
 28 23  1  0  0  0
 34 29  1  0  0  0
  3  4  1  0  0  0
M  END
> <minimizedAffinity>
-8.14574

> <CNNscore>
0.4568947554

> <CNNaffinity>
7.3892655373

> <CNN_VS>
3.3761167526

> <CNNaffinity_variance>
0.0419874080

$$$$
[H]c1nc(C([H])([H])N([H])C(=O)[C@@]2([H])N(S(=O)(=O)c3c([H])c([H])c(F)c([H])c3[H])[C@@]([H])(C([H])([H])[H])[C@]([H])(F)C2([H])[H])c([H])c(-c2c([H])nc(C(F)(F)F)nc2[H])c1C#N


 40 43  0  0  0  0  0  0  0  0999 V2000
  155.4163  142.1634  182.3102 C   0  0  0  0  0  0  0  0  0  0  0  0
  154.9789  142.9121  183.1978 O   0  0  0  0  0  0  0  0  0  0  0  0
  154.6943  140.9796  182.0434 N   0  0  0  0  0  0  0  0  0  0  0  0
  155.1431  140.3441  181.2881 H   0  0  0  0  0  0  0  0  0  0  0  0
  160.1594  143.2089  181.8039 C   0  0  0  0  0  0  0  0  0  0  0  0
  158.7625  142.9759  181.4175 C   0  0  0  0  0  0  0  0  0  0  0  0
  158.5497  141.9174  180.3533 C   0  0  0  0  0  0  0  0  0  0  0  0
  158.7800  142.4287  179.0918 F   0  0  0  0  0  0  0  0  0  0  0  0
  157.0490  141.5834  180.4706 C   0  0  0  0  0  0  0  0  0  0  0  0
  156.6231  142.4964  181.5699 C   0  0  0  0  0  0  0  0  0  0  0  0
  157.8030  142.6313  182.3731 N   0  0  0  0  0  0  0  0  0  0  0  0
  158.1162  141.6126  183.6188 S   0  0  0  0  0  0  0  0  0  0  0  0
  158.3929  140.2287  183.0580 O   0  0  0  0  0  0  0  0  0  0  0  0
  156.8438  141.4223  184.4331 O   0  0  0  0  0  0  0  0  0  0  0  0
  159.3600  141.9983  184.7637 C   0  0  0  0  0  0  0  0  0  0  0  0
  160.6890  142.0253  184.4300 C   0  0  0  0  0  0  0  0  0  0  0  0
  161.6778  142.3363  185.3382 C   0  0  0  0  0  0  0  0  0  0  0  0
  161.3492  142.6348  186.6419 C   0  0  0  0  0  0  0  0  0  0  0  0
  162.3106  142.9439  187.5539 F   0  0  0  0  0  0  0  0  0  0  0  0
  160.0048  142.6042  186.9734 C   0  0  0  0  0  0  0  0  0  0  0  0
  159.0348  142.2931  186.0577 C   0  0  0  0  0  0  0  0  0  0  0  0
  153.4873  140.5317  182.6145 C   0  0  0  0  0  0  0  0  0  0  0  0
  153.5886  139.3278  183.4591 C   0  0  0  0  0  0  0  0  0  0  0  0
  153.9240  139.3043  184.7929 C   0  0  0  0  0  0  0  0  0  0  0  0
  154.1036  138.1188  185.5088 C   0  0  0  0  0  0  0  0  0  0  0  0
  153.9337  136.9382  184.8364 C   0  0  0  0  0  0  0  0  0  0  0  0
  153.5955  136.9374  183.4961 C   0  0  0  0  0  0  0  0  0  0  0  0
  153.4427  138.0966  182.8854 N   0  0  0  0  0  0  0  0  0  0  0  0
  154.4901  138.1233  186.8908 C   0  0  0  0  0  0  0  0  0  0  0  0
  153.5553  138.4067  187.8676 C   0  0  0  0  0  0  0  0  0  0  0  0
  153.9199  138.4669  189.1669 N   0  0  0  0  0  0  0  0  0  0  0  0
  155.1770  138.2596  189.5633 C   0  0  0  0  0  0  0  0  0  0  0  0
  156.0940  137.9814  188.6272 N   0  0  0  0  0  0  0  0  0  0  0  0
  155.7741  137.9101  187.3197 C   0  0  0  0  0  0  0  0  0  0  0  0
  155.5733  138.3400  190.9879 C   0  0  0  0  0  0  0  0  0  0  0  0
  156.9535  138.2578  191.0109 F   0  0  0  0  0  0  0  0  0  0  0  0
  155.1225  137.2247  191.6972 F   0  0  0  0  0  0  0  0  0  0  0  0
  155.1524  139.5259  191.5337 F   0  0  0  0  0  0  0  0  0  0  0  0
  154.1342  135.6612  185.4514 C   0  0  0  0  0  0  0  0  0  0  0  0
  154.3300  134.6181  185.9730 N   0  0  0  0  0  0  0  0  0  0  0  0
  5  6  1  0  0  0
  6  7  1  0  0  0
  7  8  1  0  0  0
  7  9  1  0  0  0
  9 10  1  0  0  0
 10 11  1  0  0  0
 11 12  1  0  0  0
 12 13  2  0  0  0
 12 14  2  0  0  0
 12 15  1  0  0  0
 15 16  2  0  0  0
 16 17  1  0  0  0
 17 18  2  0  0  0
 18 19  1  0  0  0
 18 20  1  0  0  0
 20 21  2  0  0  0
 10  1  1  0  0  0
  1  2  2  0  0  0
  1  3  1  0  0  0
  3 22  1  0  0  0
 22 23  1  0  0  0
 23 24  2  0  0  0
 24 25  1  0  0  0
 25 29  1  0  0  0
 29 30  2  0  0  0
 30 31  1  0  0  0
 31 32  2  0  0  0
 32 33  1  0  0  0
 33 34  2  0  0  0
 32 35  1  0  0  0
 35 36  1  0  0  0
 35 37  1  0  0  0
 35 38  1  0  0  0
 25 26  2  0  0  0
 26 27  1  0  0  0
 27 28  2  0  0  0
 26 39  1  0  0  0
 39 40  3  0  0  0
 11  6  1  0  0  0
 21 15  1  0  0  0
 28 23  1  0  0  0
 34 29  1  0  0  0
  3  4  1  0  0  0
M  END
> <minimizedAffinity>
-9.76787

> <CNNscore>
0.4489212632

> <CNNaffinity>
7.4152441025

> <CNN_VS>
3.3288607597

> <CNNaffinity_variance>
0.2363458872

$$$$
[H]c1nc(C([H])([H])N([H])C(=O)[C@@]2([H])N(S(=O)(=O)c3c([H])c([H])c(F)c([H])c3[H])[C@@]([H])(C([H])([H])[H])[C@]([H])(F)C2([H])[H])c([H])c(-c2c([H])nc(C(F)(F)F)nc2[H])c1C#N


 40 43  0  0  0  0  0  0  0  0999 V2000
  154.5592  136.1306  187.1558 C   0  0  0  0  0  0  0  0  0  0  0  0
  153.4835  135.5604  186.9163 O   0  0  0  0  0  0  0  0  0  0  0  0
  154.9625  137.1565  186.2733 N   0  0  0  0  0  0  0  0  0  0  0  0
  155.9278  137.5917  186.5066 H   0  0  0  0  0  0  0  0  0  0  0  0
  156.7175  136.8516  191.4765 C   0  0  0  0  0  0  0  0  0  0  0  0
  156.3258  136.1583  190.2433 C   0  0  0  0  0  0  0  0  0  0  0  0
  155.6540  134.8133  190.4383 C   0  0  0  0  0  0  0  0  0  0  0  0
  156.5867  133.8206  190.6624 F   0  0  0  0  0  0  0  0  0  0  0  0
  154.9822  134.5440  189.0768 C   0  0  0  0  0  0  0  0  0  0  0  0
  155.3698  135.7595  188.3049 C   0  0  0  0  0  0  0  0  0  0  0  0
  155.4878  136.7747  189.3103 N   0  0  0  0  0  0  0  0  0  0  0  0
  154.2118  137.7085  189.7433 S   0  0  0  0  0  0  0  0  0  0  0  0
  153.5615  138.2574  188.4855 O   0  0  0  0  0  0  0  0  0  0  0  0
  154.7286  138.9527  190.4528 O   0  0  0  0  0  0  0  0  0  0  0  0
  152.9692  137.0608  190.7643 C   0  0  0  0  0  0  0  0  0  0  0  0
  152.9558  137.2481  192.1219 C   0  0  0  0  0  0  0  0  0  0  0  0
  151.9659  136.7376  192.9336 C   0  0  0  0  0  0  0  0  0  0  0  0
  150.9359  136.0036  192.3886 C   0  0  0  0  0  0  0  0  0  0  0  0
  149.9494  135.4906  193.1729 F   0  0  0  0  0  0  0  0  0  0  0  0
  150.9558  135.8163  191.0165 C   0  0  0  0  0  0  0  0  0  0  0  0
  151.9477  136.3312  190.2244 C   0  0  0  0  0  0  0  0  0  0  0  0
  154.2825  137.6814  185.1572 C   0  0  0  0  0  0  0  0  0  0  0  0
  154.8770  138.8895  184.5573 C   0  0  0  0  0  0  0  0  0  0  0  0
  156.1758  139.3136  184.7169 C   0  0  0  0  0  0  0  0  0  0  0  0
  156.6464  140.5244  184.2047 C   0  0  0  0  0  0  0  0  0  0  0  0
  155.7614  141.3102  183.5160 C   0  0  0  0  0  0  0  0  0  0  0  0
  154.4517  140.9039  183.3421 C   0  0  0  0  0  0  0  0  0  0  0  0
  154.0787  139.7472  183.8548 N   0  0  0  0  0  0  0  0  0  0  0  0
  157.9971  140.9598  184.4181 C   0  0  0  0  0  0  0  0  0  0  0  0
  158.3732  141.4635  185.6481 C   0  0  0  0  0  0  0  0  0  0  0  0
  159.6272  141.9263  185.8437 N   0  0  0  0  0  0  0  0  0  0  0  0
  160.5467  141.9199  184.8768 C   0  0  0  0  0  0  0  0  0  0  0  0
  160.1967  141.4321  183.6792 N   0  0  0  0  0  0  0  0  0  0  0  0
  158.9574  140.9590  183.4404 C   0  0  0  0  0  0  0  0  0  0  0  0
  161.9159  142.4408  185.0934 C   0  0  0  0  0  0  0  0  0  0  0  0
  161.8844  143.7748  184.7303 F   0  0  0  0  0  0  0  0  0  0  0  0
  162.8249  141.8392  184.2204 F   0  0  0  0  0  0  0  0  0  0  0  0
  162.2734  142.3087  186.4110 F   0  0  0  0  0  0  0  0  0  0  0  0
  156.1152  142.5911  182.9836 C   0  0  0  0  0  0  0  0  0  0  0  0
  156.4311  143.6335  182.5232 N   0  0  0  0  0  0  0  0  0  0  0  0
  5  6  1  0  0  0
  6  7  1  0  0  0
  7  8  1  0  0  0
  7  9  1  0  0  0
  9 10  1  0  0  0
 10 11  1  0  0  0
 11 12  1  0  0  0
 12 13  2  0  0  0
 12 14  2  0  0  0
 12 15  1  0  0  0
 15 16  2  0  0  0
 16 17  1  0  0  0
 17 18  2  0  0  0
 18 19  1  0  0  0
 18 20  1  0  0  0
 20 21  2  0  0  0
 10  1  1  0  0  0
  1  2  2  0  0  0
  1  3  1  0  0  0
  3 22  1  0  0  0
 22 23  1  0  0  0
 23 24  2  0  0  0
 24 25  1  0  0  0
 25 29  1  0  0  0
 29 30  2  0  0  0
 30 31  1  0  0  0
 31 32  2  0  0  0
 32 33  1  0  0  0
 33 34  2  0  0  0
 32 35  1  0  0  0
 35 36  1  0  0  0
 35 37  1  0  0  0
 35 38  1  0  0  0
 25 26  2  0  0  0
 26 27  1  0  0  0
 27 28  2  0  0  0
 26 39  1  0  0  0
 39 40  3  0  0  0
 11  6  1  0  0  0
 21 15  1  0  0  0
 28 23  1  0  0  0
 34 29  1  0  0  0
  3  4  1  0  0  0
M  END
> <minimizedAffinity>
-9.32142

> <CNNscore>
0.3429443240

> <CNNaffinity>
6.8330612183

> <CNN_VS>
2.3433594704

> <CNNaffinity_variance>
0.1498811245

$$$$
[H]c1nc(C([H])([H])N([H])C(=O)[C@@]2([H])N(S(=O)(=O)c3c([H])c([H])c(F)c([H])c3[H])[C@@]([H])(C([H])([H])[H])[C@]([H])(F)C2([H])[H])c([H])c(-c2c([H])nc(C(F)(F)F)nc2[H])c1C#N


 40 43  0  0  0  0  0  0  0  0999 V2000
  153.6915  137.6686  187.3055 C   0  0  0  0  0  0  0  0  0  0  0  0
  152.7054  137.1489  186.7604 O   0  0  0  0  0  0  0  0  0  0  0  0
  154.7073  138.1755  186.4659 N   0  0  0  0  0  0  0  0  0  0  0  0
  155.5624  138.5810  186.9951 H   0  0  0  0  0  0  0  0  0  0  0  0
  154.2281  135.9042  191.8272 C   0  0  0  0  0  0  0  0  0  0  0  0
  154.0242  136.8926  190.7611 C   0  0  0  0  0  0  0  0  0  0  0  0
  155.0092  138.0448  190.7451 C   0  0  0  0  0  0  0  0  0  0  0  0
  154.6568  139.0117  191.6653 F   0  0  0  0  0  0  0  0  0  0  0  0
  154.8444  138.6416  189.3330 C   0  0  0  0  0  0  0  0  0  0  0  0
  153.7932  137.7568  188.7537 C   0  0  0  0  0  0  0  0  0  0  0  0
  154.0018  136.5042  189.4190 N   0  0  0  0  0  0  0  0  0  0  0  0
  155.0077  135.3630  188.8079 S   0  0  0  0  0  0  0  0  0  0  0  0
  155.9985  136.0370  187.8749 O   0  0  0  0  0  0  0  0  0  0  0  0
  154.2136  134.4465  187.8871 O   0  0  0  0  0  0  0  0  0  0  0  0
  155.8859  134.3178  189.8768 C   0  0  0  0  0  0  0  0  0  0  0  0
  155.3991  133.1050  190.2896 C   0  0  0  0  0  0  0  0  0  0  0  0
  156.0985  132.2714  191.1355 C   0  0  0  0  0  0  0  0  0  0  0  0
  157.3386  132.6451  191.6036 C   0  0  0  0  0  0  0  0  0  0  0  0
  158.0448  131.8368  192.4399 F   0  0  0  0  0  0  0  0  0  0  0  0
  157.8244  133.8724  191.1844 C   0  0  0  0  0  0  0  0  0  0  0  0
  157.1157  134.6885  190.3429 C   0  0  0  0  0  0  0  0  0  0  0  0
  154.7480  138.2281  185.0590 C   0  0  0  0  0  0  0  0  0  0  0  0
  155.5722  139.3065  184.4839 C   0  0  0  0  0  0  0  0  0  0  0  0
  156.7857  139.7386  184.9663 C   0  0  0  0  0  0  0  0  0  0  0  0
  157.4657  140.8362  184.4344 C   0  0  0  0  0  0  0  0  0  0  0  0
  156.8832  141.4983  183.3870 C   0  0  0  0  0  0  0  0  0  0  0  0
  155.6647  141.0813  182.8849 C   0  0  0  0  0  0  0  0  0  0  0  0
  155.0808  140.0360  183.4386 N   0  0  0  0  0  0  0  0  0  0  0  0
  158.7130  141.2883  184.9815 C   0  0  0  0  0  0  0  0  0  0  0  0
  158.7569  141.8097  186.2599 C   0  0  0  0  0  0  0  0  0  0  0  0
  159.9151  142.2881  186.7645 N   0  0  0  0  0  0  0  0  0  0  0  0
  161.0521  142.2808  186.0662 C   0  0  0  0  0  0  0  0  0  0  0  0
  161.0250  141.7759  184.8256 N   0  0  0  0  0  0  0  0  0  0  0  0
  159.8922  141.2869  184.2831 C   0  0  0  0  0  0  0  0  0  0  0  0
  162.3159  142.8187  186.6198 C   0  0  0  0  0  0  0  0  0  0  0  0
  162.4748  142.2322  187.8620 F   0  0  0  0  0  0  0  0  0  0  0  0
  162.2117  144.1893  186.8664 F   0  0  0  0  0  0  0  0  0  0  0  0
  163.3686  142.5021  185.7996 F   0  0  0  0  0  0  0  0  0  0  0  0
  157.4626  142.6626  182.7887 C   0  0  0  0  0  0  0  0  0  0  0  0
  157.9197  143.6444  182.3138 N   0  0  0  0  0  0  0  0  0  0  0  0
  5  6  1  0  0  0
  6  7  1  0  0  0
  7  8  1  0  0  0
  7  9  1  0  0  0
  9 10  1  0  0  0
 10 11  1  0  0  0
 11 12  1  0  0  0
 12 13  2  0  0  0
 12 14  2  0  0  0
 12 15  1  0  0  0
 15 16  2  0  0  0
 16 17  1  0  0  0
 17 18  2  0  0  0
 18 19  1  0  0  0
 18 20  1  0  0  0
 20 21  2  0  0  0
 10  1  1  0  0  0
  1  2  2  0  0  0
  1  3  1  0  0  0
  3 22  1  0  0  0
 22 23  1  0  0  0
 23 24  2  0  0  0
 24 25  1  0  0  0
 25 29  1  0  0  0
 29 30  2  0  0  0
 30 31  1  0  0  0
 31 32  2  0  0  0
 32 33  1  0  0  0
 33 34  2  0  0  0
 32 35  1  0  0  0
 35 36  1  0  0  0
 35 37  1  0  0  0
 35 38  1  0  0  0
 25 26  2  0  0  0
 26 27  1  0  0  0
 27 28  2  0  0  0
 26 39  1  0  0  0
 39 40  3  0  0  0
 11  6  1  0  0  0
 21 15  1  0  0  0
 28 23  1  0  0  0
 34 29  1  0  0  0
  3  4  1  0  0  0
M  END
> <minimizedAffinity>
-9.32066

> <CNNscore>
0.3405223489

> <CNNaffinity>
7.0962934494

> <CNN_VS>
2.4164464474

> <CNNaffinity_variance>
0.1022819057

$$$$
[H]c1nc(C([H])([H])N([H])C(=O)[C@@]2([H])N(S(=O)(=O)c3c([H])c([H])c(F)c([H])c3[H])[C@@]([H])(C([H])([H])[H])[C@]([H])(F)C2([H])[H])c([H])c(-c2c([H])nc(C(F)(F)F)nc2[H])c1C#N


 40 43  0  0  0  0  0  0  0  0999 V2000
  155.9885  136.9212  188.3099 C   0  0  0  0  0  0  0  0  0  0  0  0
  155.5267  137.8477  188.9940 O   0  0  0  0  0  0  0  0  0  0  0  0
  155.4827  136.7642  187.0010 N   0  0  0  0  0  0  0  0  0  0  0  0
  155.8914  135.9157  186.4637 H   0  0  0  0  0  0  0  0  0  0  0  0
  157.7862  133.4940  191.2881 C   0  0  0  0  0  0  0  0  0  0  0  0
  157.7623  134.4999  190.2192 C   0  0  0  0  0  0  0  0  0  0  0  0
  158.2126  134.0120  188.8563 C   0  0  0  0  0  0  0  0  0  0  0  0
  159.5900  133.9946  188.7656 F   0  0  0  0  0  0  0  0  0  0  0  0
  157.6804  135.0910  187.8920 C   0  0  0  0  0  0  0  0  0  0  0  0
  157.0152  136.0352  188.8353 C   0  0  0  0  0  0  0  0  0  0  0  0
  156.5873  135.1911  189.9123 N   0  0  0  0  0  0  0  0  0  0  0  0
  155.1116  134.4771  189.9109 S   0  0  0  0  0  0  0  0  0  0  0  0
  155.2371  133.0993  190.5373 O   0  0  0  0  0  0  0  0  0  0  0  0
  154.7069  134.1823  188.4729 O   0  0  0  0  0  0  0  0  0  0  0  0
  153.7561  135.2843  190.6302 C   0  0  0  0  0  0  0  0  0  0  0  0
  153.8087  135.8478  191.8784 C   0  0  0  0  0  0  0  0  0  0  0  0
  152.7332  136.4938  192.4489 C   0  0  0  0  0  0  0  0  0  0  0  0
  151.5431  136.5919  191.7628 C   0  0  0  0  0  0  0  0  0  0  0  0
  150.4695  137.2250  192.3088 F   0  0  0  0  0  0  0  0  0  0  0  0
  151.4957  136.0191  190.5028 C   0  0  0  0  0  0  0  0  0  0  0  0
  152.5746  135.3808  189.9507 C   0  0  0  0  0  0  0  0  0  0  0  0
  154.5414  137.5563  186.3153 C   0  0  0  0  0  0  0  0  0  0  0  0
  155.1027  138.5659  185.3995 C   0  0  0  0  0  0  0  0  0  0  0  0
  156.3776  139.0800  185.4494 C   0  0  0  0  0  0  0  0  0  0  0  0
  156.8124  140.1115  184.6146 C   0  0  0  0  0  0  0  0  0  0  0  0
  155.9161  140.6205  183.7133 C   0  0  0  0  0  0  0  0  0  0  0  0
  154.6299  140.1188  183.6443 C   0  0  0  0  0  0  0  0  0  0  0  0
  154.2904  139.1437  184.4653 N   0  0  0  0  0  0  0  0  0  0  0  0
  158.1371  140.6545  184.7136 C   0  0  0  0  0  0  0  0  0  0  0  0
  158.4778  141.4502  185.7901 C   0  0  0  0  0  0  0  0  0  0  0  0
  159.7046  142.0106  185.8658 N   0  0  0  0  0  0  0  0  0  0  0  0
  160.6301  141.8267  184.9223 C   0  0  0  0  0  0  0  0  0  0  0  0
  160.3145  141.0553  183.8736 N   0  0  0  0  0  0  0  0  0  0  0  0
  159.1031  140.4756  183.7581 C   0  0  0  0  0  0  0  0  0  0  0  0
  161.9689  142.4544  185.0043 C   0  0  0  0  0  0  0  0  0  0  0  0
  161.8085  143.7637  184.5893 F   0  0  0  0  0  0  0  0  0  0  0  0
  162.8494  141.8785  184.0860 F   0  0  0  0  0  0  0  0  0  0  0  0
  162.4375  142.4115  186.2926 F   0  0  0  0  0  0  0  0  0  0  0  0
  156.2318  141.7076  182.8371 C   0  0  0  0  0  0  0  0  0  0  0  0
  156.5224  142.5891  182.1044 N   0  0  0  0  0  0  0  0  0  0  0  0
  5  6  1  0  0  0
  6  7  1  0  0  0
  7  8  1  0  0  0
  7  9  1  0  0  0
  9 10  1  0  0  0
 10 11  1  0  0  0
 11 12  1  0  0  0
 12 13  2  0  0  0
 12 14  2  0  0  0
 12 15  1  0  0  0
 15 16  2  0  0  0
 16 17  1  0  0  0
 17 18  2  0  0  0
 18 19  1  0  0  0
 18 20  1  0  0  0
 20 21  2  0  0  0
 10  1  1  0  0  0
  1  2  2  0  0  0
  1  3  1  0  0  0
  3 22  1  0  0  0
 22 23  1  0  0  0
 23 24  2  0  0  0
 24 25  1  0  0  0
 25 29  1  0  0  0
 29 30  2  0  0  0
 30 31  1  0  0  0
 31 32  2  0  0  0
 32 33  1  0  0  0
 33 34  2  0  0  0
 32 35  1  0  0  0
 35 36  1  0  0  0
 35 37  1  0  0  0
 35 38  1  0  0  0
 25 26  2  0  0  0
 26 27  1  0  0  0
 27 28  2  0  0  0
 26 39  1  0  0  0
 39 40  3  0  0  0
 11  6  1  0  0  0
 21 15  1  0  0  0
 28 23  1  0  0  0
 34 29  1  0  0  0
  3  4  1  0  0  0
M  END
> <minimizedAffinity>
-9.33971

> <CNNscore>
0.3399352133

> <CNNaffinity>
6.9346818924

> <CNN_VS>
2.3573424816

> <CNNaffinity_variance>
0.0773182958

$$$$
[H]c1nc(C([H])([H])N([H])C(=O)[C@@]2([H])N(S(=O)(=O)c3c([H])c([H])c(F)c([H])c3[H])[C@@]([H])(C([H])([H])[H])[C@]([H])(F)C2([H])[H])c([H])c(-c2c([H])nc(C(F)(F)F)nc2[H])c1C#N


 40 43  0  0  0  0  0  0  0  0999 V2000
  155.1818  137.4533  187.4555 C   0  0  0  0  0  0  0  0  0  0  0  0
  155.9971  136.7401  186.8502 O   0  0  0  0  0  0  0  0  0  0  0  0
  154.2272  138.1500  186.6827 N   0  0  0  0  0  0  0  0  0  0  0  0
  153.5670  138.7886  187.2590 H   0  0  0  0  0  0  0  0  0  0  0  0
  153.3450  137.0504  191.9622 C   0  0  0  0  0  0  0  0  0  0  0  0
  154.3106  137.3690  190.9034 C   0  0  0  0  0  0  0  0  0  0  0  0
  155.6751  136.7254  191.0521 C   0  0  0  0  0  0  0  0  0  0  0  0
  156.4628  137.4316  191.9390 F   0  0  0  0  0  0  0  0  0  0  0  0
  156.2936  136.8605  189.6462 C   0  0  0  0  0  0  0  0  0  0  0  0
  155.2060  137.5621  188.9056 C   0  0  0  0  0  0  0  0  0  0  0  0
  154.0107  137.1193  189.5617 N   0  0  0  0  0  0  0  0  0  0  0  0
  153.2032  135.7812  189.0664 S   0  0  0  0  0  0  0  0  0  0  0  0
  153.6906  134.5916  189.8749 O   0  0  0  0  0  0  0  0  0  0  0  0
  153.6284  135.4464  187.6431 O   0  0  0  0  0  0  0  0  0  0  0  0
  151.4695  135.7661  189.0606 C   0  0  0  0  0  0  0  0  0  0  0  0
  150.7328  135.9291  187.9164 C   0  0  0  0  0  0  0  0  0  0  0  0
  149.3547  135.9125  187.9102 C   0  0  0  0  0  0  0  0  0  0  0  0
  148.6609  135.7286  189.0856 C   0  0  0  0  0  0  0  0  0  0  0  0
  147.3004  135.7097  189.1008 F   0  0  0  0  0  0  0  0  0  0  0  0
  149.4108  135.5662  190.2386 C   0  0  0  0  0  0  0  0  0  0  0  0
  150.7804  135.5852  190.2266 C   0  0  0  0  0  0  0  0  0  0  0  0
  154.0217  138.1165  185.2898 C   0  0  0  0  0  0  0  0  0  0  0  0
  154.7111  139.1656  184.5171 C   0  0  0  0  0  0  0  0  0  0  0  0
  156.0178  139.5622  184.6828 C   0  0  0  0  0  0  0  0  0  0  0  0
  156.5785  140.6352  183.9871 C   0  0  0  0  0  0  0  0  0  0  0  0
  155.7769  141.3098  183.1055 C   0  0  0  0  0  0  0  0  0  0  0  0
  154.4611  140.9284  182.9217 C   0  0  0  0  0  0  0  0  0  0  0  0
  154.0004  139.9048  183.6144 N   0  0  0  0  0  0  0  0  0  0  0  0
  157.9344  141.0510  184.2070 C   0  0  0  0  0  0  0  0  0  0  0  0
  158.3206  141.5149  185.4495 C   0  0  0  0  0  0  0  0  0  0  0  0
  159.5799  141.9596  185.6528 N   0  0  0  0  0  0  0  0  0  0  0  0
  160.4952  141.9726  184.6819 C   0  0  0  0  0  0  0  0  0  0  0  0
  160.1354  141.5233  183.4723 N   0  0  0  0  0  0  0  0  0  0  0  0
  158.8904  141.0694  183.2254 C   0  0  0  0  0  0  0  0  0  0  0  0
  161.8704  142.4736  184.9074 C   0  0  0  0  0  0  0  0  0  0  0  0
  162.6961  141.7157  184.0974 F   0  0  0  0  0  0  0  0  0  0  0  0
  162.2906  142.2138  186.2136 F   0  0  0  0  0  0  0  0  0  0  0  0
  161.9548  143.8012  184.5733 F   0  0  0  0  0  0  0  0  0  0  0  0
  156.2259  142.4523  182.3691 C   0  0  0  0  0  0  0  0  0  0  0  0
  156.5632  143.4060  181.7566 N   0  0  0  0  0  0  0  0  0  0  0  0
  5  6  1  0  0  0
  6  7  1  0  0  0
  7  8  1  0  0  0
  7  9  1  0  0  0
  9 10  1  0  0  0
 10 11  1  0  0  0
 11 12  1  0  0  0
 12 13  2  0  0  0
 12 14  2  0  0  0
 12 15  1  0  0  0
 15 16  2  0  0  0
 16 17  1  0  0  0
 17 18  2  0  0  0
 18 19  1  0  0  0
 18 20  1  0  0  0
 20 21  2  0  0  0
 10  1  1  0  0  0
  1  2  2  0  0  0
  1  3  1  0  0  0
  3 22  1  0  0  0
 22 23  1  0  0  0
 23 24  2  0  0  0
 24 25  1  0  0  0
 25 29  1  0  0  0
 29 30  2  0  0  0
 30 31  1  0  0  0
 31 32  2  0  0  0
 32 33  1  0  0  0
 33 34  2  0  0  0
 32 35  1  0  0  0
 35 36  1  0  0  0
 35 37  1  0  0  0
 35 38  1  0  0  0
 25 26  2  0  0  0
 26 27  1  0  0  0
 27 28  2  0  0  0
 26 39  1  0  0  0
 39 40  3  0  0  0
 11  6  1  0  0  0
 21 15  1  0  0  0
 28 23  1  0  0  0
 34 29  1  0  0  0
  3  4  1  0  0  0
M  END
> <minimizedAffinity>
-8.82454

> <CNNscore>
0.3235742152

> <CNNaffinity>
6.9220838547

> <CNN_VS>
2.2398078442

> <CNNaffinity_variance>
0.0454853997

$$$$
[H]c1nc(C([H])([H])N([H])C(=O)[C@@]2([H])N(S(=O)(=O)c3c([H])c([H])c(F)c([H])c3[H])[C@@]([H])(C([H])([H])[H])[C@]([H])(F)C2([H])[H])c([H])c(-c2c([H])nc(C(F)(F)F)nc2[H])c1C#N


 40 43  0  0  0  0  0  0  0  0999 V2000
  153.8503  138.3050  187.6470 C   0  0  0  0  0  0  0  0  0  0  0  0
  152.9301  139.0724  187.3246 O   0  0  0  0  0  0  0  0  0  0  0  0
  154.4792  137.5737  186.6157 N   0  0  0  0  0  0  0  0  0  0  0  0
  155.2475  136.8897  186.9585 H   0  0  0  0  0  0  0  0  0  0  0  0
  153.4404  136.7934  192.2724 C   0  0  0  0  0  0  0  0  0  0  0  0
  154.0114  137.4693  191.1010 C   0  0  0  0  0  0  0  0  0  0  0  0
  155.4394  137.0891  190.7623 C   0  0  0  0  0  0  0  0  0  0  0  0
  156.3370  137.7750  191.5558 F   0  0  0  0  0  0  0  0  0  0  0  0
  155.6091  137.5786  189.3101 C   0  0  0  0  0  0  0  0  0  0  0  0
  154.2681  138.1692  189.0335 C   0  0  0  0  0  0  0  0  0  0  0  0
  153.3829  137.3967  189.8551 N   0  0  0  0  0  0  0  0  0  0  0  0
  152.6673  136.0302  189.2997 S   0  0  0  0  0  0  0  0  0  0  0  0
  153.7439  135.0944  188.7786 O   0  0  0  0  0  0  0  0  0  0  0  0
  151.8537  136.3685  188.0579 O   0  0  0  0  0  0  0  0  0  0  0  0
  151.6070  135.1251  190.3307 C   0  0  0  0  0  0  0  0  0  0  0  0
  150.3814  135.5946  190.7253 C   0  0  0  0  0  0  0  0  0  0  0  0
  149.5360  134.8738  191.5408 C   0  0  0  0  0  0  0  0  0  0  0  0
  149.9103  133.6290  191.9958 C   0  0  0  0  0  0  0  0  0  0  0  0
  149.0903  132.9018  192.8023 F   0  0  0  0  0  0  0  0  0  0  0  0
  151.1506  133.1608  191.5951 C   0  0  0  0  0  0  0  0  0  0  0  0
  151.9784  133.8906  190.7837 C   0  0  0  0  0  0  0  0  0  0  0  0
  154.2470  137.6237  185.2274 C   0  0  0  0  0  0  0  0  0  0  0  0
  154.8539  138.7651  184.5191 C   0  0  0  0  0  0  0  0  0  0  0  0
  156.1425  139.2197  184.6774 C   0  0  0  0  0  0  0  0  0  0  0  0
  156.6223  140.3720  184.0513 C   0  0  0  0  0  0  0  0  0  0  0  0
  155.7573  141.0663  183.2483 C   0  0  0  0  0  0  0  0  0  0  0  0
  154.4582  140.6277  183.0736 C   0  0  0  0  0  0  0  0  0  0  0  0
  154.0755  139.5303  183.6976 N   0  0  0  0  0  0  0  0  0  0  0  0
  157.9607  140.8443  184.2636 C   0  0  0  0  0  0  0  0  0  0  0  0
  158.2929  141.4641  185.4526 C   0  0  0  0  0  0  0  0  0  0  0  0
  159.5349  141.9607  185.6417 N   0  0  0  0  0  0  0  0  0  0  0  0
  160.4837  141.8788  184.7071 C   0  0  0  0  0  0  0  0  0  0  0  0
  160.1765  141.2781  183.5498 N   0  0  0  0  0  0  0  0  0  0  0  0
  158.9506  140.7675  183.3190 C   0  0  0  0  0  0  0  0  0  0  0  0
  161.8396  142.4368  184.9152 C   0  0  0  0  0  0  0  0  0  0  0  0
  162.1158  142.2905  186.2623 F   0  0  0  0  0  0  0  0  0  0  0  0
  161.8566  143.8132  184.6795 F   0  0  0  0  0  0  0  0  0  0  0  0
  162.7575  141.7540  184.1585 F   0  0  0  0  0  0  0  0  0  0  0  0
  156.1205  142.2846  182.5904 C   0  0  0  0  0  0  0  0  0  0  0  0
  156.4047  143.3091  182.0727 N   0  0  0  0  0  0  0  0  0  0  0  0
  5  6  1  0  0  0
  6  7  1  0  0  0
  7  8  1  0  0  0
  7  9  1  0  0  0
  9 10  1  0  0  0
 10 11  1  0  0  0
 11 12  1  0  0  0
 12 13  2  0  0  0
 12 14  2  0  0  0
 12 15  1  0  0  0
 15 16  2  0  0  0
 16 17  1  0  0  0
 17 18  2  0  0  0
 18 19  1  0  0  0
 18 20  1  0  0  0
 20 21  2  0  0  0
 10  1  1  0  0  0
  1  2  2  0  0  0
  1  3  1  0  0  0
  3 22  1  0  0  0
 22 23  1  0  0  0
 23 24  2  0  0  0
 24 25  1  0  0  0
 25 29  1  0  0  0
 29 30  2  0  0  0
 30 31  1  0  0  0
 31 32  2  0  0  0
 32 33  1  0  0  0
 33 34  2  0  0  0
 32 35  1  0  0  0
 35 36  1  0  0  0
 35 37  1  0  0  0
 35 38  1  0  0  0
 25 26  2  0  0  0
 26 27  1  0  0  0
 27 28  2  0  0  0
 26 39  1  0  0  0
 39 40  3  0  0  0
 11  6  1  0  0  0
 21 15  1  0  0  0
 28 23  1  0  0  0
 34 29  1  0  0  0
  3  4  1  0  0  0
M  END
> <minimizedAffinity>
-8.99833

> <CNNscore>
0.3041931987

> <CNNaffinity>
6.7996392250

> <CNN_VS>
2.0684039593

> <CNNaffinity_variance>
0.0355818719

$$$$
[H]c1c([H])c([H])c(C(F)(F)F)c(-c2c(OC([H])([H])[H])c([H])c3c(c([H])nn3[H])c2[H])c1[H]


 22 24  0  0  0  0  0  0  0  0999 V2000
  158.7001  142.0967  184.7364 C   0  0  0  0  0  0  0  0  0  0  0  0
  159.1139  142.1769  186.0544 C   0  0  0  0  0  0  0  0  0  0  0  0
  160.4396  142.3920  186.3840 C   0  0  0  0  0  0  0  0  0  0  0  0
  161.0949  142.5136  187.5708 N   0  0  0  0  0  0  0  0  0  0  0  0
  162.3861  142.7213  187.3033 N   0  0  0  0  0  0  0  0  0  0  0  0
  162.5594  142.7310  185.9629 C   0  0  0  0  0  0  0  0  0  0  0  0
  161.3378  142.5239  185.3559 C   0  0  0  0  0  0  0  0  0  0  0  0
  160.9148  142.4413  184.0378 C   0  0  0  0  0  0  0  0  0  0  0  0
  159.5855  142.2248  183.6796 C   0  0  0  0  0  0  0  0  0  0  0  0
  160.6566  142.4541  188.5323 H   0  0  0  0  0  0  0  0  0  0  0  0
  159.1658  142.2319  182.2859 C   0  0  0  0  0  0  0  0  0  0  0  0
  159.0413  140.9877  181.6755 C   0  0  0  0  0  0  0  0  0  0  0  0
  158.5607  140.8199  180.3942 C   0  0  0  0  0  0  0  0  0  0  0  0
  158.1905  141.9216  179.6928 C   0  0  0  0  0  0  0  0  0  0  0  0
  158.3039  143.1615  180.2707 C   0  0  0  0  0  0  0  0  0  0  0  0
  158.7905  143.3297  181.5621 C   0  0  0  0  0  0  0  0  0  0  0  0
  158.9519  144.6948  182.0647 C   0  0  0  0  0  0  0  0  0  0  0  0
  159.8161  144.7632  183.0895 F   0  0  0  0  0  0  0  0  0  0  0  0
  159.3264  145.5732  181.0580 F   0  0  0  0  0  0  0  0  0  0  0  0
  157.7171  145.1570  182.5330 F   0  0  0  0  0  0  0  0  0  0  0  0
  156.6873  140.6791  184.4115 C   0  0  0  0  0  0  0  0  0  0  0  0
  157.3823  141.8836  184.4001 O   0  0  0  0  0  0  0  0  0  0  0  0
 21 22  1  0  0  0
 22  1  1  0  0  0
  1  2  2  0  0  0
  2  3  1  0  0  0
  3  4  1  0  0  0
  4  5  1  0  0  0
  5  6  2  0  0  0
  6  7  1  0  0  0
  7  8  1  0  0  0
  8  9  2  0  0  0
  9 11  1  0  0  0
 11 12  2  0  0  0
 12 13  1  0  0  0
 13 14  2  0  0  0
 14 15  1  0  0  0
 15 16  2  0  0  0
 16 17  1  0  0  0
 17 18  1  0  0  0
 17 19  1  0  0  0
 17 20  1  0  0  0
  9  1  1  0  0  0
 16 11  1  0  0  0
  7  3  2  0  0  0
  4 10  1  0  0  0
M  END
> <minimizedAffinity>
-9.20046

> <CNNscore>
0.7705499530

> <CNNaffinity>
6.5453290939

> <CNN_VS>
5.0435028076

> <CNNaffinity_variance>
0.1065989137

$$$$
[H]c1c([H])c([H])c(C(F)(F)F)c(-c2c(OC([H])([H])[H])c([H])c3c(c([H])nn3[H])c2[H])c1[H]


 22 24  0  0  0  0  0  0  0  0999 V2000
  159.1063  141.7814  182.6726 C   0  0  0  0  0  0  0  0  0  0  0  0
  160.4583  141.7647  182.9670 C   0  0  0  0  0  0  0  0  0  0  0  0
  160.9267  142.0721  184.2312 C   0  0  0  0  0  0  0  0  0  0  0  0
  162.1741  142.1252  184.7734 N   0  0  0  0  0  0  0  0  0  0  0  0
  162.0461  142.4752  186.0552 N   0  0  0  0  0  0  0  0  0  0  0  0
  160.7347  142.6471  186.3332 C   0  0  0  0  0  0  0  0  0  0  0  0
  160.0023  142.3970  185.1910 C   0  0  0  0  0  0  0  0  0  0  0  0
  158.6492  142.4123  184.8873 C   0  0  0  0  0  0  0  0  0  0  0  0
  158.1521  142.1070  183.6217 C   0  0  0  0  0  0  0  0  0  0  0  0
  163.0815  141.9241  184.2671 H   0  0  0  0  0  0  0  0  0  0  0  0
  156.7208  142.0481  183.3641 C   0  0  0  0  0  0  0  0  0  0  0  0
  156.1292  143.2234  182.9115 C   0  0  0  0  0  0  0  0  0  0  0  0
  154.8068  143.3048  182.5300 C   0  0  0  0  0  0  0  0  0  0  0  0
  154.0436  142.1843  182.5988 C   0  0  0  0  0  0  0  0  0  0  0  0
  154.6017  141.0115  183.0428 C   0  0  0  0  0  0  0  0  0  0  0  0
  155.9348  140.9310  183.4290 C   0  0  0  0  0  0  0  0  0  0  0  0
  156.4206  139.6588  183.9654 C   0  0  0  0  0  0  0  0  0  0  0  0
  157.4209  139.1441  183.2330 F   0  0  0  0  0  0  0  0  0  0  0  0
  156.8044  139.7730  185.2940 F   0  0  0  0  0  0  0  0  0  0  0  0
  155.3753  138.7288  183.9500 F   0  0  0  0  0  0  0  0  0  0  0  0
  158.8013  142.2049  180.2448 C   0  0  0  0  0  0  0  0  0  0  0  0
  158.6320  141.4759  181.4170 O   0  0  0  0  0  0  0  0  0  0  0  0
 21 22  1  0  0  0
 22  1  1  0  0  0
  1  2  2  0  0  0
  2  3  1  0  0  0
  3  4  1  0  0  0
  4  5  1  0  0  0
  5  6  2  0  0  0
  6  7  1  0  0  0
  7  8  1  0  0  0
  8  9  2  0  0  0
  9 11  1  0  0  0
 11 12  2  0  0  0
 12 13  1  0  0  0
 13 14  2  0  0  0
 14 15  1  0  0  0
 15 16  2  0  0  0
 16 17  1  0  0  0
 17 18  1  0  0  0
 17 19  1  0  0  0
 17 20  1  0  0  0
  9  1  1  0  0  0
 16 11  1  0  0  0
  7  3  2  0  0  0
  4 10  1  0  0  0
M  END
> <minimizedAffinity>
-8.16358

> <CNNscore>
0.6331710815

> <CNNaffinity>
6.2628812790

> <CNN_VS>
3.9654753208

> <CNNaffinity_variance>
0.0633386523

$$$$
[H]c1c([H])c([H])c(C(F)(F)F)c(-c2c(OC([H])([H])[H])c([H])c3c(c([H])nn3[H])c2[H])c1[H]


 22 24  0  0  0  0  0  0  0  0999 V2000
  159.3753  141.5470  183.0701 C   0  0  0  0  0  0  0  0  0  0  0  0
  160.6983  141.6872  183.4507 C   0  0  0  0  0  0  0  0  0  0  0  0
  161.0441  142.1152  184.7193 C   0  0  0  0  0  0  0  0  0  0  0  0
  162.2390  142.3286  185.3354 N   0  0  0  0  0  0  0  0  0  0  0  0
  161.9874  142.7383  186.5806 N   0  0  0  0  0  0  0  0  0  0  0  0
  160.6491  142.7901  186.7625 C   0  0  0  0  0  0  0  0  0  0  0  0
  160.0271  142.3990  185.5947 C   0  0  0  0  0  0  0  0  0  0  0  0
  158.7038  142.2567  185.2048 C   0  0  0  0  0  0  0  0  0  0  0  0
  158.3293  141.8278  183.9329 C   0  0  0  0  0  0  0  0  0  0  0  0
  163.1951  142.1927  184.9024 H   0  0  0  0  0  0  0  0  0  0  0  0
  156.9325  141.6064  183.5888 C   0  0  0  0  0  0  0  0  0  0  0  0
  156.3354  140.4772  184.1405 C   0  0  0  0  0  0  0  0  0  0  0  0
  154.9971  140.1814  183.9912 C   0  0  0  0  0  0  0  0  0  0  0  0
  154.2230  141.0328  183.2711 C   0  0  0  0  0  0  0  0  0  0  0  0
  154.7866  142.1540  182.7149 C   0  0  0  0  0  0  0  0  0  0  0  0
  156.1367  142.4502  182.8644 C   0  0  0  0  0  0  0  0  0  0  0  0
  156.6653  143.6240  182.1681 C   0  0  0  0  0  0  0  0  0  0  0  0
  157.5095  144.3345  182.9324 F   0  0  0  0  0  0  0  0  0  0  0  0
  157.2725  143.2810  180.9685 F   0  0  0  0  0  0  0  0  0  0  0  0
  155.6031  144.4693  181.8288 F   0  0  0  0  0  0  0  0  0  0  0  0
  158.7337  139.8228  181.4021 C   0  0  0  0  0  0  0  0  0  0  0  0
  159.0229  141.1207  181.8095 O   0  0  0  0  0  0  0  0  0  0  0  0
 21 22  1  0  0  0
 22  1  1  0  0  0
  1  2  2  0  0  0
  2  3  1  0  0  0
  3  4  1  0  0  0
  4  5  1  0  0  0
  5  6  2  0  0  0
  6  7  1  0  0  0
  7  8  1  0  0  0
  8  9  2  0  0  0
  9 11  1  0  0  0
 11 12  2  0  0  0
 12 13  1  0  0  0
 13 14  2  0  0  0
 14 15  1  0  0  0
 15 16  2  0  0  0
 16 17  1  0  0  0
 17 18  1  0  0  0
 17 19  1  0  0  0
 17 20  1  0  0  0
  9  1  1  0  0  0
 16 11  1  0  0  0
  7  3  2  0  0  0
  4 10  1  0  0  0
M  END
> <minimizedAffinity>
-8.47621

> <CNNscore>
0.5443755984

> <CNNaffinity>
6.1802554131

> <CNN_VS>
3.3643801212

> <CNNaffinity_variance>
0.1198094487

$$$$
[H]c1c([H])c([H])c(C(F)(F)F)c(-c2c(OC([H])([H])[H])c([H])c3c(c([H])nn3[H])c2[H])c1[H]


 22 24  0  0  0  0  0  0  0  0999 V2000
  155.9225  134.0092  187.9293 C   0  0  0  0  0  0  0  0  0  0  0  0
  156.5815  132.8842  187.4655 C   0  0  0  0  0  0  0  0  0  0  0  0
  157.9622  132.8080  187.4557 C   0  0  0  0  0  0  0  0  0  0  0  0
  158.8375  131.8410  187.0665 N   0  0  0  0  0  0  0  0  0  0  0  0
  160.0725  132.2984  187.2842 N   0  0  0  0  0  0  0  0  0  0  0  0
  159.9929  133.5435  187.8040 C   0  0  0  0  0  0  0  0  0  0  0  0
  158.6628  133.8906  187.9229 C   0  0  0  0  0  0  0  0  0  0  0  0
  157.9945  135.0144  188.3851 C   0  0  0  0  0  0  0  0  0  0  0  0
  156.6047  135.1161  188.4051 C   0  0  0  0  0  0  0  0  0  0  0  0
  158.5819  130.8961  186.6641 H   0  0  0  0  0  0  0  0  0  0  0  0
  155.9383  136.2759  188.9788 C   0  0  0  0  0  0  0  0  0  0  0  0
  155.6440  137.3130  188.0991 C   0  0  0  0  0  0  0  0  0  0  0  0
  154.9298  138.4340  188.4651 C   0  0  0  0  0  0  0  0  0  0  0  0
  154.4918  138.5321  189.7462 C   0  0  0  0  0  0  0  0  0  0  0  0
  154.7690  137.5237  190.6353 C   0  0  0  0  0  0  0  0  0  0  0  0
  155.4910  136.3946  190.2655 C   0  0  0  0  0  0  0  0  0  0  0  0
  155.8077  135.4102  191.3013 C   0  0  0  0  0  0  0  0  0  0  0  0
  155.2689  134.2077  191.0453 F   0  0  0  0  0  0  0  0  0  0  0  0
  157.1761  135.2937  191.4998 F   0  0  0  0  0  0  0  0  0  0  0  0
  155.2822  135.8479  192.5220 F   0  0  0  0  0  0  0  0  0  0  0  0
  153.6921  134.1804  186.8510 C   0  0  0  0  0  0  0  0  0  0  0  0
  154.5484  134.0925  187.9432 O   0  0  0  0  0  0  0  0  0  0  0  0
 21 22  1  0  0  0
 22  1  1  0  0  0
  1  2  2  0  0  0
  2  3  1  0  0  0
  3  4  1  0  0  0
  4  5  1  0  0  0
  5  6  2  0  0  0
  6  7  1  0  0  0
  7  8  1  0  0  0
  8  9  2  0  0  0
  9 11  1  0  0  0
 11 12  2  0  0  0
 12 13  1  0  0  0
 13 14  2  0  0  0
 14 15  1  0  0  0
 15 16  2  0  0  0
 16 17  1  0  0  0
 17 18  1  0  0  0
 17 19  1  0  0  0
 17 20  1  0  0  0
  9  1  1  0  0  0
 16 11  1  0  0  0
  7  3  2  0  0  0
  4 10  1  0  0  0
M  END
> <minimizedAffinity>
-4.86752

> <CNNscore>
0.5305824876

> <CNNaffinity>
4.7408590317

> <CNN_VS>
2.5154168606

> <CNNaffinity_variance>
0.0924232528

$$$$
[H]c1c([H])c([H])c(C(F)(F)F)c(-c2c(OC([H])([H])[H])c([H])c3c(c([H])nn3[H])c2[H])c1[H]


 22 24  0  0  0  0  0  0  0  0999 V2000
  158.9211  140.7367  183.4154 C   0  0  0  0  0  0  0  0  0  0  0  0
  160.2258  141.1823  183.5341 C   0  0  0  0  0  0  0  0  0  0  0  0
  160.6547  141.8733  184.6525 C   0  0  0  0  0  0  0  0  0  0  0  0
  161.8544  142.4053  185.0136 N   0  0  0  0  0  0  0  0  0  0  0  0
  161.7063  142.9635  186.2171 N   0  0  0  0  0  0  0  0  0  0  0  0
  160.4283  142.7950  186.6236 C   0  0  0  0  0  0  0  0  0  0  0  0
  159.7394  142.1052  185.6473 C   0  0  0  0  0  0  0  0  0  0  0  0
  158.4335  141.6559  185.5199 C   0  0  0  0  0  0  0  0  0  0  0  0
  157.9766  140.9581  184.4034 C   0  0  0  0  0  0  0  0  0  0  0  0
  162.7440  142.3792  184.4410 H   0  0  0  0  0  0  0  0  0  0  0  0
  156.6231  140.4263  184.3442 C   0  0  0  0  0  0  0  0  0  0  0  0
  156.3973  139.2423  185.0392 C   0  0  0  0  0  0  0  0  0  0  0  0
  155.1515  138.6646  185.1622 C   0  0  0  0  0  0  0  0  0  0  0  0
  154.0925  139.2802  184.5771 C   0  0  0  0  0  0  0  0  0  0  0  0
  154.2872  140.4492  183.8844 C   0  0  0  0  0  0  0  0  0  0  0  0
  155.5443  141.0297  183.7594 C   0  0  0  0  0  0  0  0  0  0  0  0
  155.6683  142.2322  182.9343 C   0  0  0  0  0  0  0  0  0  0  0  0
  156.3310  143.2164  183.5618 F   0  0  0  0  0  0  0  0  0  0  0  0
  156.2589  141.9574  181.7091 F   0  0  0  0  0  0  0  0  0  0  0  0
  154.3891  142.7168  182.6397 F   0  0  0  0  0  0  0  0  0  0  0  0
  158.7608  140.3271  180.9713 C   0  0  0  0  0  0  0  0  0  0  0  0
  158.4866  140.0475  182.3058 O   0  0  0  0  0  0  0  0  0  0  0  0
 21 22  1  0  0  0
 22  1  1  0  0  0
  1  2  2  0  0  0
  2  3  1  0  0  0
  3  4  1  0  0  0
  4  5  1  0  0  0
  5  6  2  0  0  0
  6  7  1  0  0  0
  7  8  1  0  0  0
  8  9  2  0  0  0
  9 11  1  0  0  0
 11 12  2  0  0  0
 12 13  1  0  0  0
 13 14  2  0  0  0
 14 15  1  0  0  0
 15 16  2  0  0  0
 16 17  1  0  0  0
 17 18  1  0  0  0
 17 19  1  0  0  0
 17 20  1  0  0  0
  9  1  1  0  0  0
 16 11  1  0  0  0
  7  3  2  0  0  0
  4 10  1  0  0  0
M  END
> <minimizedAffinity>
-8.46663

> <CNNscore>
0.4882418513

> <CNNaffinity>
6.0055241585

> <CNN_VS>
2.9321482182

> <CNNaffinity_variance>
0.1097062230

$$$$
[H]c1c([H])c([H])c(C(F)(F)F)c(-c2c(OC([H])([H])[H])c([H])c3c(c([H])nn3[H])c2[H])c1[H]


 22 24  0  0  0  0  0  0  0  0999 V2000
  155.7697  134.5121  189.5451 C   0  0  0  0  0  0  0  0  0  0  0  0
  156.6465  133.4761  189.8148 C   0  0  0  0  0  0  0  0  0  0  0  0
  157.9201  133.4485  189.2767 C   0  0  0  0  0  0  0  0  0  0  0  0
  158.9556  132.5713  189.3824 N   0  0  0  0  0  0  0  0  0  0  0  0
  159.9660  133.0443  188.6495 N   0  0  0  0  0  0  0  0  0  0  0  0
  159.5850  134.2085  188.0782 C   0  0  0  0  0  0  0  0  0  0  0  0
  158.2891  134.4875  188.4609 C   0  0  0  0  0  0  0  0  0  0  0  0
  157.4038  135.5213  188.1951 C   0  0  0  0  0  0  0  0  0  0  0  0
  156.1157  135.5723  188.7244 C   0  0  0  0  0  0  0  0  0  0  0  0
  158.9568  131.6755  189.9460 H   0  0  0  0  0  0  0  0  0  0  0  0
  155.2466  136.7168  188.4937 C   0  0  0  0  0  0  0  0  0  0  0  0
  154.4359  136.6548  187.3646 C   0  0  0  0  0  0  0  0  0  0  0  0
  153.4897  137.6106  187.0609 C   0  0  0  0  0  0  0  0  0  0  0  0
  153.3409  138.6642  187.9039 C   0  0  0  0  0  0  0  0  0  0  0  0
  154.1286  138.7507  189.0247 C   0  0  0  0  0  0  0  0  0  0  0  0
  155.0837  137.7872  189.3289 C   0  0  0  0  0  0  0  0  0  0  0  0
  155.9323  138.0051  190.5014 C   0  0  0  0  0  0  0  0  0  0  0  0
  155.8374  137.0067  191.3935 F   0  0  0  0  0  0  0  0  0  0  0  0
  157.2578  138.2111  190.1466 F   0  0  0  0  0  0  0  0  0  0  0  0
  155.5248  139.1775  191.1473 F   0  0  0  0  0  0  0  0  0  0  0  0
  153.8859  133.5851  190.8714 C   0  0  0  0  0  0  0  0  0  0  0  0
  154.5007  134.5474  190.0775 O   0  0  0  0  0  0  0  0  0  0  0  0
 21 22  1  0  0  0
 22  1  1  0  0  0
  1  2  2  0  0  0
  2  3  1  0  0  0
  3  4  1  0  0  0
  4  5  1  0  0  0
  5  6  2  0  0  0
  6  7  1  0  0  0
  7  8  1  0  0  0
  8  9  2  0  0  0
  9 11  1  0  0  0
 11 12  2  0  0  0
 12 13  1  0  0  0
 13 14  2  0  0  0
 14 15  1  0  0  0
 15 16  2  0  0  0
 16 17  1  0  0  0
 17 18  1  0  0  0
 17 19  1  0  0  0
 17 20  1  0  0  0
  9  1  1  0  0  0
 16 11  1  0  0  0
  7  3  2  0  0  0
  4 10  1  0  0  0
M  END
> <minimizedAffinity>
-5.73962

> <CNNscore>
0.4848307669

> <CNNaffinity>
4.9147038460

> <CNN_VS>
2.3827996254

> <CNNaffinity_variance>
0.0625769645

$$$$
[H]c1c([H])c([H])c(C(F)(F)F)c(-c2c(OC([H])([H])[H])c([H])c3c(c([H])nn3[H])c2[H])c1[H]


 22 24  0  0  0  0  0  0  0  0999 V2000
  154.5151  139.1453  184.2437 C   0  0  0  0  0  0  0  0  0  0  0  0
  153.5038  138.2195  184.4304 C   0  0  0  0  0  0  0  0  0  0  0  0
  152.4788  138.0739  183.5137 C   0  0  0  0  0  0  0  0  0  0  0  0
  151.3914  137.2572  183.4563 N   0  0  0  0  0  0  0  0  0  0  0  0
  150.7298  137.5388  182.3317 N   0  0  0  0  0  0  0  0  0  0  0  0
  151.3813  138.5247  181.6757 C   0  0  0  0  0  0  0  0  0  0  0  0
  152.4960  138.8824  182.4059 C   0  0  0  0  0  0  0  0  0  0  0  0
  153.5128  139.8083  182.2270 C   0  0  0  0  0  0  0  0  0  0  0  0
  154.5562  139.9747  183.1357 C   0  0  0  0  0  0  0  0  0  0  0  0
  151.1213  136.5296  184.1759 H   0  0  0  0  0  0  0  0  0  0  0  0
  155.6521  140.8950  182.8705 C   0  0  0  0  0  0  0  0  0  0  0  0
  156.8998  140.3184  182.6541 C   0  0  0  0  0  0  0  0  0  0  0  0
  158.0153  141.0447  182.2947 C   0  0  0  0  0  0  0  0  0  0  0  0
  157.8915  142.3881  182.1442 C   0  0  0  0  0  0  0  0  0  0  0  0
  156.6721  142.9830  182.3526 C   0  0  0  0  0  0  0  0  0  0  0  0
  155.5484  142.2498  182.7169 C   0  0  0  0  0  0  0  0  0  0  0  0
  154.3111  142.9798  182.9965 C   0  0  0  0  0  0  0  0  0  0  0  0
  153.2571  142.4690  182.3406 F   0  0  0  0  0  0  0  0  0  0  0  0
  154.0477  143.0444  184.3573 F   0  0  0  0  0  0  0  0  0  0  0  0
  154.4586  144.3055  182.5742 F   0  0  0  0  0  0  0  0  0  0  0  0
  155.8829  138.4412  186.1931 C   0  0  0  0  0  0  0  0  0  0  0  0
  155.5394  139.2958  185.1511 O   0  0  0  0  0  0  0  0  0  0  0  0
 21 22  1  0  0  0
 22  1  1  0  0  0
  1  2  2  0  0  0
  2  3  1  0  0  0
  3  4  1  0  0  0
  4  5  1  0  0  0
  5  6  2  0  0  0
  6  7  1  0  0  0
  7  8  1  0  0  0
  8  9  2  0  0  0
  9 11  1  0  0  0
 11 12  2  0  0  0
 12 13  1  0  0  0
 13 14  2  0  0  0
 14 15  1  0  0  0
 15 16  2  0  0  0
 16 17  1  0  0  0
 17 18  1  0  0  0
 17 19  1  0  0  0
 17 20  1  0  0  0
  9  1  1  0  0  0
 16 11  1  0  0  0
  7  3  2  0  0  0
  4 10  1  0  0  0
M  END
> <minimizedAffinity>
-6.54406

> <CNNscore>
0.4517089128

> <CNNaffinity>
5.3064546585

> <CNN_VS>
2.3969728947

> <CNNaffinity_variance>
0.1516608149

$$$$
[H]c1c([H])c([H])c(C(F)(F)F)c(-c2c(OC([H])([H])[H])c([H])c3c(c([H])nn3[H])c2[H])c1[H]


 22 24  0  0  0  0  0  0  0  0999 V2000
  154.1008  136.7748  190.5589 C   0  0  0  0  0  0  0  0  0  0  0  0
  153.6230  136.9325  191.8480 C   0  0  0  0  0  0  0  0  0  0  0  0
  152.3014  136.6776  192.1653 C   0  0  0  0  0  0  0  0  0  0  0  0
  151.5935  136.7474  193.3258 N   0  0  0  0  0  0  0  0  0  0  0  0
  150.3382  136.3797  193.0594 N   0  0  0  0  0  0  0  0  0  0  0  0
  150.2394  136.0797  191.7452 C   0  0  0  0  0  0  0  0  0  0  0  0
  151.4731  136.2609  191.1546 C   0  0  0  0  0  0  0  0  0  0  0  0
  151.9599  136.1063  189.8653 C   0  0  0  0  0  0  0  0  0  0  0  0
  153.2865  136.3570  189.5199 C   0  0  0  0  0  0  0  0  0  0  0  0
  151.9729  137.0406  194.2692 H   0  0  0  0  0  0  0  0  0  0  0  0
  153.7809  136.0991  188.1754 C   0  0  0  0  0  0  0  0  0  0  0  0
  154.3080  134.8317  187.9473 C   0  0  0  0  0  0  0  0  0  0  0  0
  154.7256  134.3998  186.7064 C   0  0  0  0  0  0  0  0  0  0  0  0
  154.6180  135.2516  185.6550 C   0  0  0  0  0  0  0  0  0  0  0  0
  154.1024  136.5084  185.8522 C   0  0  0  0  0  0  0  0  0  0  0  0
  153.6833  136.9436  187.1044 C   0  0  0  0  0  0  0  0  0  0  0  0
  153.2231  138.3269  187.2340 C   0  0  0  0  0  0  0  0  0  0  0  0
  151.8894  138.4121  187.3591 F   0  0  0  0  0  0  0  0  0  0  0  0
  153.8493  138.9816  188.2851 F   0  0  0  0  0  0  0  0  0  0  0  0
  153.5768  139.0349  186.0801 F   0  0  0  0  0  0  0  0  0  0  0  0
  156.1568  138.1671  190.5203 C   0  0  0  0  0  0  0  0  0  0  0  0
  155.4151  137.0257  190.2352 O   0  0  0  0  0  0  0  0  0  0  0  0
 21 22  1  0  0  0
 22  1  1  0  0  0
  1  2  2  0  0  0
  2  3  1  0  0  0
  3  4  1  0  0  0
  4  5  1  0  0  0
  5  6  2  0  0  0
  6  7  1  0  0  0
  7  8  1  0  0  0
  8  9  2  0  0  0
  9 11  1  0  0  0
 11 12  2  0  0  0
 12 13  1  0  0  0
 13 14  2  0  0  0
 14 15  1  0  0  0
 15 16  2  0  0  0
 16 17  1  0  0  0
 17 18  1  0  0  0
 17 19  1  0  0  0
 17 20  1  0  0  0
  9  1  1  0  0  0
 16 11  1  0  0  0
  7  3  2  0  0  0
  4 10  1  0  0  0
M  END
> <minimizedAffinity>
-5.33534

> <CNNscore>
0.4274593592

> <CNNaffinity>
4.6456365585

> <CNN_VS>
1.9858207703

> <CNNaffinity_variance>
0.0957504809

$$$$
[H]c1c([H])c([H])c(C(F)(F)F)c(-c2c(OC([H])([H])[H])c([H])c3c(c([H])nn3[H])c2[H])c1[H]


 22 24  0  0  0  0  0  0  0  0999 V2000
  155.5370  135.7667  188.4779 C   0  0  0  0  0  0  0  0  0  0  0  0
  156.5337  135.2518  187.6678 C   0  0  0  0  0  0  0  0  0  0  0  0
  157.6239  134.5862  188.1975 C   0  0  0  0  0  0  0  0  0  0  0  0
  158.7144  133.9945  187.6375 N   0  0  0  0  0  0  0  0  0  0  0  0
  159.4566  133.4909  188.6260 N   0  0  0  0  0  0  0  0  0  0  0  0
  158.8533  133.7569  189.8058 C   0  0  0  0  0  0  0  0  0  0  0  0
  157.6869  134.4521  189.5610 C   0  0  0  0  0  0  0  0  0  0  0  0
  156.6842  134.9719  190.3657 C   0  0  0  0  0  0  0  0  0  0  0  0
  155.5761  135.6467  189.8568 C   0  0  0  0  0  0  0  0  0  0  0  0
  158.9321  133.9439  186.6030 H   0  0  0  0  0  0  0  0  0  0  0  0
  154.5008  136.1010  190.7262 C   0  0  0  0  0  0  0  0  0  0  0  0
  153.5609  135.1428  191.0927 C   0  0  0  0  0  0  0  0  0  0  0  0
  152.5406  135.3890  191.9868 C   0  0  0  0  0  0  0  0  0  0  0  0
  152.4475  136.6264  192.5371 C   0  0  0  0  0  0  0  0  0  0  0  0
  153.3611  137.5911  192.1922 C   0  0  0  0  0  0  0  0  0  0  0  0
  154.3884  137.3421  191.2890 C   0  0  0  0  0  0  0  0  0  0  0  0
  155.2656  138.4543  190.9205 C   0  0  0  0  0  0  0  0  0  0  0  0
  156.5560  138.1968  191.1858 F   0  0  0  0  0  0  0  0  0  0  0  0
  155.1090  138.8145  189.5896 F   0  0  0  0  0  0  0  0  0  0  0  0
  154.9072  139.5835  191.6649 F   0  0  0  0  0  0  0  0  0  0  0  0
  154.3625  137.0993  186.7424 C   0  0  0  0  0  0  0  0  0  0  0  0
  154.4481  136.4297  187.9584 O   0  0  0  0  0  0  0  0  0  0  0  0
 21 22  1  0  0  0
 22  1  1  0  0  0
  1  2  2  0  0  0
  2  3  1  0  0  0
  3  4  1  0  0  0
  4  5  1  0  0  0
  5  6  2  0  0  0
  6  7  1  0  0  0
  7  8  1  0  0  0
  8  9  2  0  0  0
  9 11  1  0  0  0
 11 12  2  0  0  0
 12 13  1  0  0  0
 13 14  2  0  0  0
 14 15  1  0  0  0
 15 16  2  0  0  0
 16 17  1  0  0  0
 17 18  1  0  0  0
 17 19  1  0  0  0
 17 20  1  0  0  0
  9  1  1  0  0  0
 16 11  1  0  0  0
  7  3  2  0  0  0
  4 10  1  0  0  0
M  END
> <minimizedAffinity>
-5.92304

> <CNNscore>
0.4158010781

> <CNNaffinity>
4.7129468918

> <CNN_VS>
1.9596483707

> <CNNaffinity_variance>
0.1147147417

$$$$
[H]C(=C(C#N)C#N)c1c([H])c([H])c([H])c([H])c1Cl


 13 13  0  0  0  0  0  0  0  0999 V2000
  159.2260  144.9592  182.4338 Cl  0  0  0  0  0  0  0  0  0  0  0  0
  158.9411  143.3869  181.7082 C   0  0  0  0  0  0  0  0  0  0  0  0
  158.8808  143.3079  180.3114 C   0  0  0  0  0  0  0  0  0  0  0  0
  158.6615  142.0547  179.7750 C   0  0  0  0  0  0  0  0  0  0  0  0
  158.5083  140.9339  180.5780 C   0  0  0  0  0  0  0  0  0  0  0  0
  158.5742  141.0549  181.9469 C   0  0  0  0  0  0  0  0  0  0  0  0
  158.7927  142.2924  182.5295 C   0  0  0  0  0  0  0  0  0  0  0  0
  158.8364  142.4677  183.9730 C   0  0  0  0  0  0  0  0  0  0  0  0
  159.9170  142.2101  184.6740 C   0  0  0  0  0  0  0  0  0  0  0  0
  161.1509  141.7430  184.1317 C   0  0  0  0  0  0  0  0  0  0  0  0
  162.1818  141.3697  183.7030 N   0  0  0  0  0  0  0  0  0  0  0  0
  159.8979  142.3941  186.1145 C   0  0  0  0  0  0  0  0  0  0  0  0
  159.8919  142.5390  187.2851 N   0  0  0  0  0  0  0  0  0  0  0  0
  1  2  1  0  0  0
  2  3  2  0  0  0
  3  4  1  0  0  0
  4  5  2  0  0  0
  5  6  1  0  0  0
  6  7  2  0  0  0
  7  8  1  0  0  0
  8  9  2  0  0  0
  9 10  1  0  0  0
 10 11  3  0  0  0
  9 12  1  0  0  0
 12 13  3  0  0  0
  7  2  1  0  0  0
M  END
> <minimizedAffinity>
-5.80502

> <CNNscore>
0.7440569401

> <CNNaffinity>
5.4663314819

> <CNN_VS>
4.0672616959

> <CNNaffinity_variance>
0.1606906056

$$$$
[H]C(=C(C#N)C#N)c1c([H])c([H])c([H])c([H])c1Cl


 13 13  0  0  0  0  0  0  0  0999 V2000
  158.7707  139.4935  184.2455 Cl  0  0  0  0  0  0  0  0  0  0  0  0
  158.8157  140.6060  182.8889 C   0  0  0  0  0  0  0  0  0  0  0  0
  158.5848  140.0909  181.6074 C   0  0  0  0  0  0  0  0  0  0  0  0
  158.6217  140.9955  180.5650 C   0  0  0  0  0  0  0  0  0  0  0  0
  158.8749  142.3429  180.7766 C   0  0  0  0  0  0  0  0  0  0  0  0
  159.0969  142.8084  182.0521 C   0  0  0  0  0  0  0  0  0  0  0  0
  159.0693  141.9375  183.1287 C   0  0  0  0  0  0  0  0  0  0  0  0
  159.3312  142.3841  184.4883 C   0  0  0  0  0  0  0  0  0  0  0  0
  160.5372  142.3642  185.0084 C   0  0  0  0  0  0  0  0  0  0  0  0
  161.7117  141.9201  184.3317 C   0  0  0  0  0  0  0  0  0  0  0  0
  162.6683  141.5325  183.7654 N   0  0  0  0  0  0  0  0  0  0  0  0
  160.7359  142.8129  186.3753 C   0  0  0  0  0  0  0  0  0  0  0  0
  160.9056  143.1833  187.4822 N   0  0  0  0  0  0  0  0  0  0  0  0
  1  2  1  0  0  0
  2  3  2  0  0  0
  3  4  1  0  0  0
  4  5  2  0  0  0
  5  6  1  0  0  0
  6  7  2  0  0  0
  7  8  1  0  0  0
  8  9  2  0  0  0
  9 10  1  0  0  0
 10 11  3  0  0  0
  9 12  1  0  0  0
 12 13  3  0  0  0
  7  2  1  0  0  0
M  END
> <minimizedAffinity>
-5.68050

> <CNNscore>
0.6500561833

> <CNNaffinity>
5.4120874405

> <CNN_VS>
3.5181608200

> <CNNaffinity_variance>
0.1035469919

$$$$
[H]C(=C(C#N)C#N)c1c([H])c([H])c([H])c([H])c1Cl


 13 13  0  0  0  0  0  0  0  0999 V2000
  154.2205  143.1945  182.6218 Cl  0  0  0  0  0  0  0  0  0  0  0  0
  154.9031  141.7030  183.2460 C   0  0  0  0  0  0  0  0  0  0  0  0
  154.0316  140.6375  183.5033 C   0  0  0  0  0  0  0  0  0  0  0  0
  154.6038  139.4780  183.9876 C   0  0  0  0  0  0  0  0  0  0  0  0
  155.9696  139.3752  184.2081 C   0  0  0  0  0  0  0  0  0  0  0  0
  156.7912  140.4462  183.9424 C   0  0  0  0  0  0  0  0  0  0  0  0
  156.2615  141.6295  183.4551 C   0  0  0  0  0  0  0  0  0  0  0  0
  157.0916  142.7951  183.1925 C   0  0  0  0  0  0  0  0  0  0  0  0
  157.7089  142.9670  182.0459 C   0  0  0  0  0  0  0  0  0  0  0  0
  157.6475  142.0663  180.9415 C   0  0  0  0  0  0  0  0  0  0  0  0
  157.5824  141.3069  180.0443 N   0  0  0  0  0  0  0  0  0  0  0  0
  158.5330  144.1459  181.8451 C   0  0  0  0  0  0  0  0  0  0  0  0
  159.2000  145.1032  181.6717 N   0  0  0  0  0  0  0  0  0  0  0  0
  1  2  1  0  0  0
  2  3  2  0  0  0
  3  4  1  0  0  0
  4  5  2  0  0  0
  5  6  1  0  0  0
  6  7  2  0  0  0
  7  8  1  0  0  0
  8  9  2  0  0  0
  9 10  1  0  0  0
 10 11  3  0  0  0
  9 12  1  0  0  0
 12 13  3  0  0  0
  7  2  1  0  0  0
M  END
> <minimizedAffinity>
-5.25067

> <CNNscore>
0.5595222116

> <CNNaffinity>
5.2280406952

> <CNN_VS>
2.9252049923

> <CNNaffinity_variance>
0.0948162824

$$$$
[H]C(=C(C#N)C#N)c1c([H])c([H])c([H])c([H])c1Cl


 13 13  0  0  0  0  0  0  0  0999 V2000
  151.0520  140.2930  179.3677 Cl  0  0  0  0  0  0  0  0  0  0  0  0
  151.8422  139.7334  180.8314 C   0  0  0  0  0  0  0  0  0  0  0  0
  152.8250  140.5513  181.4026 C   0  0  0  0  0  0  0  0  0  0  0  0
  153.4210  140.0826  182.5564 C   0  0  0  0  0  0  0  0  0  0  0  0
  153.0652  138.8654  183.1189 C   0  0  0  0  0  0  0  0  0  0  0  0
  152.0944  138.0918  182.5258 C   0  0  0  0  0  0  0  0  0  0  0  0
  151.4690  138.5218  181.3672 C   0  0  0  0  0  0  0  0  0  0  0  0
  150.4615  137.7187  180.6916 C   0  0  0  0  0  0  0  0  0  0  0  0
  149.1816  137.8325  180.9641 C   0  0  0  0  0  0  0  0  0  0  0  0
  148.6271  138.7303  181.9238 C   0  0  0  0  0  0  0  0  0  0  0  0
  148.1481  139.4568  182.7167 N   0  0  0  0  0  0  0  0  0  0  0  0
  148.2225  136.9960  180.2643 C   0  0  0  0  0  0  0  0  0  0  0  0
  147.4356  136.3221  179.7005 N   0  0  0  0  0  0  0  0  0  0  0  0
  1  2  1  0  0  0
  2  3  2  0  0  0
  3  4  1  0  0  0
  4  5  2  0  0  0
  5  6  1  0  0  0
  6  7  2  0  0  0
  7  8  1  0  0  0
  8  9  2  0  0  0
  9 10  1  0  0  0
 10 11  3  0  0  0
  9 12  1  0  0  0
 12 13  3  0  0  0
  7  2  1  0  0  0
M  END
> <minimizedAffinity>
-4.01035

> <CNNscore>
0.5574497581

> <CNNaffinity>
3.9622554779

> <CNN_VS>
2.2087583542

> <CNNaffinity_variance>
0.1182027906

$$$$
[H]C(=C(C#N)C#N)c1c([H])c([H])c([H])c([H])c1Cl


 13 13  0  0  0  0  0  0  0  0999 V2000
  156.7051  141.9211  184.0907 Cl  0  0  0  0  0  0  0  0  0  0  0  0
  158.3578  142.1053  184.6516 C   0  0  0  0  0  0  0  0  0  0  0  0
  158.6189  141.8934  186.0110 C   0  0  0  0  0  0  0  0  0  0  0  0
  159.9306  142.0408  186.4158 C   0  0  0  0  0  0  0  0  0  0  0  0
  160.9359  142.3816  185.5227 C   0  0  0  0  0  0  0  0  0  0  0  0
  160.6369  142.5813  184.1947 C   0  0  0  0  0  0  0  0  0  0  0  0
  159.3347  142.4442  183.7431 C   0  0  0  0  0  0  0  0  0  0  0  0
  158.9720  142.6786  182.3539 C   0  0  0  0  0  0  0  0  0  0  0  0
  158.7069  141.6931  181.5270 C   0  0  0  0  0  0  0  0  0  0  0  0
  158.7353  140.3087  181.8696 C   0  0  0  0  0  0  0  0  0  0  0  0
  158.7330  139.1652  182.1495 N   0  0  0  0  0  0  0  0  0  0  0  0
  158.3605  141.9881  180.1478 C   0  0  0  0  0  0  0  0  0  0  0  0
  158.0734  142.2188  179.0272 N   0  0  0  0  0  0  0  0  0  0  0  0
  1  2  1  0  0  0
  2  3  2  0  0  0
  3  4  1  0  0  0
  4  5  2  0  0  0
  5  6  1  0  0  0
  6  7  2  0  0  0
  7  8  1  0  0  0
  8  9  2  0  0  0
  9 10  1  0  0  0
 10 11  3  0  0  0
  9 12  1  0  0  0
 12 13  3  0  0  0
  7  2  1  0  0  0
M  END
> <minimizedAffinity>
-5.81872

> <CNNscore>
0.5489039421

> <CNNaffinity>
5.2402787209

> <CNN_VS>
2.8764095306

> <CNNaffinity_variance>
0.2277326882

$$$$
[H]C(=C(C#N)C#N)c1c([H])c([H])c([H])c([H])c1Cl


 13 13  0  0  0  0  0  0  0  0999 V2000
  155.7672  143.4870  182.9282 Cl  0  0  0  0  0  0  0  0  0  0  0  0
  157.0089  142.7976  181.8972 C   0  0  0  0  0  0  0  0  0  0  0  0
  157.7589  143.6689  181.0976 C   0  0  0  0  0  0  0  0  0  0  0  0
  158.7308  143.0928  180.3041 C   0  0  0  0  0  0  0  0  0  0  0  0
  158.9515  141.7232  180.2992 C   0  0  0  0  0  0  0  0  0  0  0  0
  158.1920  140.9018  181.1000 C   0  0  0  0  0  0  0  0  0  0  0  0
  157.2056  141.4355  181.9128 C   0  0  0  0  0  0  0  0  0  0  0  0
  156.3596  140.5982  182.7492 C   0  0  0  0  0  0  0  0  0  0  0  0
  156.7106  140.2475  183.9654 C   0  0  0  0  0  0  0  0  0  0  0  0
  157.9253  140.6301  184.6079 C   0  0  0  0  0  0  0  0  0  0  0  0
  158.9144  140.9624  185.1529 N   0  0  0  0  0  0  0  0  0  0  0  0
  155.8290  139.4008  184.7499 C   0  0  0  0  0  0  0  0  0  0  0  0
  155.1049  138.7197  185.3848 N   0  0  0  0  0  0  0  0  0  0  0  0
  1  2  1  0  0  0
  2  3  2  0  0  0
  3  4  1  0  0  0
  4  5  2  0  0  0
  5  6  1  0  0  0
  6  7  2  0  0  0
  7  8  1  0  0  0
  8  9  2  0  0  0
  9 10  1  0  0  0
 10 11  3  0  0  0
  9 12  1  0  0  0
 12 13  3  0  0  0
  7  2  1  0  0  0
M  END
> <minimizedAffinity>
-5.10867

> <CNNscore>
0.5465323925

> <CNNaffinity>
4.9503583908

> <CNN_VS>
2.7055311203

> <CNNaffinity_variance>
0.2612882257

$$$$
[H]C(=C(C#N)C#N)c1c([H])c([H])c([H])c([H])c1Cl


 13 13  0  0  0  0  0  0  0  0999 V2000
  155.9016  137.9909  186.7940 Cl  0  0  0  0  0  0  0  0  0  0  0  0
  155.6385  138.0546  188.5279 C   0  0  0  0  0  0  0  0  0  0  0  0
  156.7595  138.0052  189.3659 C   0  0  0  0  0  0  0  0  0  0  0  0
  156.5156  138.0638  190.7236 C   0  0  0  0  0  0  0  0  0  0  0  0
  155.2281  138.1654  191.2300 C   0  0  0  0  0  0  0  0  0  0  0  0
  154.1536  138.2108  190.3719 C   0  0  0  0  0  0  0  0  0  0  0  0
  154.3503  138.1552  189.0020 C   0  0  0  0  0  0  0  0  0  0  0  0
  153.2394  138.1675  188.0628 C   0  0  0  0  0  0  0  0  0  0  0  0
  152.5576  137.0822  187.7754 C   0  0  0  0  0  0  0  0  0  0  0  0
  152.8049  135.7912  188.3292 C   0  0  0  0  0  0  0  0  0  0  0  0
  153.0332  134.7328  188.7916 N   0  0  0  0  0  0  0  0  0  0  0  0
  151.4648  137.1537  186.8215 C   0  0  0  0  0  0  0  0  0  0  0  0
  150.5710  137.2160  186.0543 N   0  0  0  0  0  0  0  0  0  0  0  0
  1  2  1  0  0  0
  2  3  2  0  0  0
  3  4  1  0  0  0
  4  5  2  0  0  0
  5  6  1  0  0  0
  6  7  2  0  0  0
  7  8  1  0  0  0
  8  9  2  0  0  0
  9 10  1  0  0  0
 10 11  3  0  0  0
  9 12  1  0  0  0
 12 13  3  0  0  0
  7  2  1  0  0  0
M  END
> <minimizedAffinity>
-4.27357

> <CNNscore>
0.5264561176

> <CNNaffinity>
4.1748657227

> <CNN_VS>
2.1978836060

> <CNNaffinity_variance>
0.0446515717

$$$$
[H]C(=C(C#N)C#N)c1c([H])c([H])c([H])c([H])c1Cl


 13 13  0  0  0  0  0  0  0  0999 V2000
  157.7496  141.4030  185.2683 Cl  0  0  0  0  0  0  0  0  0  0  0  0
  159.4328  141.8829  185.3964 C   0  0  0  0  0  0  0  0  0  0  0  0
  159.8969  142.3298  186.6398 C   0  0  0  0  0  0  0  0  0  0  0  0
  161.2272  142.6932  186.7055 C   0  0  0  0  0  0  0  0  0  0  0  0
  162.0592  142.6199  185.5978 C   0  0  0  0  0  0  0  0  0  0  0  0
  161.5633  142.1754  184.3940 C   0  0  0  0  0  0  0  0  0  0  0  0
  160.2349  141.7999  184.2810 C   0  0  0  0  0  0  0  0  0  0  0  0
  159.6642  141.3557  183.0187 C   0  0  0  0  0  0  0  0  0  0  0  0
  159.1212  142.1942  182.1659 C   0  0  0  0  0  0  0  0  0  0  0  0
  159.0247  143.6047  182.3554 C   0  0  0  0  0  0  0  0  0  0  0  0
  158.9652  144.7720  182.4961 N   0  0  0  0  0  0  0  0  0  0  0  0
  158.5577  141.6908  180.9256 C   0  0  0  0  0  0  0  0  0  0  0  0
  158.0905  141.2854  179.9212 N   0  0  0  0  0  0  0  0  0  0  0  0
  1  2  1  0  0  0
  2  3  2  0  0  0
  3  4  1  0  0  0
  4  5  2  0  0  0
  5  6  1  0  0  0
  6  7  2  0  0  0
  7  8  1  0  0  0
  8  9  2  0  0  0
  9 10  1  0  0  0
 10 11  3  0  0  0
  9 12  1  0  0  0
 12 13  3  0  0  0
  7  2  1  0  0  0
M  END
> <minimizedAffinity>
-6.36247

> <CNNscore>
0.5238372684

> <CNNaffinity>
5.4465484619

> <CNN_VS>
2.8531050682

> <CNNaffinity_variance>
0.1040864736

$$$$
[H]C(=C(C#N)C#N)c1c([H])c([H])c([H])c([H])c1Cl


 13 13  0  0  0  0  0  0  0  0999 V2000
  156.2244  139.5497  184.3189 Cl  0  0  0  0  0  0  0  0  0  0  0  0
  155.5648  141.0109  183.6049 C   0  0  0  0  0  0  0  0  0  0  0  0
  154.2223  141.0007  183.2068 C   0  0  0  0  0  0  0  0  0  0  0  0
  153.7354  142.1689  182.6550 C   0  0  0  0  0  0  0  0  0  0  0  0
  154.5346  143.2925  182.5027 C   0  0  0  0  0  0  0  0  0  0  0  0
  155.8493  143.2607  182.9070 C   0  0  0  0  0  0  0  0  0  0  0  0
  156.3810  142.1105  183.4662 C   0  0  0  0  0  0  0  0  0  0  0  0
  157.7742  142.0257  183.8762 C   0  0  0  0  0  0  0  0  0  0  0  0
  158.7129  141.5873  183.0687 C   0  0  0  0  0  0  0  0  0  0  0  0
  158.4994  141.1535  181.7267 C   0  0  0  0  0  0  0  0  0  0  0  0
  158.3088  140.7759  180.6280 N   0  0  0  0  0  0  0  0  0  0  0  0
  160.0856  141.5152  183.5374 C   0  0  0  0  0  0  0  0  0  0  0  0
  161.1996  141.4664  183.9222 N   0  0  0  0  0  0  0  0  0  0  0  0
  1  2  1  0  0  0
  2  3  2  0  0  0
  3  4  1  0  0  0
  4  5  2  0  0  0
  5  6  1  0  0  0
  6  7  2  0  0  0
  7  8  1  0  0  0
  8  9  2  0  0  0
  9 10  1  0  0  0
 10 11  3  0  0  0
  9 12  1  0  0  0
 12 13  3  0  0  0
  7  2  1  0  0  0
M  END
> <minimizedAffinity>
-5.54315

> <CNNscore>
0.5187564492

> <CNNaffinity>
5.0633330345

> <CNN_VS>
2.6266367435

> <CNNaffinity_variance>
0.1168080792

$$$$
[H]c1sc(N([H])C(=O)C([H])([H])c2c([H])c([H])c([H])c3c2c(=O)n(C([H])([H])[H])c(=O)n3C([H])([H])[H])nc1-c1c([H])c([H])c(C(C([H])([H])[H])(C([H])([H])[H])C([H])([H])[H])c([H])c1[H]


 34 37  0  0  0  0  0  0  0  0999 V2000
  154.7464  137.5379  189.5098 C   0  0  0  0  0  0  0  0  0  0  0  0
  154.3925  138.7616  189.1776 O   0  0  0  0  0  0  0  0  0  0  0  0
  154.8357  136.7149  188.3651 N   0  0  0  0  0  0  0  0  0  0  0  0
  155.0538  135.7124  188.2995 H   0  0  0  0  0  0  0  0  0  0  0  0
  154.9092  137.3913  187.0718 C   0  0  0  0  0  0  0  0  0  0  0  0
  155.6802  138.2297  186.4738 N   0  0  0  0  0  0  0  0  0  0  0  0
  155.3599  138.8182  185.3850 C   0  0  0  0  0  0  0  0  0  0  0  0
  154.0842  138.4964  184.8564 C   0  0  0  0  0  0  0  0  0  0  0  0
  153.5135  137.3871  185.9819 S   0  0  0  0  0  0  0  0  0  0  0  0
  156.1927  139.6315  184.4617 C   0  0  0  0  0  0  0  0  0  0  0  0
  157.5174  139.8818  184.7441 C   0  0  0  0  0  0  0  0  0  0  0  0
  158.2489  140.8624  184.0883 C   0  0  0  0  0  0  0  0  0  0  0  0
  157.6479  141.6351  183.1150 C   0  0  0  0  0  0  0  0  0  0  0  0
  156.3052  141.4032  182.8022 C   0  0  0  0  0  0  0  0  0  0  0  0
  155.5890  140.3980  183.4742 C   0  0  0  0  0  0  0  0  0  0  0  0
  158.3047  142.7782  182.4527 C   0  0  0  0  0  0  0  0  0  0  0  0
  159.4025  143.3990  183.2682 C   0  0  0  0  0  0  0  0  0  0  0  0
  159.0035  142.2600  181.1676 C   0  0  0  0  0  0  0  0  0  0  0  0
  157.3105  143.7991  181.9305 C   0  0  0  0  0  0  0  0  0  0  0  0
  154.9867  137.2320  190.9119 C   0  0  0  0  0  0  0  0  0  0  0  0
  153.5618  131.4378  192.3410 C   0  0  0  0  0  0  0  0  0  0  0  0
  154.4126  132.5216  191.8840 N   0  0  0  0  0  0  0  0  0  0  0  0
  153.8875  133.7769  191.9026 C   0  0  0  0  0  0  0  0  0  0  0  0
  152.6193  133.9807  192.3758 C   0  0  0  0  0  0  0  0  0  0  0  0
  152.1222  135.2380  192.4187 C   0  0  0  0  0  0  0  0  0  0  0  0
  152.9064  136.2792  191.9823 C   0  0  0  0  0  0  0  0  0  0  0  0
  154.1927  136.1705  191.4844 C   0  0  0  0  0  0  0  0  0  0  0  0
  154.6792  134.8377  191.4591 C   0  0  0  0  0  0  0  0  0  0  0  0
  155.9265  134.5311  191.0359 C   0  0  0  0  0  0  0  0  0  0  0  0
  156.6856  135.4113  190.6275 O   0  0  0  0  0  0  0  0  0  0  0  0
  156.4414  133.2688  191.0218 N   0  0  0  0  0  0  0  0  0  0  0  0
  157.8275  133.0504  190.5715 C   0  0  0  0  0  0  0  0  0  0  0  0
  155.6689  132.2635  191.4491 C   0  0  0  0  0  0  0  0  0  0  0  0
  156.0900  131.0765  191.4506 O   0  0  0  0  0  0  0  0  0  0  0  0
 21 22  1  0  0  0
 22 23  1  0  0  0
 23 24  2  0  0  0
 24 25  1  0  0  0
 25 26  2  0  0  0
 26 27  1  0  0  0
 27 20  1  0  0  0
 20  1  1  0  0  0
  1  2  2  0  0  0
  1  3  1  0  0  0
  3  5  1  0  0  0
  5  6  2  0  0  0
  6  7  1  0  0  0
  7  8  2  0  0  0
  8  9  1  0  0  0
  7 10  1  0  0  0
 10 11  2  0  0  0
 11 12  1  0  0  0
 12 13  2  0  0  0
 13 14  1  0  0  0
 14 15  2  0  0  0
 13 16  1  0  0  0
 16 17  1  0  0  0
 16 18  1  0  0  0
 16 19  1  0  0  0
 27 28  2  0  0  0
 28 29  1  0  0  0
 29 30  2  0  0  0
 29 31  1  0  0  0
 31 32  1  0  0  0
 31 33  1  0  0  0
 33 34  2  0  0  0
 33 22  1  0  0  0
 28 23  1  0  0  0
  9  5  1  0  0  0
 15 10  1  0  0  0
  3  4  1  0  0  0
M  END
> <minimizedAffinity>
-7.57667

> <CNNscore>
0.3796947598

> <CNNaffinity>
6.1161537170

> <CNN_VS>
2.3222715855

> <CNNaffinity_variance>
0.0596304908

$$$$
[H]c1sc(N([H])C(=O)C([H])([H])c2c([H])c([H])c([H])c3c2c(=O)n(C([H])([H])[H])c(=O)n3C([H])([H])[H])nc1-c1c([H])c([H])c(C(C([H])([H])[H])(C([H])([H])[H])C([H])([H])[H])c([H])c1[H]


 34 37  0  0  0  0  0  0  0  0999 V2000
  152.8584  136.6122  186.5385 C   0  0  0  0  0  0  0  0  0  0  0  0
  152.3453  137.8233  186.5945 O   0  0  0  0  0  0  0  0  0  0  0  0
  153.4756  136.3878  185.2877 N   0  0  0  0  0  0  0  0  0  0  0  0
  153.9306  135.5385  184.9294 H   0  0  0  0  0  0  0  0  0  0  0  0
  153.7734  137.5681  184.4791 C   0  0  0  0  0  0  0  0  0  0  0  0
  154.5445  138.5962  184.5360 N   0  0  0  0  0  0  0  0  0  0  0  0
  154.4262  139.6012  183.7546 C   0  0  0  0  0  0  0  0  0  0  0  0
  153.3793  139.5275  182.8011 C   0  0  0  0  0  0  0  0  0  0  0  0
  152.7067  138.0259  183.1417 S   0  0  0  0  0  0  0  0  0  0  0  0
  155.3409  140.7519  183.5383 C   0  0  0  0  0  0  0  0  0  0  0  0
  155.1545  141.6095  182.4768 C   0  0  0  0  0  0  0  0  0  0  0  0
  156.1299  142.5044  182.0589 C   0  0  0  0  0  0  0  0  0  0  0  0
  157.3453  142.5532  182.7116 C   0  0  0  0  0  0  0  0  0  0  0  0
  157.5644  141.6981  183.7958 C   0  0  0  0  0  0  0  0  0  0  0  0
  156.5572  140.8075  184.2051 C   0  0  0  0  0  0  0  0  0  0  0  0
  158.4836  143.3792  182.2664 C   0  0  0  0  0  0  0  0  0  0  0  0
  158.9658  143.0474  180.8832 C   0  0  0  0  0  0  0  0  0  0  0  0
  158.0107  144.8549  182.1830 C   0  0  0  0  0  0  0  0  0  0  0  0
  159.6068  143.4223  183.2862 C   0  0  0  0  0  0  0  0  0  0  0  0
  152.7321  135.7412  187.6971 C   0  0  0  0  0  0  0  0  0  0  0  0
  151.9689  137.4005  193.5546 C   0  0  0  0  0  0  0  0  0  0  0  0
  151.6409  136.7234  192.3131 N   0  0  0  0  0  0  0  0  0  0  0  0
  152.5170  136.8557  191.2803 C   0  0  0  0  0  0  0  0  0  0  0  0
  153.6709  137.5725  191.4499 C   0  0  0  0  0  0  0  0  0  0  0  0
  154.5481  137.6685  190.4248 C   0  0  0  0  0  0  0  0  0  0  0  0
  154.2542  137.0432  189.2363 C   0  0  0  0  0  0  0  0  0  0  0  0
  153.1151  136.3042  188.9704 C   0  0  0  0  0  0  0  0  0  0  0  0
  152.2227  136.2240  190.0707 C   0  0  0  0  0  0  0  0  0  0  0  0
  151.0695  135.5197  190.0166 C   0  0  0  0  0  0  0  0  0  0  0  0
  150.7379  134.9353  188.9840 O   0  0  0  0  0  0  0  0  0  0  0  0
  150.1992  135.3947  191.0587 N   0  0  0  0  0  0  0  0  0  0  0  0
  148.9855  134.5736  190.9021 C   0  0  0  0  0  0  0  0  0  0  0  0
  150.4959  136.0074  192.2104 C   0  0  0  0  0  0  0  0  0  0  0  0
  149.7246  135.9327  193.2031 O   0  0  0  0  0  0  0  0  0  0  0  0
 21 22  1  0  0  0
 22 23  1  0  0  0
 23 24  2  0  0  0
 24 25  1  0  0  0
 25 26  2  0  0  0
 26 27  1  0  0  0
 27 20  1  0  0  0
 20  1  1  0  0  0
  1  2  2  0  0  0
  1  3  1  0  0  0
  3  5  1  0  0  0
  5  6  2  0  0  0
  6  7  1  0  0  0
  7  8  2  0  0  0
  8  9  1  0  0  0
  7 10  1  0  0  0
 10 11  2  0  0  0
 11 12  1  0  0  0
 12 13  2  0  0  0
 13 14  1  0  0  0
 14 15  2  0  0  0
 13 16  1  0  0  0
 16 17  1  0  0  0
 16 18  1  0  0  0
 16 19  1  0  0  0
 27 28  2  0  0  0
 28 29  1  0  0  0
 29 30  2  0  0  0
 29 31  1  0  0  0
 31 32  1  0  0  0
 31 33  1  0  0  0
 33 34  2  0  0  0
 33 22  1  0  0  0
 28 23  1  0  0  0
  9  5  1  0  0  0
 15 10  1  0  0  0
  3  4  1  0  0  0
M  END
> <minimizedAffinity>
-8.37353

> <CNNscore>
0.3659522831

> <CNNaffinity>
6.1679277420

> <CNN_VS>
2.2571673393

> <CNNaffinity_variance>
0.1707353890

$$$$
[H]c1sc(N([H])C(=O)C([H])([H])c2c([H])c([H])c([H])c3c2c(=O)n(C([H])([H])[H])c(=O)n3C([H])([H])[H])nc1-c1c([H])c([H])c(C(C([H])([H])[H])(C([H])([H])[H])C([H])([H])[H])c([H])c1[H]


 34 37  0  0  0  0  0  0  0  0999 V2000
  154.9158  137.4978  189.5844 C   0  0  0  0  0  0  0  0  0  0  0  0
  154.3102  138.6151  189.2411 O   0  0  0  0  0  0  0  0  0  0  0  0
  155.1808  136.7027  188.4471 N   0  0  0  0  0  0  0  0  0  0  0  0
  155.6075  135.7691  188.3906 H   0  0  0  0  0  0  0  0  0  0  0  0
  155.1113  137.3679  187.1478 C   0  0  0  0  0  0  0  0  0  0  0  0
  155.7571  138.2737  186.5018 N   0  0  0  0  0  0  0  0  0  0  0  0
  155.3171  138.8136  185.4297 C   0  0  0  0  0  0  0  0  0  0  0  0
  154.0534  138.3569  184.9769 C   0  0  0  0  0  0  0  0  0  0  0  0
  153.6641  137.2083  186.1398 S   0  0  0  0  0  0  0  0  0  0  0  0
  156.0085  139.6971  184.4555 C   0  0  0  0  0  0  0  0  0  0  0  0
  157.2879  140.1463  184.6972 C   0  0  0  0  0  0  0  0  0  0  0  0
  157.8595  141.1922  183.9857 C   0  0  0  0  0  0  0  0  0  0  0  0
  157.1373  141.8280  182.9959 C   0  0  0  0  0  0  0  0  0  0  0  0
  155.8369  141.3931  182.7235 C   0  0  0  0  0  0  0  0  0  0  0  0
  155.2842  140.3258  183.4519 C   0  0  0  0  0  0  0  0  0  0  0  0
  157.6114  143.0236  182.2731 C   0  0  0  0  0  0  0  0  0  0  0  0
  158.9006  143.5797  182.8064 C   0  0  0  0  0  0  0  0  0  0  0  0
  157.9260  142.6144  180.8096 C   0  0  0  0  0  0  0  0  0  0  0  0
  156.5323  144.0803  182.1233 C   0  0  0  0  0  0  0  0  0  0  0  0
  155.2128  137.2623  190.9892 C   0  0  0  0  0  0  0  0  0  0  0  0
  151.2713  133.3871  193.6524 C   0  0  0  0  0  0  0  0  0  0  0  0
  152.4630  133.7725  192.9184 N   0  0  0  0  0  0  0  0  0  0  0  0
  152.6786  135.1033  192.7342 C   0  0  0  0  0  0  0  0  0  0  0  0
  151.8090  136.0172  193.2658 C   0  0  0  0  0  0  0  0  0  0  0  0
  152.0535  137.3374  193.1025 C   0  0  0  0  0  0  0  0  0  0  0  0
  153.1712  137.7260  192.4028 C   0  0  0  0  0  0  0  0  0  0  0  0
  154.1008  136.8786  191.8266 C   0  0  0  0  0  0  0  0  0  0  0  0
  153.8114  135.5033  192.0230 C   0  0  0  0  0  0  0  0  0  0  0  0
  154.6191  134.5214  191.5623 C   0  0  0  0  0  0  0  0  0  0  0  0
  155.6372  134.7930  190.9239 O   0  0  0  0  0  0  0  0  0  0  0  0
  154.3920  133.1907  191.7532 N   0  0  0  0  0  0  0  0  0  0  0  0
  155.3567  132.2037  191.2366 C   0  0  0  0  0  0  0  0  0  0  0  0
  153.3012  132.8246  192.4359 C   0  0  0  0  0  0  0  0  0  0  0  0
  153.0376  131.6093  192.6353 O   0  0  0  0  0  0  0  0  0  0  0  0
 21 22  1  0  0  0
 22 23  1  0  0  0
 23 24  2  0  0  0
 24 25  1  0  0  0
 25 26  2  0  0  0
 26 27  1  0  0  0
 27 20  1  0  0  0
 20  1  1  0  0  0
  1  2  2  0  0  0
  1  3  1  0  0  0
  3  5  1  0  0  0
  5  6  2  0  0  0
  6  7  1  0  0  0
  7  8  2  0  0  0
  8  9  1  0  0  0
  7 10  1  0  0  0
 10 11  2  0  0  0
 11 12  1  0  0  0
 12 13  2  0  0  0
 13 14  1  0  0  0
 14 15  2  0  0  0
 13 16  1  0  0  0
 16 17  1  0  0  0
 16 18  1  0  0  0
 16 19  1  0  0  0
 27 28  2  0  0  0
 28 29  1  0  0  0
 29 30  2  0  0  0
 29 31  1  0  0  0
 31 32  1  0  0  0
 31 33  1  0  0  0
 33 34  2  0  0  0
 33 22  1  0  0  0
 28 23  1  0  0  0
  9  5  1  0  0  0
 15 10  1  0  0  0
  3  4  1  0  0  0
M  END
> <minimizedAffinity>
-8.05758

> <CNNscore>
0.3524857461

> <CNNaffinity>
6.0392885208

> <CNN_VS>
2.1287631989

> <CNNaffinity_variance>
0.0362539366

$$$$
[H]c1sc(N([H])C(=O)C([H])([H])c2c([H])c([H])c([H])c3c2c(=O)n(C([H])([H])[H])c(=O)n3C([H])([H])[H])nc1-c1c([H])c([H])c(C(C([H])([H])[H])(C([H])([H])[H])C([H])([H])[H])c([H])c1[H]


 34 37  0  0  0  0  0  0  0  0999 V2000
  154.3192  136.5275  188.6205 C   0  0  0  0  0  0  0  0  0  0  0  0
  153.9366  137.7869  188.5970 O   0  0  0  0  0  0  0  0  0  0  0  0
  154.4356  136.0156  187.3089 N   0  0  0  0  0  0  0  0  0  0  0  0
  154.6791  135.0658  187.0001 H   0  0  0  0  0  0  0  0  0  0  0  0
  154.4994  136.9925  186.2240 C   0  0  0  0  0  0  0  0  0  0  0  0
  155.2321  137.9922  185.8795 N   0  0  0  0  0  0  0  0  0  0  0  0
  154.9032  138.8127  184.9558 C   0  0  0  0  0  0  0  0  0  0  0  0
  153.6631  138.5632  184.3152 C   0  0  0  0  0  0  0  0  0  0  0  0
  153.1340  137.1821  185.1124 S   0  0  0  0  0  0  0  0  0  0  0  0
  155.7071  139.8716  184.2925 C   0  0  0  0  0  0  0  0  0  0  0  0
  155.1237  140.7431  183.3997 C   0  0  0  0  0  0  0  0  0  0  0  0
  155.8665  141.5416  182.5410 C   0  0  0  0  0  0  0  0  0  0  0  0
  157.2451  141.4751  182.5579 C   0  0  0  0  0  0  0  0  0  0  0  0
  157.8682  140.6030  183.4556 C   0  0  0  0  0  0  0  0  0  0  0  0
  157.0938  139.8118  184.3212 C   0  0  0  0  0  0  0  0  0  0  0  0
  158.1133  142.1897  181.6028 C   0  0  0  0  0  0  0  0  0  0  0  0
  159.5675  142.1706  181.9778 C   0  0  0  0  0  0  0  0  0  0  0  0
  158.0416  141.4561  180.2372 C   0  0  0  0  0  0  0  0  0  0  0  0
  157.6062  143.5844  181.2848 C   0  0  0  0  0  0  0  0  0  0  0  0
  154.5592  135.8898  189.9061 C   0  0  0  0  0  0  0  0  0  0  0  0
  149.5458  134.8478  193.2863 C   0  0  0  0  0  0  0  0  0  0  0  0
  150.5946  134.5302  192.3342 N   0  0  0  0  0  0  0  0  0  0  0  0
  151.5432  135.4800  192.1114 C   0  0  0  0  0  0  0  0  0  0  0  0
  151.5038  136.6611  192.8023 C   0  0  0  0  0  0  0  0  0  0  0  0
  152.4716  137.5829  192.5945 C   0  0  0  0  0  0  0  0  0  0  0  0
  153.4699  137.3079  191.6904 C   0  0  0  0  0  0  0  0  0  0  0  0
  153.5895  136.1489  190.9441 C   0  0  0  0  0  0  0  0  0  0  0  0
  152.5584  135.2064  191.1931 C   0  0  0  0  0  0  0  0  0  0  0  0
  152.5192  133.9997  190.5839 C   0  0  0  0  0  0  0  0  0  0  0  0
  153.3783  133.6838  189.7593 O   0  0  0  0  0  0  0  0  0  0  0  0
  151.5628  133.0560  190.8154 N   0  0  0  0  0  0  0  0  0  0  0  0
  151.6341  131.7583  190.1207 C   0  0  0  0  0  0  0  0  0  0  0  0
  150.5964  133.3348  191.6975 C   0  0  0  0  0  0  0  0  0  0  0  0
  149.6831  132.5036  191.9445 O   0  0  0  0  0  0  0  0  0  0  0  0
 21 22  1  0  0  0
 22 23  1  0  0  0
 23 24  2  0  0  0
 24 25  1  0  0  0
 25 26  2  0  0  0
 26 27  1  0  0  0
 27 20  1  0  0  0
 20  1  1  0  0  0
  1  2  2  0  0  0
  1  3  1  0  0  0
  3  5  1  0  0  0
  5  6  2  0  0  0
  6  7  1  0  0  0
  7  8  2  0  0  0
  8  9  1  0  0  0
  7 10  1  0  0  0
 10 11  2  0  0  0
 11 12  1  0  0  0
 12 13  2  0  0  0
 13 14  1  0  0  0
 14 15  2  0  0  0
 13 16  1  0  0  0
 16 17  1  0  0  0
 16 18  1  0  0  0
 16 19  1  0  0  0
 27 28  2  0  0  0
 28 29  1  0  0  0
 29 30  2  0  0  0
 29 31  1  0  0  0
 31 32  1  0  0  0
 31 33  1  0  0  0
 33 34  2  0  0  0
 33 22  1  0  0  0
 28 23  1  0  0  0
  9  5  1  0  0  0
 15 10  1  0  0  0
  3  4  1  0  0  0
M  END
> <minimizedAffinity>
-7.28179

> <CNNscore>
0.3294985890

> <CNNaffinity>
6.0494294167

> <CNN_VS>
1.9932785034

> <CNNaffinity_variance>
0.2876297534

$$$$
[H]c1sc(N([H])C(=O)C([H])([H])c2c([H])c([H])c([H])c3c2c(=O)n(C([H])([H])[H])c(=O)n3C([H])([H])[H])nc1-c1c([H])c([H])c(C(C([H])([H])[H])(C([H])([H])[H])C([H])([H])[H])c([H])c1[H]


 34 37  0  0  0  0  0  0  0  0999 V2000
  155.2561  137.4252  188.9276 C   0  0  0  0  0  0  0  0  0  0  0  0
  154.7323  138.6237  188.7785 O   0  0  0  0  0  0  0  0  0  0  0  0
  155.3862  136.7772  187.6790 N   0  0  0  0  0  0  0  0  0  0  0  0
  155.7257  135.8297  187.4695 H   0  0  0  0  0  0  0  0  0  0  0  0
  155.3023  137.6198  186.4880 C   0  0  0  0  0  0  0  0  0  0  0  0
  156.0099  138.5205  185.9023 N   0  0  0  0  0  0  0  0  0  0  0  0
  155.5615  139.2537  184.9558 C   0  0  0  0  0  0  0  0  0  0  0  0
  154.2155  139.0226  184.5745 C   0  0  0  0  0  0  0  0  0  0  0  0
  153.7703  137.7800  185.6142 S   0  0  0  0  0  0  0  0  0  0  0  0
  156.2847  140.1725  184.0390 C   0  0  0  0  0  0  0  0  0  0  0  0
  157.5260  140.6671  184.3728 C   0  0  0  0  0  0  0  0  0  0  0  0
  158.1052  141.7409  183.7109 C   0  0  0  0  0  0  0  0  0  0  0  0
  157.4298  142.3591  182.6779 C   0  0  0  0  0  0  0  0  0  0  0  0
  156.1691  141.8783  182.3120 C   0  0  0  0  0  0  0  0  0  0  0  0
  155.6083  140.7836  182.9919 C   0  0  0  0  0  0  0  0  0  0  0  0
  157.9069  143.5790  181.9990 C   0  0  0  0  0  0  0  0  0  0  0  0
  156.9378  144.7245  182.0644 C   0  0  0  0  0  0  0  0  0  0  0  0
  159.1745  144.0833  182.7386 C   0  0  0  0  0  0  0  0  0  0  0  0
  158.4014  143.3066  180.5901 C   0  0  0  0  0  0  0  0  0  0  0  0
  155.6098  136.9742  190.2650 C   0  0  0  0  0  0  0  0  0  0  0  0
  152.6882  132.5342  193.3305 C   0  0  0  0  0  0  0  0  0  0  0  0
  152.9559  133.8938  192.8975 N   0  0  0  0  0  0  0  0  0  0  0  0
  153.9557  134.0745  191.9923 C   0  0  0  0  0  0  0  0  0  0  0  0
  154.6362  132.9935  191.5000 C   0  0  0  0  0  0  0  0  0  0  0  0
  155.6057  133.1853  190.5765 C   0  0  0  0  0  0  0  0  0  0  0  0
  155.8830  134.4651  190.1583 C   0  0  0  0  0  0  0  0  0  0  0  0
  155.2546  135.6156  190.6011 C   0  0  0  0  0  0  0  0  0  0  0  0
  154.2424  135.3723  191.5654 C   0  0  0  0  0  0  0  0  0  0  0  0
  153.4940  136.3666  192.0946 C   0  0  0  0  0  0  0  0  0  0  0  0
  153.6869  137.5393  191.7701 O   0  0  0  0  0  0  0  0  0  0  0  0
  152.4946  136.1728  193.0016 N   0  0  0  0  0  0  0  0  0  0  0  0
  151.7171  137.3258  193.4891 C   0  0  0  0  0  0  0  0  0  0  0  0
  152.2336  134.9229  193.4009 C   0  0  0  0  0  0  0  0  0  0  0  0
  151.3272  134.6861  194.2426 O   0  0  0  0  0  0  0  0  0  0  0  0
 21 22  1  0  0  0
 22 23  1  0  0  0
 23 24  2  0  0  0
 24 25  1  0  0  0
 25 26  2  0  0  0
 26 27  1  0  0  0
 27 20  1  0  0  0
 20  1  1  0  0  0
  1  2  2  0  0  0
  1  3  1  0  0  0
  3  5  1  0  0  0
  5  6  2  0  0  0
  6  7  1  0  0  0
  7  8  2  0  0  0
  8  9  1  0  0  0
  7 10  1  0  0  0
 10 11  2  0  0  0
 11 12  1  0  0  0
 12 13  2  0  0  0
 13 14  1  0  0  0
 14 15  2  0  0  0
 13 16  1  0  0  0
 16 17  1  0  0  0
 16 18  1  0  0  0
 16 19  1  0  0  0
 27 28  2  0  0  0
 28 29  1  0  0  0
 29 30  2  0  0  0
 29 31  1  0  0  0
 31 32  1  0  0  0
 31 33  1  0  0  0
 33 34  2  0  0  0
 33 22  1  0  0  0
 28 23  1  0  0  0
  9  5  1  0  0  0
 15 10  1  0  0  0
  3  4  1  0  0  0
M  END
> <minimizedAffinity>
-7.69509

> <CNNscore>
0.3170391321

> <CNNaffinity>
5.9994921684

> <CNN_VS>
1.9020737410

> <CNNaffinity_variance>
0.0376165807

$$$$
[H]c1sc(N([H])C(=O)C([H])([H])c2c([H])c([H])c([H])c3c2c(=O)n(C([H])([H])[H])c(=O)n3C([H])([H])[H])nc1-c1c([H])c([H])c(C(C([H])([H])[H])(C([H])([H])[H])C([H])([H])[H])c([H])c1[H]


 34 37  0  0  0  0  0  0  0  0999 V2000
  154.2553  137.4004  188.7595 C   0  0  0  0  0  0  0  0  0  0  0  0
  153.8015  138.6134  188.5229 O   0  0  0  0  0  0  0  0  0  0  0  0
  154.4995  136.7129  187.5498 N   0  0  0  0  0  0  0  0  0  0  0  0
  154.8214  135.7476  187.4032 H   0  0  0  0  0  0  0  0  0  0  0  0
  154.5861  137.5240  186.3373 C   0  0  0  0  0  0  0  0  0  0  0  0
  155.2682  138.5245  185.9031 N   0  0  0  0  0  0  0  0  0  0  0  0
  154.9624  139.1698  184.8426 C   0  0  0  0  0  0  0  0  0  0  0  0
  153.8079  138.7208  184.1528 C   0  0  0  0  0  0  0  0  0  0  0  0
  153.3161  137.4281  185.1069 S   0  0  0  0  0  0  0  0  0  0  0  0
  155.7395  140.1888  184.0907 C   0  0  0  0  0  0  0  0  0  0  0  0
  155.1646  140.8876  183.0523 C   0  0  0  0  0  0  0  0  0  0  0  0
  155.9121  141.6186  182.1393 C   0  0  0  0  0  0  0  0  0  0  0  0
  157.2875  141.6590  182.2501 C   0  0  0  0  0  0  0  0  0  0  0  0
  157.9014  140.9633  183.2958 C   0  0  0  0  0  0  0  0  0  0  0  0
  157.1215  140.2380  184.2127 C   0  0  0  0  0  0  0  0  0  0  0  0
  158.1722  142.3037  181.2611 C   0  0  0  0  0  0  0  0  0  0  0  0
  159.6336  142.0648  181.5121 C   0  0  0  0  0  0  0  0  0  0  0  0
  157.8945  141.6683  179.8727 C   0  0  0  0  0  0  0  0  0  0  0  0
  157.8432  143.7707  181.0535 C   0  0  0  0  0  0  0  0  0  0  0  0
  154.4361  136.9744  190.1390 C   0  0  0  0  0  0  0  0  0  0  0  0
  155.4178  131.2263  192.0472 C   0  0  0  0  0  0  0  0  0  0  0  0
  154.6286  132.4001  191.7206 N   0  0  0  0  0  0  0  0  0  0  0  0
  155.2910  133.4760  191.2152 C   0  0  0  0  0  0  0  0  0  0  0  0
  156.6410  133.4082  190.9987 C   0  0  0  0  0  0  0  0  0  0  0  0
  157.2809  134.4739  190.4655 C   0  0  0  0  0  0  0  0  0  0  0  0
  156.5556  135.6001  190.1570 C   0  0  0  0  0  0  0  0  0  0  0  0
  155.1944  135.7629  190.3444 C   0  0  0  0  0  0  0  0  0  0  0  0
  154.5594  134.6228  190.9015 C   0  0  0  0  0  0  0  0  0  0  0  0
  153.2273  134.5765  191.1300 C   0  0  0  0  0  0  0  0  0  0  0  0
  152.5128  135.5488  190.8811 O   0  0  0  0  0  0  0  0  0  0  0  0
  152.5748  133.4922  191.6373 N   0  0  0  0  0  0  0  0  0  0  0  0
  151.1126  133.5369  191.8151 C   0  0  0  0  0  0  0  0  0  0  0  0
  153.2912  132.4018  191.9337 C   0  0  0  0  0  0  0  0  0  0  0  0
  152.7421  131.3744  192.4122 O   0  0  0  0  0  0  0  0  0  0  0  0
 21 22  1  0  0  0
 22 23  1  0  0  0
 23 24  2  0  0  0
 24 25  1  0  0  0
 25 26  2  0  0  0
 26 27  1  0  0  0
 27 20  1  0  0  0
 20  1  1  0  0  0
  1  2  2  0  0  0
  1  3  1  0  0  0
  3  5  1  0  0  0
  5  6  2  0  0  0
  6  7  1  0  0  0
  7  8  2  0  0  0
  8  9  1  0  0  0
  7 10  1  0  0  0
 10 11  2  0  0  0
 11 12  1  0  0  0
 12 13  2  0  0  0
 13 14  1  0  0  0
 14 15  2  0  0  0
 13 16  1  0  0  0
 16 17  1  0  0  0
 16 18  1  0  0  0
 16 19  1  0  0  0
 27 28  2  0  0  0
 28 29  1  0  0  0
 29 30  2  0  0  0
 29 31  1  0  0  0
 31 32  1  0  0  0
 31 33  1  0  0  0
 33 34  2  0  0  0
 33 22  1  0  0  0
 28 23  1  0  0  0
  9  5  1  0  0  0
 15 10  1  0  0  0
  3  4  1  0  0  0
M  END
> <minimizedAffinity>
-7.02842

> <CNNscore>
0.2926420867

> <CNNaffinity>
5.9297766685

> <CNN_VS>
1.7353022099

> <CNNaffinity_variance>
0.1383956075

$$$$
[H]c1sc(N([H])C(=O)C([H])([H])c2c([H])c([H])c([H])c3c2c(=O)n(C([H])([H])[H])c(=O)n3C([H])([H])[H])nc1-c1c([H])c([H])c(C(C([H])([H])[H])(C([H])([H])[H])C([H])([H])[H])c([H])c1[H]


 34 37  0  0  0  0  0  0  0  0999 V2000
  153.2063  137.2452  187.3064 C   0  0  0  0  0  0  0  0  0  0  0  0
  152.9687  138.5400  187.3213 O   0  0  0  0  0  0  0  0  0  0  0  0
  153.4832  136.8026  185.9937 N   0  0  0  0  0  0  0  0  0  0  0  0
  153.6724  135.8509  185.6539 H   0  0  0  0  0  0  0  0  0  0  0  0
  153.8290  137.8284  185.0120 C   0  0  0  0  0  0  0  0  0  0  0  0
  154.5687  138.8789  184.9472 N   0  0  0  0  0  0  0  0  0  0  0  0
  154.5016  139.7212  183.9877 C   0  0  0  0  0  0  0  0  0  0  0  0
  153.5501  139.4364  182.9757 C   0  0  0  0  0  0  0  0  0  0  0  0
  152.8820  137.9959  183.5251 S   0  0  0  0  0  0  0  0  0  0  0  0
  155.4069  140.8485  183.6454 C   0  0  0  0  0  0  0  0  0  0  0  0
  155.2483  141.5466  182.4688 C   0  0  0  0  0  0  0  0  0  0  0  0
  156.2256  142.3938  181.9650 C   0  0  0  0  0  0  0  0  0  0  0  0
  157.4146  142.5568  182.6471 C   0  0  0  0  0  0  0  0  0  0  0  0
  157.6050  141.8651  183.8470 C   0  0  0  0  0  0  0  0  0  0  0  0
  156.5962  141.0203  184.3407 C   0  0  0  0  0  0  0  0  0  0  0  0
  158.5567  143.3354  182.1315 C   0  0  0  0  0  0  0  0  0  0  0  0
  158.3266  144.8195  182.1353 C   0  0  0  0  0  0  0  0  0  0  0  0
  159.7643  143.1143  183.0809 C   0  0  0  0  0  0  0  0  0  0  0  0
  159.0565  142.8211  180.7939 C   0  0  0  0  0  0  0  0  0  0  0  0
  153.1612  136.5080  188.5600 C   0  0  0  0  0  0  0  0  0  0  0  0
  148.6510  134.1501  191.9870 C   0  0  0  0  0  0  0  0  0  0  0  0
  149.7845  135.0077  191.6920 N   0  0  0  0  0  0  0  0  0  0  0  0
  150.3005  134.9487  190.4343 C   0  0  0  0  0  0  0  0  0  0  0  0
  149.7265  134.1325  189.4972 C   0  0  0  0  0  0  0  0  0  0  0  0
  150.2299  134.1083  188.2419 C   0  0  0  0  0  0  0  0  0  0  0  0
  151.3092  134.9050  187.9420 C   0  0  0  0  0  0  0  0  0  0  0  0
  151.9571  135.7549  188.8208 C   0  0  0  0  0  0  0  0  0  0  0  0
  151.3976  135.7547  190.1248 C   0  0  0  0  0  0  0  0  0  0  0  0
  151.8723  136.5432  191.1155 C   0  0  0  0  0  0  0  0  0  0  0  0
  152.8392  137.2819  190.9221 O   0  0  0  0  0  0  0  0  0  0  0  0
  151.3466  136.5934  192.3725 N   0  0  0  0  0  0  0  0  0  0  0  0
  151.9212  137.5154  193.3682 C   0  0  0  0  0  0  0  0  0  0  0  0
  150.2962  135.8136  192.6527 C   0  0  0  0  0  0  0  0  0  0  0  0
  149.7753  135.8133  193.7993 O   0  0  0  0  0  0  0  0  0  0  0  0
 21 22  1  0  0  0
 22 23  1  0  0  0
 23 24  2  0  0  0
 24 25  1  0  0  0
 25 26  2  0  0  0
 26 27  1  0  0  0
 27 20  1  0  0  0
 20  1  1  0  0  0
  1  2  2  0  0  0
  1  3  1  0  0  0
  3  5  1  0  0  0
  5  6  2  0  0  0
  6  7  1  0  0  0
  7  8  2  0  0  0
  8  9  1  0  0  0
  7 10  1  0  0  0
 10 11  2  0  0  0
 11 12  1  0  0  0
 12 13  2  0  0  0
 13 14  1  0  0  0
 14 15  2  0  0  0
 13 16  1  0  0  0
 16 17  1  0  0  0
 16 18  1  0  0  0
 16 19  1  0  0  0
 27 28  2  0  0  0
 28 29  1  0  0  0
 29 30  2  0  0  0
 29 31  1  0  0  0
 31 32  1  0  0  0
 31 33  1  0  0  0
 33 34  2  0  0  0
 33 22  1  0  0  0
 28 23  1  0  0  0
  9  5  1  0  0  0
 15 10  1  0  0  0
  3  4  1  0  0  0
M  END
> <minimizedAffinity>
-7.89419

> <CNNscore>
0.2798287272

> <CNNaffinity>
5.9854083061

> <CNN_VS>
1.6748892069

> <CNNaffinity_variance>
0.1720606089

$$$$
[H]c1sc(N([H])C(=O)C([H])([H])c2c([H])c([H])c([H])c3c2c(=O)n(C([H])([H])[H])c(=O)n3C([H])([H])[H])nc1-c1c([H])c([H])c(C(C([H])([H])[H])(C([H])([H])[H])C([H])([H])[H])c([H])c1[H]


 34 37  0  0  0  0  0  0  0  0999 V2000
  153.2534  136.0574  183.9805 C   0  0  0  0  0  0  0  0  0  0  0  0
  154.3078  136.7357  184.3824 O   0  0  0  0  0  0  0  0  0  0  0  0
  152.3336  136.9054  183.3241 N   0  0  0  0  0  0  0  0  0  0  0  0
  151.4097  136.6838  182.9315 H   0  0  0  0  0  0  0  0  0  0  0  0
  152.8364  138.2032  182.8789 C   0  0  0  0  0  0  0  0  0  0  0  0
  153.7587  139.0363  183.2110 N   0  0  0  0  0  0  0  0  0  0  0  0
  153.8223  140.2270  182.7498 C   0  0  0  0  0  0  0  0  0  0  0  0
  152.8034  140.5946  181.8347 C   0  0  0  0  0  0  0  0  0  0  0  0
  151.8927  139.1853  181.7471 S   0  0  0  0  0  0  0  0  0  0  0  0
  154.9131  141.2307  182.8522 C   0  0  0  0  0  0  0  0  0  0  0  0
  154.6955  142.5451  182.5028 C   0  0  0  0  0  0  0  0  0  0  0  0
  155.7321  143.4446  182.2954 C   0  0  0  0  0  0  0  0  0  0  0  0
  157.0417  143.0302  182.4324 C   0  0  0  0  0  0  0  0  0  0  0  0
  157.2961  141.7029  182.7901 C   0  0  0  0  0  0  0  0  0  0  0  0
  156.2286  140.8140  183.0035 C   0  0  0  0  0  0  0  0  0  0  0  0
  158.2079  143.8758  182.1138 C   0  0  0  0  0  0  0  0  0  0  0  0
  157.9693  145.3419  182.3360 C   0  0  0  0  0  0  0  0  0  0  0  0
  159.3583  143.5047  183.0871 C   0  0  0  0  0  0  0  0  0  0  0  0
  158.7892  143.5754  180.7444 C   0  0  0  0  0  0  0  0  0  0  0  0
  153.1949  134.6278  184.2446 C   0  0  0  0  0  0  0  0  0  0  0  0
  158.1334  131.5102  182.3637 C   0  0  0  0  0  0  0  0  0  0  0  0
  156.9287  132.3059  182.2123 N   0  0  0  0  0  0  0  0  0  0  0  0
  156.3035  132.7134  183.3501 C   0  0  0  0  0  0  0  0  0  0  0  0
  156.8362  132.4024  184.5722 C   0  0  0  0  0  0  0  0  0  0  0  0
  156.2217  132.8418  185.6942 C   0  0  0  0  0  0  0  0  0  0  0  0
  155.0740  133.5891  185.5755 C   0  0  0  0  0  0  0  0  0  0  0  0
  154.4604  133.9475  184.3884 C   0  0  0  0  0  0  0  0  0  0  0  0
  155.1367  133.4713  183.2354 C   0  0  0  0  0  0  0  0  0  0  0  0
  154.7093  133.7447  181.9818 C   0  0  0  0  0  0  0  0  0  0  0  0
  153.6866  134.4063  181.7969 O   0  0  0  0  0  0  0  0  0  0  0  0
  155.3446  133.3302  180.8489 N   0  0  0  0  0  0  0  0  0  0  0  0
  154.8104  133.7138  179.5301 C   0  0  0  0  0  0  0  0  0  0  0  0
  156.4607  132.6037  180.9768 C   0  0  0  0  0  0  0  0  0  0  0  0
  157.0841  132.1876  179.9648 O   0  0  0  0  0  0  0  0  0  0  0  0
 21 22  1  0  0  0
 22 23  1  0  0  0
 23 24  2  0  0  0
 24 25  1  0  0  0
 25 26  2  0  0  0
 26 27  1  0  0  0
 27 20  1  0  0  0
 20  1  1  0  0  0
  1  2  2  0  0  0
  1  3  1  0  0  0
  3  5  1  0  0  0
  5  6  2  0  0  0
  6  7  1  0  0  0
  7  8  2  0  0  0
  8  9  1  0  0  0
  7 10  1  0  0  0
 10 11  2  0  0  0
 11 12  1  0  0  0
 12 13  2  0  0  0
 13 14  1  0  0  0
 14 15  2  0  0  0
 13 16  1  0  0  0
 16 17  1  0  0  0
 16 18  1  0  0  0
 16 19  1  0  0  0
 27 28  2  0  0  0
 28 29  1  0  0  0
 29 30  2  0  0  0
 29 31  1  0  0  0
 31 32  1  0  0  0
 31 33  1  0  0  0
 33 34  2  0  0  0
 33 22  1  0  0  0
 28 23  1  0  0  0
  9  5  1  0  0  0
 15 10  1  0  0  0
  3  4  1  0  0  0
M  END
> <minimizedAffinity>
-7.67293

> <CNNscore>
0.2779675722

> <CNNaffinity>
6.2034082413

> <CNN_VS>
1.7243462801

> <CNNaffinity_variance>
0.0675478429

$$$$
[H]c1sc(N([H])C(=O)C([H])([H])c2c([H])c([H])c([H])c3c2c(=O)n(C([H])([H])[H])c(=O)n3C([H])([H])[H])nc1-c1c([H])c([H])c(C(C([H])([H])[H])(C([H])([H])[H])C([H])([H])[H])c([H])c1[H]


 34 37  0  0  0  0  0  0  0  0999 V2000
  154.1805  136.9991  189.2009 C   0  0  0  0  0  0  0  0  0  0  0  0
  153.5668  138.1382  188.9583 O   0  0  0  0  0  0  0  0  0  0  0  0
  154.4238  136.2963  187.9998 N   0  0  0  0  0  0  0  0  0  0  0  0
  154.8505  135.3712  187.8619 H   0  0  0  0  0  0  0  0  0  0  0  0
  154.3278  137.0611  186.7583 C   0  0  0  0  0  0  0  0  0  0  0  0
  153.6723  137.0106  185.6525 N   0  0  0  0  0  0  0  0  0  0  0  0
  153.9668  137.7247  184.6337 C   0  0  0  0  0  0  0  0  0  0  0  0
  155.0768  138.5940  184.7836 C   0  0  0  0  0  0  0  0  0  0  0  0
  155.5486  138.2825  186.3659 S   0  0  0  0  0  0  0  0  0  0  0  0
  153.2060  137.9509  183.3777 C   0  0  0  0  0  0  0  0  0  0  0  0
  153.1940  139.1894  182.7752 C   0  0  0  0  0  0  0  0  0  0  0  0
  152.2794  139.5316  181.7887 C   0  0  0  0  0  0  0  0  0  0  0  0
  151.3306  138.6156  181.3810 C   0  0  0  0  0  0  0  0  0  0  0  0
  151.3187  137.3480  181.9705 C   0  0  0  0  0  0  0  0  0  0  0  0
  152.2614  137.0229  182.9608 C   0  0  0  0  0  0  0  0  0  0  0  0
  150.2440  138.9261  180.4326 C   0  0  0  0  0  0  0  0  0  0  0  0
  149.5981  137.7089  179.8352 C   0  0  0  0  0  0  0  0  0  0  0  0
  149.1082  139.6416  181.2113 C   0  0  0  0  0  0  0  0  0  0  0  0
  150.6565  139.9461  179.3871 C   0  0  0  0  0  0  0  0  0  0  0  0
  154.5055  136.6550  190.5768 C   0  0  0  0  0  0  0  0  0  0  0  0
  149.7773  133.7894  193.2372 C   0  0  0  0  0  0  0  0  0  0  0  0
  150.9748  133.9013  192.4242 N   0  0  0  0  0  0  0  0  0  0  0  0
  151.5682  135.1237  192.3531 C   0  0  0  0  0  0  0  0  0  0  0  0
  151.0546  136.1757  193.0627 C   0  0  0  0  0  0  0  0  0  0  0  0
  151.6737  137.3770  193.0083 C   0  0  0  0  0  0  0  0  0  0  0  0
  152.8041  137.5091  192.2372 C   0  0  0  0  0  0  0  0  0  0  0  0
  153.3917  136.5083  191.4839 C   0  0  0  0  0  0  0  0  0  0  0  0
  152.7156  135.2637  191.5703 C   0  0  0  0  0  0  0  0  0  0  0  0
  153.1549  134.1562  190.9305 C   0  0  0  0  0  0  0  0  0  0  0  0
  154.1597  134.1985  190.2190 O   0  0  0  0  0  0  0  0  0  0  0  0
  152.5511  132.9363  191.0094 N   0  0  0  0  0  0  0  0  0  0  0  0
  153.1342  131.7854  190.2973 C   0  0  0  0  0  0  0  0  0  0  0  0
  151.4518  132.8199  191.7630 C   0  0  0  0  0  0  0  0  0  0  0  0
  150.8487  131.7191  191.8658 O   0  0  0  0  0  0  0  0  0  0  0  0
 21 22  1  0  0  0
 22 23  1  0  0  0
 23 24  2  0  0  0
 24 25  1  0  0  0
 25 26  2  0  0  0
 26 27  1  0  0  0
 27 20  1  0  0  0
 20  1  1  0  0  0
  1  2  2  0  0  0
  1  3  1  0  0  0
  3  5  1  0  0  0
  5  6  2  0  0  0
  6  7  1  0  0  0
  7  8  2  0  0  0
  8  9  1  0  0  0
  7 10  1  0  0  0
 10 11  2  0  0  0
 11 12  1  0  0  0
 12 13  2  0  0  0
 13 14  1  0  0  0
 14 15  2  0  0  0
 13 16  1  0  0  0
 16 17  1  0  0  0
 16 18  1  0  0  0
 16 19  1  0  0  0
 27 28  2  0  0  0
 28 29  1  0  0  0
 29 30  2  0  0  0
 29 31  1  0  0  0
 31 32  1  0  0  0
 31 33  1  0  0  0
 33 34  2  0  0  0
 33 22  1  0  0  0
 28 23  1  0  0  0
  9  5  1  0  0  0
 15 10  1  0  0  0
  3  4  1  0  0  0
M  END
> <minimizedAffinity>
-6.83494

> <CNNscore>
0.2698321342

> <CNNaffinity>
5.4829282761

> <CNN_VS>
1.4794702530

> <CNNaffinity_variance>
0.1337210089

$$$$
[H]C1=Nc2c([H])c([H])c([H])c([H])c2C([H])([H])c2c(C(=O)OC([H])([H])[H])c([H])c([H])c([H])c21


 19 21  0  0  0  0  0  0  0  0999 V2000
  155.3940  137.6204  188.5086 C   0  0  0  0  0  0  0  0  0  0  0  0
  154.6763  138.5474  189.2585 C   0  0  0  0  0  0  0  0  0  0  0  0
  154.6092  138.4660  190.6224 C   0  0  0  0  0  0  0  0  0  0  0  0
  155.2683  137.4422  191.2616 C   0  0  0  0  0  0  0  0  0  0  0  0
  155.9801  136.5220  190.5286 C   0  0  0  0  0  0  0  0  0  0  0  0
  156.5723  135.5533  191.4113 C   0  0  0  0  0  0  0  0  0  0  0  0
  157.3899  134.5921  191.1775 N   0  0  0  0  0  0  0  0  0  0  0  0
  157.9618  134.1986  189.9394 C   0  0  0  0  0  0  0  0  0  0  0  0
  158.9022  133.1927  190.0969 C   0  0  0  0  0  0  0  0  0  0  0  0
  159.5617  132.6852  189.0015 C   0  0  0  0  0  0  0  0  0  0  0  0
  159.2922  133.1731  187.7407 C   0  0  0  0  0  0  0  0  0  0  0  0
  158.3582  134.1643  187.6318 C   0  0  0  0  0  0  0  0  0  0  0  0
  157.6651  134.7077  188.7226 C   0  0  0  0  0  0  0  0  0  0  0  0
  156.7554  135.7444  188.1776 C   0  0  0  0  0  0  0  0  0  0  0  0
  156.0665  136.5794  189.1431 C   0  0  0  0  0  0  0  0  0  0  0  0
  155.3535  137.8227  187.0724 C   0  0  0  0  0  0  0  0  0  0  0  0
  154.3716  137.3124  186.4115 O   0  0  0  0  0  0  0  0  0  0  0  0
  155.9204  139.1924  185.1089 C   0  0  0  0  0  0  0  0  0  0  0  0
  156.2314  138.4974  186.2728 O   0  0  0  0  0  0  0  0  0  0  0  0
 18 19  1  0  0  0
 19 16  1  0  0  0
 16 17  2  0  0  0
 16  1  1  0  0  0
  1  2  2  0  0  0
  2  3  1  0  0  0
  3  4  2  0  0  0
  4  5  1  0  0  0
  5  6  1  0  0  0
  6  7  2  0  0  0
  7  8  1  0  0  0
  8  9  2  0  0  0
  9 10  1  0  0  0
 10 11  2  0  0  0
 11 12  1  0  0  0
 12 13  2  0  0  0
 13 14  1  0  0  0
 14 15  1  0  0  0
 15  1  1  0  0  0
 15  5  2  0  0  0
 13  8  1  0  0  0
M  END
> <minimizedAffinity>
-6.05531

> <CNNscore>
0.7283868790

> <CNNaffinity>
4.5171813965

> <CNN_VS>
3.2902555466

> <CNNaffinity_variance>
0.0976782963

$$$$
[H]C1=Nc2c([H])c([H])c([H])c([H])c2C([H])([H])c2c(C(=O)OC([H])([H])[H])c([H])c([H])c([H])c21


 19 21  0  0  0  0  0  0  0  0999 V2000
  159.4913  142.9315  183.7920 C   0  0  0  0  0  0  0  0  0  0  0  0
  159.8982  144.1357  183.2255 C   0  0  0  0  0  0  0  0  0  0  0  0
  159.0765  144.8507  182.3978 C   0  0  0  0  0  0  0  0  0  0  0  0
  157.8204  144.3630  182.1230 C   0  0  0  0  0  0  0  0  0  0  0  0
  157.4100  143.1740  182.6785 C   0  0  0  0  0  0  0  0  0  0  0  0
  156.0730  142.8721  182.2433 C   0  0  0  0  0  0  0  0  0  0  0  0
  155.2689  141.9329  182.5873 N   0  0  0  0  0  0  0  0  0  0  0  0
  155.4774  140.8898  183.5271 C   0  0  0  0  0  0  0  0  0  0  0  0
  154.3326  140.1352  183.7296 C   0  0  0  0  0  0  0  0  0  0  0  0
  154.3480  139.0784  184.6102 C   0  0  0  0  0  0  0  0  0  0  0  0
  155.5009  138.7629  185.2968 C   0  0  0  0  0  0  0  0  0  0  0  0
  156.6056  139.5332  185.0666 C   0  0  0  0  0  0  0  0  0  0  0  0
  156.6306  140.6174  184.1782 C   0  0  0  0  0  0  0  0  0  0  0  0
  158.0040  141.1750  184.2226 C   0  0  0  0  0  0  0  0  0  0  0  0
  158.2220  142.4267  183.5225 C   0  0  0  0  0  0  0  0  0  0  0  0
  160.4795  142.2767  184.6285 C   0  0  0  0  0  0  0  0  0  0  0  0
  161.3430  141.5047  184.0629 O   0  0  0  0  0  0  0  0  0  0  0  0
  161.6307  143.0682  186.6535 C   0  0  0  0  0  0  0  0  0  0  0  0
  160.6468  142.3503  185.9820 O   0  0  0  0  0  0  0  0  0  0  0  0
 18 19  1  0  0  0
 19 16  1  0  0  0
 16 17  2  0  0  0
 16  1  1  0  0  0
  1  2  2  0  0  0
  2  3  1  0  0  0
  3  4  2  0  0  0
  4  5  1  0  0  0
  5  6  1  0  0  0
  6  7  2  0  0  0
  7  8  1  0  0  0
  8  9  2  0  0  0
  9 10  1  0  0  0
 10 11  2  0  0  0
 11 12  1  0  0  0
 12 13  2  0  0  0
 13 14  1  0  0  0
 14 15  1  0  0  0
 15  1  1  0  0  0
 15  5  2  0  0  0
 13  8  1  0  0  0
M  END
> <minimizedAffinity>
-7.79994

> <CNNscore>
0.5757080913

> <CNNaffinity>
5.6458864212

> <CNN_VS>
3.2503824234

> <CNNaffinity_variance>
0.0325420909

$$$$
[H]C1=Nc2c([H])c([H])c([H])c([H])c2C([H])([H])c2c(C(=O)OC([H])([H])[H])c([H])c([H])c([H])c21


 19 21  0  0  0  0  0  0  0  0999 V2000
  150.6467  135.7418  189.3366 C   0  0  0  0  0  0  0  0  0  0  0  0
  149.5013  135.3658  190.0318 C   0  0  0  0  0  0  0  0  0  0  0  0
  149.4819  135.3039  191.3983 C   0  0  0  0  0  0  0  0  0  0  0  0
  150.6239  135.6218  192.0955 C   0  0  0  0  0  0  0  0  0  0  0  0
  151.7600  135.9945  191.4167 C   0  0  0  0  0  0  0  0  0  0  0  0
  152.8154  136.2709  192.3538 C   0  0  0  0  0  0  0  0  0  0  0  0
  153.9960  136.7413  192.1755 N   0  0  0  0  0  0  0  0  0  0  0  0
  154.6170  137.1362  190.9618 C   0  0  0  0  0  0  0  0  0  0  0  0
  155.8570  137.7171  191.1766 C   0  0  0  0  0  0  0  0  0  0  0  0
  156.6056  138.1622  190.1118 C   0  0  0  0  0  0  0  0  0  0  0  0
  156.1283  138.0340  188.8250 C   0  0  0  0  0  0  0  0  0  0  0  0
  154.9016  137.4557  188.6596 C   0  0  0  0  0  0  0  0  0  0  0  0
  154.1087  136.9897  189.7177 C   0  0  0  0  0  0  0  0  0  0  0  0
  152.8705  136.4399  189.1142 C   0  0  0  0  0  0  0  0  0  0  0  0
  151.8094  136.0668  190.0301 C   0  0  0  0  0  0  0  0  0  0  0  0
  150.5216  135.7380  187.8911 C   0  0  0  0  0  0  0  0  0  0  0  0
  150.7008  134.6252  187.2658 O   0  0  0  0  0  0  0  0  0  0  0  0
  150.7616  136.9764  185.7788 C   0  0  0  0  0  0  0  0  0  0  0  0
  150.2325  136.7738  187.0491 O   0  0  0  0  0  0  0  0  0  0  0  0
 18 19  1  0  0  0
 19 16  1  0  0  0
 16 17  2  0  0  0
 16  1  1  0  0  0
  1  2  2  0  0  0
  2  3  1  0  0  0
  3  4  2  0  0  0
  4  5  1  0  0  0
  5  6  1  0  0  0
  6  7  2  0  0  0
  7  8  1  0  0  0
  8  9  2  0  0  0
  9 10  1  0  0  0
 10 11  2  0  0  0
 11 12  1  0  0  0
 12 13  2  0  0  0
 13 14  1  0  0  0
 14 15  1  0  0  0
 15  1  1  0  0  0
 15  5  2  0  0  0
 13  8  1  0  0  0
M  END
> <minimizedAffinity>
-5.01714

> <CNNscore>
0.5389301777

> <CNNaffinity>
4.3685121536

> <CNN_VS>
2.3543231487

> <CNNaffinity_variance>
0.0334949270

$$$$
[H]C1=Nc2c([H])c([H])c([H])c([H])c2C([H])([H])c2c(C(=O)OC([H])([H])[H])c([H])c([H])c([H])c21


 19 21  0  0  0  0  0  0  0  0999 V2000
  152.7301  137.3011  185.7522 C   0  0  0  0  0  0  0  0  0  0  0  0
  151.4570  137.0385  185.2551 C   0  0  0  0  0  0  0  0  0  0  0  0
  150.4540  136.5791  186.0641 C   0  0  0  0  0  0  0  0  0  0  0  0
  150.7160  136.3739  187.3984 C   0  0  0  0  0  0  0  0  0  0  0  0
  151.9709  136.6310  187.8981 C   0  0  0  0  0  0  0  0  0  0  0  0
  152.0011  136.3381  189.3058 C   0  0  0  0  0  0  0  0  0  0  0  0
  152.9183  136.5245  190.1837 N   0  0  0  0  0  0  0  0  0  0  0  0
  154.2076  137.0921  190.0092 C   0  0  0  0  0  0  0  0  0  0  0  0
  154.8750  137.2479  191.2141 C   0  0  0  0  0  0  0  0  0  0  0  0
  156.1411  137.7851  191.2384 C   0  0  0  0  0  0  0  0  0  0  0  0
  156.7546  138.1718  190.0661 C   0  0  0  0  0  0  0  0  0  0  0  0
  156.0603  138.0003  188.9019 C   0  0  0  0  0  0  0  0  0  0  0  0
  154.7695  137.4572  188.8351 C   0  0  0  0  0  0  0  0  0  0  0  0
  154.3843  137.4455  187.4030 C   0  0  0  0  0  0  0  0  0  0  0  0
  153.0086  137.0983  187.1012 C   0  0  0  0  0  0  0  0  0  0  0  0
  153.6945  137.7603  184.7703 C   0  0  0  0  0  0  0  0  0  0  0  0
  154.3038  136.8784  184.0543 O   0  0  0  0  0  0  0  0  0  0  0  0
  155.3820  139.5195  184.4380 C   0  0  0  0  0  0  0  0  0  0  0  0
  154.0781  139.0366  184.4715 O   0  0  0  0  0  0  0  0  0  0  0  0
 18 19  1  0  0  0
 19 16  1  0  0  0
 16 17  2  0  0  0
 16  1  1  0  0  0
  1  2  2  0  0  0
  2  3  1  0  0  0
  3  4  2  0  0  0
  4  5  1  0  0  0
  5  6  1  0  0  0
  6  7  2  0  0  0
  7  8  1  0  0  0
  8  9  2  0  0  0
  9 10  1  0  0  0
 10 11  2  0  0  0
 11 12  1  0  0  0
 12 13  2  0  0  0
 13 14  1  0  0  0
 14 15  1  0  0  0
 15  1  1  0  0  0
 15  5  2  0  0  0
 13  8  1  0  0  0
M  END
> <minimizedAffinity>
-5.20055

> <CNNscore>
0.5250185728

> <CNNaffinity>
4.4716758728

> <CNN_VS>
2.3477129936

> <CNNaffinity_variance>
0.0436354578

$$$$
[H]C1=Nc2c([H])c([H])c([H])c([H])c2C([H])([H])c2c(C(=O)OC([H])([H])[H])c([H])c([H])c([H])c21


 19 21  0  0  0  0  0  0  0  0999 V2000
  154.8627  140.3109  183.1204 C   0  0  0  0  0  0  0  0  0  0  0  0
  155.6498  139.9156  184.1978 C   0  0  0  0  0  0  0  0  0  0  0  0
  155.2964  138.8596  184.9924 C   0  0  0  0  0  0  0  0  0  0  0  0
  154.1354  138.1767  184.7150 C   0  0  0  0  0  0  0  0  0  0  0  0
  153.3518  138.5603  183.6522 C   0  0  0  0  0  0  0  0  0  0  0  0
  152.1983  137.7056  183.5676 C   0  0  0  0  0  0  0  0  0  0  0  0
  151.2685  137.6332  182.6860 N   0  0  0  0  0  0  0  0  0  0  0  0
  151.1090  138.4019  181.5035 C   0  0  0  0  0  0  0  0  0  0  0  0
  150.0504  137.9526  180.7296 C   0  0  0  0  0  0  0  0  0  0  0  0
  149.7466  138.5794  179.5434 C   0  0  0  0  0  0  0  0  0  0  0  0
  150.4918  139.6575  179.1162 C   0  0  0  0  0  0  0  0  0  0  0  0
  151.5258  140.0665  179.9102 C   0  0  0  0  0  0  0  0  0  0  0  0
  151.8673  139.4551  181.1247 C   0  0  0  0  0  0  0  0  0  0  0  0
  153.0332  140.1964  181.6636 C   0  0  0  0  0  0  0  0  0  0  0  0
  153.6852  139.6278  182.8279 C   0  0  0  0  0  0  0  0  0  0  0  0
  155.3539  141.4612  182.3852 C   0  0  0  0  0  0  0  0  0  0  0  0
  156.2695  141.2730  181.4976 O   0  0  0  0  0  0  0  0  0  0  0  0
  154.1315  143.3146  183.4451 C   0  0  0  0  0  0  0  0  0  0  0  0
  154.9847  142.7720  182.4901 O   0  0  0  0  0  0  0  0  0  0  0  0
 18 19  1  0  0  0
 19 16  1  0  0  0
 16 17  2  0  0  0
 16  1  1  0  0  0
  1  2  2  0  0  0
  2  3  1  0  0  0
  3  4  2  0  0  0
  4  5  1  0  0  0
  5  6  1  0  0  0
  6  7  2  0  0  0
  7  8  1  0  0  0
  8  9  2  0  0  0
  9 10  1  0  0  0
 10 11  2  0  0  0
 11 12  1  0  0  0
 12 13  2  0  0  0
 13 14  1  0  0  0
 14 15  1  0  0  0
 15  1  1  0  0  0
 15  5  2  0  0  0
 13  8  1  0  0  0
M  END
> <minimizedAffinity>
-7.38382

> <CNNscore>
0.5232487917

> <CNNaffinity>
4.5579743385

> <CNN_VS>
2.3849544525

> <CNNaffinity_variance>
0.1668030918

$$$$
[H]C1=Nc2c([H])c([H])c([H])c([H])c2C([H])([H])c2c(C(=O)OC([H])([H])[H])c([H])c([H])c([H])c21


 19 21  0  0  0  0  0  0  0  0999 V2000
  155.6247  136.5824  190.3293 C   0  0  0  0  0  0  0  0  0  0  0  0
  156.7061  136.1003  189.5980 C   0  0  0  0  0  0  0  0  0  0  0  0
  156.9995  134.7649  189.5510 C   0  0  0  0  0  0  0  0  0  0  0  0
  156.2036  133.8835  190.2445 C   0  0  0  0  0  0  0  0  0  0  0  0
  155.1329  134.3512  190.9694 C   0  0  0  0  0  0  0  0  0  0  0  0
  154.4611  133.2503  191.6060 C   0  0  0  0  0  0  0  0  0  0  0  0
  153.3721  133.2085  192.2836 N   0  0  0  0  0  0  0  0  0  0  0  0
  152.4910  134.2728  192.6084 C   0  0  0  0  0  0  0  0  0  0  0  0
  151.3464  133.8239  193.2486 C   0  0  0  0  0  0  0  0  0  0  0  0
  150.3766  134.7183  193.6385 C   0  0  0  0  0  0  0  0  0  0  0  0
  150.5360  136.0658  193.3957 C   0  0  0  0  0  0  0  0  0  0  0  0
  151.6793  136.4639  192.7622 C   0  0  0  0  0  0  0  0  0  0  0  0
  152.6902  135.5847  192.3494 C   0  0  0  0  0  0  0  0  0  0  0  0
  153.7426  136.4124  191.7117 C   0  0  0  0  0  0  0  0  0  0  0  0
  154.8105  135.7009  191.0354 C   0  0  0  0  0  0  0  0  0  0  0  0
  155.4539  138.0230  190.3033 C   0  0  0  0  0  0  0  0  0  0  0  0
  156.1012  138.7301  191.1650 O   0  0  0  0  0  0  0  0  0  0  0  0
  153.8461  138.3149  188.4642 C   0  0  0  0  0  0  0  0  0  0  0  0
  154.6797  138.7835  189.4741 O   0  0  0  0  0  0  0  0  0  0  0  0
 18 19  1  0  0  0
 19 16  1  0  0  0
 16 17  2  0  0  0
 16  1  1  0  0  0
  1  2  2  0  0  0
  2  3  1  0  0  0
  3  4  2  0  0  0
  4  5  1  0  0  0
  5  6  1  0  0  0
  6  7  2  0  0  0
  7  8  1  0  0  0
  8  9  2  0  0  0
  9 10  1  0  0  0
 10 11  2  0  0  0
 11 12  1  0  0  0
 12 13  2  0  0  0
 13 14  1  0  0  0
 14 15  1  0  0  0
 15  1  1  0  0  0
 15  5  2  0  0  0
 13  8  1  0  0  0
M  END
> <minimizedAffinity>
-4.79922

> <CNNscore>
0.5195282698

> <CNNaffinity>
4.3153514862

> <CNN_VS>
2.2419471741

> <CNNaffinity_variance>
0.1101629138

$$$$
[H]C1=Nc2c([H])c([H])c([H])c([H])c2C([H])([H])c2c(C(=O)OC([H])([H])[H])c([H])c([H])c([H])c21


 19 21  0  0  0  0  0  0  0  0999 V2000
  154.3917  137.9249  189.9384 C   0  0  0  0  0  0  0  0  0  0  0  0
  154.7840  138.3065  188.6588 C   0  0  0  0  0  0  0  0  0  0  0  0
  154.0747  137.9304  187.5512 C   0  0  0  0  0  0  0  0  0  0  0  0
  152.9487  137.1576  187.7124 C   0  0  0  0  0  0  0  0  0  0  0  0
  152.5536  136.7762  188.9729 C   0  0  0  0  0  0  0  0  0  0  0  0
  151.3620  135.9757  188.8857 C   0  0  0  0  0  0  0  0  0  0  0  0
  150.6000  135.4999  189.8020 N   0  0  0  0  0  0  0  0  0  0  0  0
  150.7204  135.6330  191.2101 C   0  0  0  0  0  0  0  0  0  0  0  0
  149.6355  135.0880  191.8789 C   0  0  0  0  0  0  0  0  0  0  0  0
  149.5802  135.1264  193.2529 C   0  0  0  0  0  0  0  0  0  0  0  0
  150.6022  135.7066  193.9736 C   0  0  0  0  0  0  0  0  0  0  0  0
  151.6517  136.2312  193.2736 C   0  0  0  0  0  0  0  0  0  0  0  0
  151.7453  136.2120  191.8749 C   0  0  0  0  0  0  0  0  0  0  0  0
  153.0241  136.8754  191.5228 C   0  0  0  0  0  0  0  0  0  0  0  0
  153.2534  137.1431  190.1157 C   0  0  0  0  0  0  0  0  0  0  0  0
  155.2562  138.3795  191.0113 C   0  0  0  0  0  0  0  0  0  0  0  0
  154.9817  139.5020  191.5824 O   0  0  0  0  0  0  0  0  0  0  0  0
  156.5413  136.4187  191.7572 C   0  0  0  0  0  0  0  0  0  0  0  0
  156.3662  137.7805  191.5352 O   0  0  0  0  0  0  0  0  0  0  0  0
 18 19  1  0  0  0
 19 16  1  0  0  0
 16 17  2  0  0  0
 16  1  1  0  0  0
  1  2  2  0  0  0
  2  3  1  0  0  0
  3  4  2  0  0  0
  4  5  1  0  0  0
  5  6  1  0  0  0
  6  7  2  0  0  0
  7  8  1  0  0  0
  8  9  2  0  0  0
  9 10  1  0  0  0
 10 11  2  0  0  0
 11 12  1  0  0  0
 12 13  2  0  0  0
 13 14  1  0  0  0
 14 15  1  0  0  0
 15  1  1  0  0  0
 15  5  2  0  0  0
 13  8  1  0  0  0
M  END
> <minimizedAffinity>
-6.35834

> <CNNscore>
0.5194591284

> <CNNaffinity>
4.3149471283

> <CNN_VS>
2.2414386272

> <CNNaffinity_variance>
0.0402549691

$$$$
[H]C1=Nc2c([H])c([H])c([H])c([H])c2C([H])([H])c2c(C(=O)OC([H])([H])[H])c([H])c([H])c([H])c21


 19 21  0  0  0  0  0  0  0  0999 V2000
  153.7083  137.0066  187.6125 C   0  0  0  0  0  0  0  0  0  0  0  0
  154.8923  137.3887  186.9889 C   0  0  0  0  0  0  0  0  0  0  0  0
  155.9321  137.9267  187.6965 C   0  0  0  0  0  0  0  0  0  0  0  0
  155.7985  138.0911  189.0553 C   0  0  0  0  0  0  0  0  0  0  0  0
  154.6323  137.7160  189.6797 C   0  0  0  0  0  0  0  0  0  0  0  0
  154.7283  137.9877  191.0887 C   0  0  0  0  0  0  0  0  0  0  0  0
  153.9310  137.7088  192.0548 N   0  0  0  0  0  0  0  0  0  0  0  0
  152.6856  137.0296  192.0060 C   0  0  0  0  0  0  0  0  0  0  0  0
  152.1682  136.7997  193.2712 C   0  0  0  0  0  0  0  0  0  0  0  0
  150.9644  136.1505  193.4182 C   0  0  0  0  0  0  0  0  0  0  0  0
  150.2647  135.7244  192.3096 C   0  0  0  0  0  0  0  0  0  0  0  0
  150.8117  135.9720  191.0822 C   0  0  0  0  0  0  0  0  0  0  0  0
  152.0348  136.6298  190.8905 C   0  0  0  0  0  0  0  0  0  0  0  0
  152.2609  136.6937  189.4262 C   0  0  0  0  0  0  0  0  0  0  0  0
  153.5600  137.1669  188.9876 C   0  0  0  0  0  0  0  0  0  0  0  0
  152.6880  136.4745  186.7288 C   0  0  0  0  0  0  0  0  0  0  0  0
  152.6968  135.2103  186.4775 O   0  0  0  0  0  0  0  0  0  0  0  0
  150.3139  136.8715  186.2201 C   0  0  0  0  0  0  0  0  0  0  0  0
  151.6743  137.1305  186.0905 O   0  0  0  0  0  0  0  0  0  0  0  0
 18 19  1  0  0  0
 19 16  1  0  0  0
 16 17  2  0  0  0
 16  1  1  0  0  0
  1  2  2  0  0  0
  2  3  1  0  0  0
  3  4  2  0  0  0
  4  5  1  0  0  0
  5  6  1  0  0  0
  6  7  2  0  0  0
  7  8  1  0  0  0
  8  9  2  0  0  0
  9 10  1  0  0  0
 10 11  2  0  0  0
 11 12  1  0  0  0
 12 13  2  0  0  0
 13 14  1  0  0  0
 14 15  1  0  0  0
 15  1  1  0  0  0
 15  5  2  0  0  0
 13  8  1  0  0  0
M  END
> <minimizedAffinity>
-5.36789

> <CNNscore>
0.5092203021

> <CNNaffinity>
4.4191489220

> <CNN_VS>
2.2503204346

> <CNNaffinity_variance>
0.0342672393

$$$$
[H]C1=Nc2c([H])c([H])c([H])c([H])c2C([H])([H])c2c(C(=O)OC([H])([H])[H])c([H])c([H])c([H])c21


 19 21  0  0  0  0  0  0  0  0999 V2000
  154.2605  137.1574  190.8517 C   0  0  0  0  0  0  0  0  0  0  0  0
  155.4417  137.6063  191.4348 C   0  0  0  0  0  0  0  0  0  0  0  0
  156.4665  138.1078  190.6800 C   0  0  0  0  0  0  0  0  0  0  0  0
  156.3201  138.1673  189.3139 C   0  0  0  0  0  0  0  0  0  0  0  0
  155.1564  137.7262  188.7294 C   0  0  0  0  0  0  0  0  0  0  0  0
  155.2412  137.8835  187.3024 C   0  0  0  0  0  0  0  0  0  0  0  0
  154.3642  137.7029  186.3831 N   0  0  0  0  0  0  0  0  0  0  0  0
  153.0152  137.2824  186.5178 C   0  0  0  0  0  0  0  0  0  0  0  0
  152.3343  137.3236  185.3112 C   0  0  0  0  0  0  0  0  0  0  0  0
  151.0117  136.9501  185.2508 C   0  0  0  0  0  0  0  0  0  0  0  0
  150.3548  136.5328  186.3885 C   0  0  0  0  0  0  0  0  0  0  0  0
  151.0644  136.5078  187.5559 C   0  0  0  0  0  0  0  0  0  0  0  0
  152.4121  136.8801  187.6589 C   0  0  0  0  0  0  0  0  0  0  0  0
  152.7954  136.7089  189.0813 C   0  0  0  0  0  0  0  0  0  0  0  0
  154.0990  137.2126  189.4699 C   0  0  0  0  0  0  0  0  0  0  0  0
  153.2751  136.6312  191.7775 C   0  0  0  0  0  0  0  0  0  0  0  0
  153.3718  135.3967  192.1354 O   0  0  0  0  0  0  0  0  0  0  0  0
  150.8939  136.8205  192.3663 C   0  0  0  0  0  0  0  0  0  0  0  0
  152.2119  137.2646  192.3553 O   0  0  0  0  0  0  0  0  0  0  0  0
 18 19  1  0  0  0
 19 16  1  0  0  0
 16 17  2  0  0  0
 16  1  1  0  0  0
  1  2  2  0  0  0
  2  3  1  0  0  0
  3  4  2  0  0  0
  4  5  1  0  0  0
  5  6  1  0  0  0
  6  7  2  0  0  0
  7  8  1  0  0  0
  8  9  2  0  0  0
  9 10  1  0  0  0
 10 11  2  0  0  0
 11 12  1  0  0  0
 12 13  2  0  0  0
 13 14  1  0  0  0
 14 15  1  0  0  0
 15  1  1  0  0  0
 15  5  2  0  0  0
 13  8  1  0  0  0
M  END
> <minimizedAffinity>
-5.53261

> <CNNscore>
0.5031206012

> <CNNaffinity>
4.3879613876

> <CNN_VS>
2.2076737881

> <CNNaffinity_variance>
0.1019172296

$$$$
[H]c1c([H])c([H])c2c(c1[H])C(=O)C1([H])C2=NC(=S)N([H])[C@]1([H])c1c([H])c([H])c([H])c(OC([H])([H])C([H])([H])C([H])([H])OC([H])([H])[H])c1[H]


 28 31  0  0  0  0  0  0  0  0999 V2000
  157.7791  140.2739  182.7012 C   0  0  0  0  0  0  0  0  0  0  0  0
  157.8376  140.7322  181.3334 N   0  0  0  0  0  0  0  0  0  0  0  0
  158.6482  141.8228  180.9780 C   0  0  0  0  0  0  0  0  0  0  0  0
  158.6320  142.4315  179.4341 S   0  0  0  0  0  0  0  0  0  0  0  0
  159.4854  142.4069  181.9644 N   0  0  0  0  0  0  0  0  0  0  0  0
  159.5446  141.9828  183.1692 C   0  0  0  0  0  0  0  0  0  0  0  0
  158.7170  140.8068  183.6633 C   0  0  0  0  0  0  0  0  0  0  0  0
  158.2536  141.3799  184.9429 C   0  0  0  0  0  0  0  0  0  0  0  0
  157.1717  141.4323  185.5506 O   0  0  0  0  0  0  0  0  0  0  0  0
  159.4894  141.9955  185.4984 C   0  0  0  0  0  0  0  0  0  0  0  0
  159.9619  142.2328  186.7598 C   0  0  0  0  0  0  0  0  0  0  0  0
  161.2024  142.8260  186.9282 C   0  0  0  0  0  0  0  0  0  0  0  0
  161.9927  143.1929  185.8365 C   0  0  0  0  0  0  0  0  0  0  0  0
  161.5050  142.9485  184.5580 C   0  0  0  0  0  0  0  0  0  0  0  0
  160.2744  142.3584  184.4057 C   0  0  0  0  0  0  0  0  0  0  0  0
  157.2710  140.2227  180.6159 H   0  0  0  0  0  0  0  0  0  0  0  0
  154.7360  138.9102  184.5477 C   0  0  0  0  0  0  0  0  0  0  0  0
  153.7401  139.7640  184.0523 C   0  0  0  0  0  0  0  0  0  0  0  0
  154.0999  140.7196  183.1357 C   0  0  0  0  0  0  0  0  0  0  0  0
  155.3834  140.8903  182.6803 C   0  0  0  0  0  0  0  0  0  0  0  0
  156.3703  140.0668  183.1546 C   0  0  0  0  0  0  0  0  0  0  0  0
  156.0183  139.1014  184.0725 C   0  0  0  0  0  0  0  0  0  0  0  0
  154.3970  137.9470  185.4784 O   0  0  0  0  0  0  0  0  0  0  0  0
  154.6856  137.7839  186.7851 C   0  0  0  0  0  0  0  0  0  0  0  0
  153.8711  138.4510  187.8374 C   0  0  0  0  0  0  0  0  0  0  0  0
  154.4995  138.3069  189.2090 C   0  0  0  0  0  0  0  0  0  0  0  0
  156.4715  138.0728  190.3067 C   0  0  0  0  0  0  0  0  0  0  0  0
  155.8889  138.0979  189.0212 O   0  0  0  0  0  0  0  0  0  0  0  0
 27 28  1  0  0  0
 28 26  1  0  0  0
 26 25  1  0  0  0
 25 24  1  0  0  0
 24 23  1  0  0  0
 23 17  1  0  0  0
 17 18  2  0  0  0
 18 19  1  0  0  0
 19 20  2  0  0  0
 20 21  1  0  0  0
 21 22  2  0  0  0
 21  1  1  0  0  0
  1  2  1  0  0  0
  2  3  1  0  0  0
  3  4  2  0  0  0
  3  5  1  0  0  0
  5  6  2  0  0  0
  6  7  1  0  0  0
  7  8  1  0  0  0
  8  9  2  0  0  0
  8 10  1  0  0  0
 10 11  2  0  0  0
 11 12  1  0  0  0
 12 13  2  0  0  0
 13 14  1  0  0  0
 14 15  2  0  0  0
 22 17  1  0  0  0
  7  1  1  0  0  0
 15 10  1  0  0  0
 15  6  1  0  0  0
  2 16  1  0  0  0
M  END
> <minimizedAffinity>
-8.26113

> <CNNscore>
0.7120422125

> <CNNaffinity>
6.6905808449

> <CNN_VS>
4.7639760971

> <CNNaffinity_variance>
0.1797377616

$$$$
[H]c1c([H])c([H])c2c(c1[H])C(=O)C1([H])C2=NC(=S)N([H])[C@]1([H])c1c([H])c([H])c([H])c(OC([H])([H])C([H])([H])C([H])([H])OC([H])([H])[H])c1[H]


 28 31  0  0  0  0  0  0  0  0999 V2000
  155.1101  141.4008  182.9332 C   0  0  0  0  0  0  0  0  0  0  0  0
  154.1692  141.2917  181.8438 N   0  0  0  0  0  0  0  0  0  0  0  0
  153.2681  140.2162  181.7812 C   0  0  0  0  0  0  0  0  0  0  0  0
  152.2647  140.0176  180.4742 S   0  0  0  0  0  0  0  0  0  0  0  0
  153.2285  139.2897  182.8560 N   0  0  0  0  0  0  0  0  0  0  0  0
  153.9733  139.3890  183.8904 C   0  0  0  0  0  0  0  0  0  0  0  0
  154.9801  140.5146  184.0676 C   0  0  0  0  0  0  0  0  0  0  0  0
  156.1266  139.7172  184.5475 C   0  0  0  0  0  0  0  0  0  0  0  0
  157.3430  139.6756  184.3000 O   0  0  0  0  0  0  0  0  0  0  0  0
  155.5040  138.8086  185.5482 C   0  0  0  0  0  0  0  0  0  0  0  0
  155.9366  138.1997  186.6941 C   0  0  0  0  0  0  0  0  0  0  0  0
  155.0640  137.4076  187.4224 C   0  0  0  0  0  0  0  0  0  0  0  0
  153.7421  137.2103  187.0165 C   0  0  0  0  0  0  0  0  0  0  0  0
  153.3107  137.8324  185.8508 C   0  0  0  0  0  0  0  0  0  0  0  0
  154.1858  138.6160  185.1395 C   0  0  0  0  0  0  0  0  0  0  0  0
  154.1695  142.0405  181.1124 H   0  0  0  0  0  0  0  0  0  0  0  0
  158.6304  142.8410  182.6817 C   0  0  0  0  0  0  0  0  0  0  0  0
  159.1019  142.1525  181.5548 C   0  0  0  0  0  0  0  0  0  0  0  0
  158.2533  141.2766  180.9259 C   0  0  0  0  0  0  0  0  0  0  0  0
  156.9686  141.0322  181.3425 C   0  0  0  0  0  0  0  0  0  0  0  0
  156.4911  141.6939  182.4430 C   0  0  0  0  0  0  0  0  0  0  0  0
  157.3344  142.5787  183.0793 C   0  0  0  0  0  0  0  0  0  0  0  0
  159.4716  143.7207  183.3354 O   0  0  0  0  0  0  0  0  0  0  0  0
  160.3817  143.5699  184.3185 C   0  0  0  0  0  0  0  0  0  0  0  0
  160.3532  142.3787  185.2108 C   0  0  0  0  0  0  0  0  0  0  0  0
  160.5376  142.7626  186.6653 C   0  0  0  0  0  0  0  0  0  0  0  0
  162.7576  142.7608  187.1347 C   0  0  0  0  0  0  0  0  0  0  0  0
  161.6849  143.5914  186.7450 O   0  0  0  0  0  0  0  0  0  0  0  0
 27 28  1  0  0  0
 28 26  1  0  0  0
 26 25  1  0  0  0
 25 24  1  0  0  0
 24 23  1  0  0  0
 23 17  1  0  0  0
 17 18  2  0  0  0
 18 19  1  0  0  0
 19 20  2  0  0  0
 20 21  1  0  0  0
 21 22  2  0  0  0
 21  1  1  0  0  0
  1  2  1  0  0  0
  2  3  1  0  0  0
  3  4  2  0  0  0
  3  5  1  0  0  0
  5  6  2  0  0  0
  6  7  1  0  0  0
  7  8  1  0  0  0
  8  9  2  0  0  0
  8 10  1  0  0  0
 10 11  2  0  0  0
 11 12  1  0  0  0
 12 13  2  0  0  0
 13 14  1  0  0  0
 14 15  2  0  0  0
 22 17  1  0  0  0
  7  1  1  0  0  0
 15 10  1  0  0  0
 15  6  1  0  0  0
  2 16  1  0  0  0
M  END
> <minimizedAffinity>
-8.26583

> <CNNscore>
0.5941514969

> <CNNaffinity>
6.5013656616

> <CNN_VS>
3.8627960682

> <CNNaffinity_variance>
0.1104773656

$$$$
[H]c1c([H])c([H])c2c(c1[H])C(=O)C1([H])C2=NC(=S)N([H])[C@]1([H])c1c([H])c([H])c([H])c(OC([H])([H])C([H])([H])C([H])([H])OC([H])([H])[H])c1[H]


 28 31  0  0  0  0  0  0  0  0999 V2000
  155.4031  137.7000  189.3781 C   0  0  0  0  0  0  0  0  0  0  0  0
  154.3445  137.8614  190.3463 N   0  0  0  0  0  0  0  0  0  0  0  0
  154.1163  136.8824  191.3273 C   0  0  0  0  0  0  0  0  0  0  0  0
  152.8295  137.0008  192.3688 S   0  0  0  0  0  0  0  0  0  0  0  0
  155.0037  135.7780  191.4153 N   0  0  0  0  0  0  0  0  0  0  0  0
  156.0132  135.6311  190.6445 C   0  0  0  0  0  0  0  0  0  0  0  0
  156.3596  136.6304  189.5521 C   0  0  0  0  0  0  0  0  0  0  0  0
  156.6464  135.6789  188.4598 C   0  0  0  0  0  0  0  0  0  0  0  0
  156.3546  135.5980  187.2553 O   0  0  0  0  0  0  0  0  0  0  0  0
  157.4841  134.6470  189.1292 C   0  0  0  0  0  0  0  0  0  0  0  0
  158.4838  133.8073  188.7211 C   0  0  0  0  0  0  0  0  0  0  0  0
  159.0835  132.9577  189.6364 C   0  0  0  0  0  0  0  0  0  0  0  0
  158.6931  132.9329  190.9773 C   0  0  0  0  0  0  0  0  0  0  0  0
  157.6763  133.7891  191.3836 C   0  0  0  0  0  0  0  0  0  0  0  0
  157.0916  134.6271  190.4662 C   0  0  0  0  0  0  0  0  0  0  0  0
  153.7631  138.7306  190.3039 H   0  0  0  0  0  0  0  0  0  0  0  0
  155.3716  138.6770  185.6938 C   0  0  0  0  0  0  0  0  0  0  0  0
  154.0326  138.4085  185.3758 C   0  0  0  0  0  0  0  0  0  0  0  0
  153.2083  137.9460  186.3704 C   0  0  0  0  0  0  0  0  0  0  0  0
  153.6234  137.7258  187.6600 C   0  0  0  0  0  0  0  0  0  0  0  0
  154.9288  137.9804  187.9890 C   0  0  0  0  0  0  0  0  0  0  0  0
  155.7637  138.4489  186.9980 C   0  0  0  0  0  0  0  0  0  0  0  0
  156.2211  139.1346  184.7049 O   0  0  0  0  0  0  0  0  0  0  0  0
  157.1970  140.0644  184.6837 C   0  0  0  0  0  0  0  0  0  0  0  0
  158.5515  139.7396  184.1584 C   0  0  0  0  0  0  0  0  0  0  0  0
  158.5454  139.5803  182.6512 C   0  0  0  0  0  0  0  0  0  0  0  0
  158.4133  140.9351  180.8358 C   0  0  0  0  0  0  0  0  0  0  0  0
  159.0375  140.7869  182.0932 O   0  0  0  0  0  0  0  0  0  0  0  0
 27 28  1  0  0  0
 28 26  1  0  0  0
 26 25  1  0  0  0
 25 24  1  0  0  0
 24 23  1  0  0  0
 23 17  1  0  0  0
 17 18  2  0  0  0
 18 19  1  0  0  0
 19 20  2  0  0  0
 20 21  1  0  0  0
 21 22  2  0  0  0
 21  1  1  0  0  0
  1  2  1  0  0  0
  2  3  1  0  0  0
  3  4  2  0  0  0
  3  5  1  0  0  0
  5  6  2  0  0  0
  6  7  1  0  0  0
  7  8  1  0  0  0
  8  9  2  0  0  0
  8 10  1  0  0  0
 10 11  2  0  0  0
 11 12  1  0  0  0
 12 13  2  0  0  0
 13 14  1  0  0  0
 14 15  2  0  0  0
 22 17  1  0  0  0
  7  1  1  0  0  0
 15 10  1  0  0  0
 15  6  1  0  0  0
  2 16  1  0  0  0
M  END
> <minimizedAffinity>
-6.76661

> <CNNscore>
0.5119111538

> <CNNaffinity>
5.4562005997

> <CNN_VS>
2.7930898666

> <CNNaffinity_variance>
0.1042946354

$$$$
[H]c1c([H])c([H])c2c(c1[H])C(=O)C1([H])C2=NC(=S)N([H])[C@]1([H])c1c([H])c([H])c([H])c(OC([H])([H])C([H])([H])C([H])([H])OC([H])([H])[H])c1[H]


 28 31  0  0  0  0  0  0  0  0999 V2000
  157.8938  140.3004  182.6379 C   0  0  0  0  0  0  0  0  0  0  0  0
  157.9736  140.7841  181.2800 N   0  0  0  0  0  0  0  0  0  0  0  0
  158.7579  141.9058  180.9647 C   0  0  0  0  0  0  0  0  0  0  0  0
  158.7629  142.5406  179.4313 S   0  0  0  0  0  0  0  0  0  0  0  0
  159.5495  142.4989  181.9829 N   0  0  0  0  0  0  0  0  0  0  0  0
  159.5905  142.0559  183.1816 C   0  0  0  0  0  0  0  0  0  0  0  0
  158.7884  140.8458  183.6336 C   0  0  0  0  0  0  0  0  0  0  0  0
  158.2732  141.3815  184.9097 C   0  0  0  0  0  0  0  0  0  0  0  0
  157.1745  141.3891  185.4888 O   0  0  0  0  0  0  0  0  0  0  0  0
  159.4735  142.0262  185.5083 C   0  0  0  0  0  0  0  0  0  0  0  0
  159.9046  142.2563  186.7858 C   0  0  0  0  0  0  0  0  0  0  0  0
  161.1206  142.8855  186.9974 C   0  0  0  0  0  0  0  0  0  0  0  0
  161.9273  143.2962  185.9336 C   0  0  0  0  0  0  0  0  0  0  0  0
  161.4816  143.0588  184.6386 C   0  0  0  0  0  0  0  0  0  0  0  0
  160.2750  142.4328  184.4434 C   0  0  0  0  0  0  0  0  0  0  0  0
  157.4428  140.2696  180.5392 H   0  0  0  0  0  0  0  0  0  0  0  0
  154.0851  140.3946  182.7589 C   0  0  0  0  0  0  0  0  0  0  0  0
  153.8448  139.4657  183.7814 C   0  0  0  0  0  0  0  0  0  0  0  0
  154.9235  138.8744  184.3894 C   0  0  0  0  0  0  0  0  0  0  0  0
  156.2265  139.1378  184.0480 C   0  0  0  0  0  0  0  0  0  0  0  0
  156.4809  140.0409  183.0497 C   0  0  0  0  0  0  0  0  0  0  0  0
  155.4044  140.6430  182.4356 C   0  0  0  0  0  0  0  0  0  0  0  0
  153.0129  140.9947  182.1271 O   0  0  0  0  0  0  0  0  0  0  0  0
  151.9297  140.5107  181.4869 C   0  0  0  0  0  0  0  0  0  0  0  0
  152.0694  139.7504  180.2148 C   0  0  0  0  0  0  0  0  0  0  0  0
  150.7981  139.7964  179.3910 C   0  0  0  0  0  0  0  0  0  0  0  0
  149.0453  138.5550  178.6594 C   0  0  0  0  0  0  0  0  0  0  0  0
  150.1480  138.5457  179.5406 O   0  0  0  0  0  0  0  0  0  0  0  0
 27 28  1  0  0  0
 28 26  1  0  0  0
 26 25  1  0  0  0
 25 24  1  0  0  0
 24 23  1  0  0  0
 23 17  1  0  0  0
 17 18  2  0  0  0
 18 19  1  0  0  0
 19 20  2  0  0  0
 20 21  1  0  0  0
 21 22  2  0  0  0
 21  1  1  0  0  0
  1  2  1  0  0  0
  2  3  1  0  0  0
  3  4  2  0  0  0
  3  5  1  0  0  0
  5  6  2  0  0  0
  6  7  1  0  0  0
  7  8  1  0  0  0
  8  9  2  0  0  0
  8 10  1  0  0  0
 10 11  2  0  0  0
 11 12  1  0  0  0
 12 13  2  0  0  0
 13 14  1  0  0  0
 14 15  2  0  0  0
 22 17  1  0  0  0
  7  1  1  0  0  0
 15 10  1  0  0  0
 15  6  1  0  0  0
  2 16  1  0  0  0
M  END
> <minimizedAffinity>
-8.30068

> <CNNscore>
0.5056430101

> <CNNaffinity>
6.4128046036

> <CNN_VS>
3.2425897121

> <CNNaffinity_variance>
0.1268924177

$$$$
[H]c1c([H])c([H])c2c(c1[H])C(=O)C1([H])C2=NC(=S)N([H])[C@]1([H])c1c([H])c([H])c([H])c(OC([H])([H])C([H])([H])C([H])([H])OC([H])([H])[H])c1[H]


 28 31  0  0  0  0  0  0  0  0999 V2000
  151.1899  136.0184  184.3879 C   0  0  0  0  0  0  0  0  0  0  0  0
  149.9243  135.8590  185.0640 N   0  0  0  0  0  0  0  0  0  0  0  0
  148.8148  136.6392  184.6993 C   0  0  0  0  0  0  0  0  0  0  0  0
  147.3910  136.5482  185.5472 S   0  0  0  0  0  0  0  0  0  0  0  0
  148.9276  137.5182  183.5904 N   0  0  0  0  0  0  0  0  0  0  0  0
  149.9953  137.6320  182.8962 C   0  0  0  0  0  0  0  0  0  0  0  0
  151.2540  136.8334  183.1959 C   0  0  0  0  0  0  0  0  0  0  0  0
  152.2455  137.9202  183.0679 C   0  0  0  0  0  0  0  0  0  0  0  0
  153.2328  138.3006  183.7184 O   0  0  0  0  0  0  0  0  0  0  0  0
  151.8147  138.6187  181.8264 C   0  0  0  0  0  0  0  0  0  0  0  0
  152.4586  139.3250  180.8479 C   0  0  0  0  0  0  0  0  0  0  0  0
  151.7356  139.8415  179.7850 C   0  0  0  0  0  0  0  0  0  0  0  0
  150.3544  139.6605  179.6824 C   0  0  0  0  0  0  0  0  0  0  0  0
  149.7077  138.9419  180.6811 C   0  0  0  0  0  0  0  0  0  0  0  0
  150.4369  138.4342  181.7282 C   0  0  0  0  0  0  0  0  0  0  0  0
  149.8546  135.1399  185.8213 H   0  0  0  0  0  0  0  0  0  0  0  0
  153.2254  136.8621  187.4984 C   0  0  0  0  0  0  0  0  0  0  0  0
  154.4344  136.2243  187.1861 C   0  0  0  0  0  0  0  0  0  0  0  0
  154.5344  135.5740  185.9820 C   0  0  0  0  0  0  0  0  0  0  0  0
  153.5133  135.5080  185.0672 C   0  0  0  0  0  0  0  0  0  0  0  0
  152.3238  136.1234  185.3558 C   0  0  0  0  0  0  0  0  0  0  0  0
  152.2147  136.7825  186.5609 C   0  0  0  0  0  0  0  0  0  0  0  0
  153.1003  137.5148  188.7097 O   0  0  0  0  0  0  0  0  0  0  0  0
  153.6577  137.3251  189.9224 C   0  0  0  0  0  0  0  0  0  0  0  0
  153.5602  136.0092  190.6115 C   0  0  0  0  0  0  0  0  0  0  0  0
  153.4505  136.1696  192.1145 C   0  0  0  0  0  0  0  0  0  0  0  0
  151.8818  137.3572  193.2449 C   0  0  0  0  0  0  0  0  0  0  0  0
  152.9823  137.4830  192.3698 O   0  0  0  0  0  0  0  0  0  0  0  0
 27 28  1  0  0  0
 28 26  1  0  0  0
 26 25  1  0  0  0
 25 24  1  0  0  0
 24 23  1  0  0  0
 23 17  1  0  0  0
 17 18  2  0  0  0
 18 19  1  0  0  0
 19 20  2  0  0  0
 20 21  1  0  0  0
 21 22  2  0  0  0
 21  1  1  0  0  0
  1  2  1  0  0  0
  2  3  1  0  0  0
  3  4  2  0  0  0
  3  5  1  0  0  0
  5  6  2  0  0  0
  6  7  1  0  0  0
  7  8  1  0  0  0
  8  9  2  0  0  0
  8 10  1  0  0  0
 10 11  2  0  0  0
 11 12  1  0  0  0
 12 13  2  0  0  0
 13 14  1  0  0  0
 14 15  2  0  0  0
 22 17  1  0  0  0
  7  1  1  0  0  0
 15 10  1  0  0  0
 15  6  1  0  0  0
  2 16  1  0  0  0
M  END
> <minimizedAffinity>
-5.24594

> <CNNscore>
0.4318301976

> <CNNaffinity>
5.1753578186

> <CNN_VS>
2.2348756790

> <CNNaffinity_variance>
0.1390864104

$$$$
[H]c1c([H])c([H])c2c(c1[H])C(=O)C1([H])C2=NC(=S)N([H])[C@]1([H])c1c([H])c([H])c([H])c(OC([H])([H])C([H])([H])C([H])([H])OC([H])([H])[H])c1[H]


 28 31  0  0  0  0  0  0  0  0999 V2000
  152.2524  136.6657  184.0092 C   0  0  0  0  0  0  0  0  0  0  0  0
  151.1809  136.0557  184.7602 N   0  0  0  0  0  0  0  0  0  0  0  0
  149.8401  136.2913  184.4145 C   0  0  0  0  0  0  0  0  0  0  0  0
  148.6011  135.6918  185.3418 S   0  0  0  0  0  0  0  0  0  0  0  0
  149.5542  137.0592  183.2553 N   0  0  0  0  0  0  0  0  0  0  0  0
  150.4632  137.5461  182.4994 C   0  0  0  0  0  0  0  0  0  0  0  0
  151.9458  137.3496  182.7733 C   0  0  0  0  0  0  0  0  0  0  0  0
  152.4039  138.7329  182.5335 C   0  0  0  0  0  0  0  0  0  0  0  0
  153.1676  139.5259  183.1083 O   0  0  0  0  0  0  0  0  0  0  0  0
  151.6918  139.1065  181.2814 C   0  0  0  0  0  0  0  0  0  0  0  0
  151.9646  139.9415  180.2329 C   0  0  0  0  0  0  0  0  0  0  0  0
  151.0650  140.0436  179.1843 C   0  0  0  0  0  0  0  0  0  0  0  0
  149.8755  139.3117  179.1663 C   0  0  0  0  0  0  0  0  0  0  0  0
  149.6058  138.4658  180.2357 C   0  0  0  0  0  0  0  0  0  0  0  0
  150.5070  138.3731  181.2678 C   0  0  0  0  0  0  0  0  0  0  0  0
  151.4313  135.4260  185.5578 H   0  0  0  0  0  0  0  0  0  0  0  0
  153.9106  138.2187  187.0700 C   0  0  0  0  0  0  0  0  0  0  0  0
  155.2208  138.3701  186.5943 C   0  0  0  0  0  0  0  0  0  0  0  0
  155.4940  137.9818  185.3069 C   0  0  0  0  0  0  0  0  0  0  0  0
  154.5560  137.4473  184.4594 C   0  0  0  0  0  0  0  0  0  0  0  0
  153.2709  137.2898  184.9074 C   0  0  0  0  0  0  0  0  0  0  0  0
  152.9855  137.6803  186.1976 C   0  0  0  0  0  0  0  0  0  0  0  0
  153.6160  138.5948  188.3665 O   0  0  0  0  0  0  0  0  0  0  0  0
  153.9201  138.0716  189.5711 C   0  0  0  0  0  0  0  0  0  0  0  0
  155.0311  138.6305  190.3893 C   0  0  0  0  0  0  0  0  0  0  0  0
  156.3153  137.8482  190.2007 C   0  0  0  0  0  0  0  0  0  0  0  0
  157.0377  136.0287  189.0533 C   0  0  0  0  0  0  0  0  0  0  0  0
  155.9594  136.5321  189.8126 O   0  0  0  0  0  0  0  0  0  0  0  0
 27 28  1  0  0  0
 28 26  1  0  0  0
 26 25  1  0  0  0
 25 24  1  0  0  0
 24 23  1  0  0  0
 23 17  1  0  0  0
 17 18  2  0  0  0
 18 19  1  0  0  0
 19 20  2  0  0  0
 20 21  1  0  0  0
 21 22  2  0  0  0
 21  1  1  0  0  0
  1  2  1  0  0  0
  2  3  1  0  0  0
  3  4  2  0  0  0
  3  5  1  0  0  0
  5  6  2  0  0  0
  6  7  1  0  0  0
  7  8  1  0  0  0
  8  9  2  0  0  0
  8 10  1  0  0  0
 10 11  2  0  0  0
 11 12  1  0  0  0
 12 13  2  0  0  0
 13 14  1  0  0  0
 14 15  2  0  0  0
 22 17  1  0  0  0
  7  1  1  0  0  0
 15 10  1  0  0  0
 15  6  1  0  0  0
  2 16  1  0  0  0
M  END
> <minimizedAffinity>
-6.01556

> <CNNscore>
0.3734829724

> <CNNaffinity>
5.1299324036

> <CNN_VS>
1.9159424305

> <CNNaffinity_variance>
0.1195726618

$$$$
[H]c1c([H])c([H])c2c(c1[H])C(=O)C1([H])C2=NC(=S)N([H])[C@]1([H])c1c([H])c([H])c([H])c(OC([H])([H])C([H])([H])C([H])([H])OC([H])([H])[H])c1[H]


 28 31  0  0  0  0  0  0  0  0999 V2000
  153.7141  141.0954  182.9304 C   0  0  0  0  0  0  0  0  0  0  0  0
  152.9545  140.7097  181.7650 N   0  0  0  0  0  0  0  0  0  0  0  0
  152.6111  139.3652  181.5472 C   0  0  0  0  0  0  0  0  0  0  0  0
  151.8421  138.8952  180.1536 S   0  0  0  0  0  0  0  0  0  0  0  0
  152.9367  138.4036  182.5393 N   0  0  0  0  0  0  0  0  0  0  0  0
  153.5259  138.7026  183.6339 C   0  0  0  0  0  0  0  0  0  0  0  0
  153.9385  140.1250  183.9778 C   0  0  0  0  0  0  0  0  0  0  0  0
  155.2986  139.8487  184.4825 C   0  0  0  0  0  0  0  0  0  0  0  0
  156.4212  140.3573  184.3292 O   0  0  0  0  0  0  0  0  0  0  0  0
  155.0941  138.6617  185.3565 C   0  0  0  0  0  0  0  0  0  0  0  0
  155.7046  138.1796  186.4815 C   0  0  0  0  0  0  0  0  0  0  0  0
  155.2347  137.0190  187.0741 C   0  0  0  0  0  0  0  0  0  0  0  0
  154.1448  136.3193  186.5510 C   0  0  0  0  0  0  0  0  0  0  0  0
  153.5302  136.8159  185.4073 C   0  0  0  0  0  0  0  0  0  0  0  0
  154.0055  137.9682  184.8311 C   0  0  0  0  0  0  0  0  0  0  0  0
  152.6578  141.4588  181.0970 H   0  0  0  0  0  0  0  0  0  0  0  0
  156.9976  142.3854  181.4867 C   0  0  0  0  0  0  0  0  0  0  0  0
  156.9140  143.7382  181.8461 C   0  0  0  0  0  0  0  0  0  0  0  0
  155.8137  144.1568  182.5510 C   0  0  0  0  0  0  0  0  0  0  0  0
  154.7860  143.3250  182.9195 C   0  0  0  0  0  0  0  0  0  0  0  0
  154.8491  142.0004  182.5753 C   0  0  0  0  0  0  0  0  0  0  0  0
  155.9520  141.5694  181.8707 C   0  0  0  0  0  0  0  0  0  0  0  0
  158.0927  141.9447  180.7686 O   0  0  0  0  0  0  0  0  0  0  0  0
  159.2102  141.2720  181.1093 C   0  0  0  0  0  0  0  0  0  0  0  0
  159.3851  140.7256  182.4829 C   0  0  0  0  0  0  0  0  0  0  0  0
  160.3772  141.5400  183.2887 C   0  0  0  0  0  0  0  0  0  0  0  0
  160.4716  143.1259  184.9088 C   0  0  0  0  0  0  0  0  0  0  0  0
  159.6718  142.6307  183.8563 O   0  0  0  0  0  0  0  0  0  0  0  0
 27 28  1  0  0  0
 28 26  1  0  0  0
 26 25  1  0  0  0
 25 24  1  0  0  0
 24 23  1  0  0  0
 23 17  1  0  0  0
 17 18  2  0  0  0
 18 19  1  0  0  0
 19 20  2  0  0  0
 20 21  1  0  0  0
 21 22  2  0  0  0
 21  1  1  0  0  0
  1  2  1  0  0  0
  2  3  1  0  0  0
  3  4  2  0  0  0
  3  5  1  0  0  0
  5  6  2  0  0  0
  6  7  1  0  0  0
  7  8  1  0  0  0
  8  9  2  0  0  0
  8 10  1  0  0  0
 10 11  2  0  0  0
 11 12  1  0  0  0
 12 13  2  0  0  0
 13 14  1  0  0  0
 14 15  2  0  0  0
 22 17  1  0  0  0
  7  1  1  0  0  0
 15 10  1  0  0  0
 15  6  1  0  0  0
  2 16  1  0  0  0
M  END
> <minimizedAffinity>
-7.39359

> <CNNscore>
0.3602146208

> <CNNaffinity>
5.9683456421

> <CNN_VS>
2.1498854160

> <CNNaffinity_variance>
0.0153806033

$$$$
[H]c1c([H])c([H])c2c(c1[H])C(=O)C1([H])C2=NC(=S)N([H])[C@]1([H])c1c([H])c([H])c([H])c(OC([H])([H])C([H])([H])C([H])([H])OC([H])([H])[H])c1[H]


 28 31  0  0  0  0  0  0  0  0999 V2000
  154.5392  136.6796  189.9974 C   0  0  0  0  0  0  0  0  0  0  0  0
  153.7065  136.1047  191.0270 N   0  0  0  0  0  0  0  0  0  0  0  0
  154.0306  134.8639  191.5999 C   0  0  0  0  0  0  0  0  0  0  0  0
  153.0182  134.1395  192.6975 S   0  0  0  0  0  0  0  0  0  0  0  0
  155.2424  134.2283  191.2222 N   0  0  0  0  0  0  0  0  0  0  0  0
  156.0646  134.7355  190.3846 C   0  0  0  0  0  0  0  0  0  0  0  0
  155.8196  136.0748  189.7076 C   0  0  0  0  0  0  0  0  0  0  0  0
  156.1913  135.7006  188.3282 C   0  0  0  0  0  0  0  0  0  0  0  0
  155.7103  135.8883  187.1987 O   0  0  0  0  0  0  0  0  0  0  0  0
  157.4490  134.9286  188.5206 C   0  0  0  0  0  0  0  0  0  0  0  0
  158.5732  134.7198  187.7701 C   0  0  0  0  0  0  0  0  0  0  0  0
  159.5990  133.9364  188.2731 C   0  0  0  0  0  0  0  0  0  0  0  0
  159.5181  133.3473  189.5370 C   0  0  0  0  0  0  0  0  0  0  0  0
  158.3721  133.5642  190.2931 C   0  0  0  0  0  0  0  0  0  0  0  0
  157.3636  134.3442  189.7828 C   0  0  0  0  0  0  0  0  0  0  0  0
  152.8656  136.6426  191.3414 H   0  0  0  0  0  0  0  0  0  0  0  0
  151.9317  136.8461  187.2220 C   0  0  0  0  0  0  0  0  0  0  0  0
  152.1697  138.1386  186.7330 C   0  0  0  0  0  0  0  0  0  0  0  0
  153.1703  138.8784  187.3112 C   0  0  0  0  0  0  0  0  0  0  0  0
  153.9487  138.4252  188.3469 C   0  0  0  0  0  0  0  0  0  0  0  0
  153.7293  137.1657  188.8393 C   0  0  0  0  0  0  0  0  0  0  0  0
  152.7292  136.4133  188.2628 C   0  0  0  0  0  0  0  0  0  0  0  0
  150.9226  136.0877  186.6602 O   0  0  0  0  0  0  0  0  0  0  0  0
  149.7521  136.4008  186.0694 C   0  0  0  0  0  0  0  0  0  0  0  0
  148.7799  137.3119  186.7334 C   0  0  0  0  0  0  0  0  0  0  0  0
  147.3739  137.1151  186.2029 C   0  0  0  0  0  0  0  0  0  0  0  0
  147.4904  138.9671  184.8970 C   0  0  0  0  0  0  0  0  0  0  0  0
  146.8122  138.4003  185.9977 O   0  0  0  0  0  0  0  0  0  0  0  0
 27 28  1  0  0  0
 28 26  1  0  0  0
 26 25  1  0  0  0
 25 24  1  0  0  0
 24 23  1  0  0  0
 23 17  1  0  0  0
 17 18  2  0  0  0
 18 19  1  0  0  0
 19 20  2  0  0  0
 20 21  1  0  0  0
 21 22  2  0  0  0
 21  1  1  0  0  0
  1  2  1  0  0  0
  2  3  1  0  0  0
  3  4  2  0  0  0
  3  5  1  0  0  0
  5  6  2  0  0  0
  6  7  1  0  0  0
  7  8  1  0  0  0
  8  9  2  0  0  0
  8 10  1  0  0  0
 10 11  2  0  0  0
 11 12  1  0  0  0
 12 13  2  0  0  0
 13 14  1  0  0  0
 14 15  2  0  0  0
 22 17  1  0  0  0
  7  1  1  0  0  0
 15 10  1  0  0  0
 15  6  1  0  0  0
  2 16  1  0  0  0
M  END
> <minimizedAffinity>
-5.91287

> <CNNscore>
0.3417187035

> <CNNaffinity>
5.0779471397

> <CNN_VS>
1.7352294922

> <CNNaffinity_variance>
0.0742354542

$$$$
[H]c1c([H])c([H])c2c(c1[H])C(=O)C1([H])C2=NC(=S)N([H])[C@]1([H])c1c([H])c([H])c([H])c(OC([H])([H])C([H])([H])C([H])([H])OC([H])([H])[H])c1[H]


 28 31  0  0  0  0  0  0  0  0999 V2000
  155.8843  137.0734  189.3471 C   0  0  0  0  0  0  0  0  0  0  0  0
  154.9052  137.1099  190.4074 N   0  0  0  0  0  0  0  0  0  0  0  0
  154.7792  136.0349  191.3025 C   0  0  0  0  0  0  0  0  0  0  0  0
  153.5798  136.0148  192.4495 S   0  0  0  0  0  0  0  0  0  0  0  0
  155.6943  134.9536  191.2109 N   0  0  0  0  0  0  0  0  0  0  0  0
  156.6402  134.9111  190.3517 C   0  0  0  0  0  0  0  0  0  0  0  0
  156.8746  136.0206  189.3387 C   0  0  0  0  0  0  0  0  0  0  0  0
  157.0912  135.1873  188.1389 C   0  0  0  0  0  0  0  0  0  0  0  0
  156.7037  135.2141  186.9593 O   0  0  0  0  0  0  0  0  0  0  0  0
  158.0028  134.1208  188.6351 C   0  0  0  0  0  0  0  0  0  0  0  0
  158.9835  133.3540  188.0684 C   0  0  0  0  0  0  0  0  0  0  0  0
  159.6742  132.4382  188.8453 C   0  0  0  0  0  0  0  0  0  0  0  0
  159.3956  132.2732  190.2041 C   0  0  0  0  0  0  0  0  0  0  0  0
  158.3973  133.0562  190.7720 C   0  0  0  0  0  0  0  0  0  0  0  0
  157.7216  133.9610  189.9906 C   0  0  0  0  0  0  0  0  0  0  0  0
  154.3039  137.9618  190.4969 H   0  0  0  0  0  0  0  0  0  0  0  0
  155.4771  138.5828  185.8706 C   0  0  0  0  0  0  0  0  0  0  0  0
  154.1915  138.1249  185.5487 C   0  0  0  0  0  0  0  0  0  0  0  0
  153.5182  137.3714  186.4771 C   0  0  0  0  0  0  0  0  0  0  0  0
  154.0363  137.0356  187.7029 C   0  0  0  0  0  0  0  0  0  0  0  0
  155.2919  137.4722  188.0343 C   0  0  0  0  0  0  0  0  0  0  0  0
  155.9746  138.2328  187.1102 C   0  0  0  0  0  0  0  0  0  0  0  0
  156.1761  139.3353  184.9464 O   0  0  0  0  0  0  0  0  0  0  0  0
  157.4489  139.7758  184.8877 C   0  0  0  0  0  0  0  0  0  0  0  0
  157.7554  141.2324  184.9005 C   0  0  0  0  0  0  0  0  0  0  0  0
  159.2220  141.4948  185.1784 C   0  0  0  0  0  0  0  0  0  0  0  0
  158.7242  142.5120  183.2121 C   0  0  0  0  0  0  0  0  0  0  0  0
  159.6545  142.4967  184.2737 O   0  0  0  0  0  0  0  0  0  0  0  0
 27 28  1  0  0  0
 28 26  1  0  0  0
 26 25  1  0  0  0
 25 24  1  0  0  0
 24 23  1  0  0  0
 23 17  1  0  0  0
 17 18  2  0  0  0
 18 19  1  0  0  0
 19 20  2  0  0  0
 20 21  1  0  0  0
 21 22  2  0  0  0
 21  1  1  0  0  0
  1  2  1  0  0  0
  2  3  1  0  0  0
  3  4  2  0  0  0
  3  5  1  0  0  0
  5  6  2  0  0  0
  6  7  1  0  0  0
  7  8  1  0  0  0
  8  9  2  0  0  0
  8 10  1  0  0  0
 10 11  2  0  0  0
 11 12  1  0  0  0
 12 13  2  0  0  0
 13 14  1  0  0  0
 14 15  2  0  0  0
 22 17  1  0  0  0
  7  1  1  0  0  0
 15 10  1  0  0  0
 15  6  1  0  0  0
  2 16  1  0  0  0
M  END
> <minimizedAffinity>
-6.06736

> <CNNscore>
0.3384992182

> <CNNaffinity>
5.4917287827

> <CNN_VS>
1.8589458466

> <CNNaffinity_variance>
0.0396775715

$$$$
[H]OC([H])([H])[C@@]1([H])N(S(=O)(=O)c2c([H])c(C([H])([H])[H])c(F)c(C([H])([H])[H])c2[H])[C@@]([H])(c2c([H])c([H])c(F)c([H])c2[H])C([H])([H])C1([H])[H]


 27 29  0  0  0  0  0  0  0  0999 V2000
  153.3059  137.3727  183.7835 N   0  0  0  0  0  0  0  0  0  0  0  0
  153.4862  136.0257  184.1854 C   0  0  0  0  0  0  0  0  0  0  0  0
  152.1116  135.4036  184.3648 C   0  0  0  0  0  0  0  0  0  0  0  0
  151.1693  136.3496  183.6571 C   0  0  0  0  0  0  0  0  0  0  0  0
  151.9342  137.6467  183.5714 C   0  0  0  0  0  0  0  0  0  0  0  0
  151.6418  138.3645  182.3024 C   0  0  0  0  0  0  0  0  0  0  0  0
  150.3677  138.8496  182.0048 C   0  0  0  0  0  0  0  0  0  0  0  0
  150.1000  139.5132  180.8306 C   0  0  0  0  0  0  0  0  0  0  0  0
  151.0923  139.7245  179.8961 C   0  0  0  0  0  0  0  0  0  0  0  0
  150.8803  140.3698  178.7290 F   0  0  0  0  0  0  0  0  0  0  0  0
  152.3582  139.2581  180.1610 C   0  0  0  0  0  0  0  0  0  0  0  0
  152.6118  138.5943  181.3432 C   0  0  0  0  0  0  0  0  0  0  0  0
  154.0856  138.5347  184.7484 S   0  0  0  0  0  0  0  0  0  0  0  0
  155.2153  137.8430  185.4828 O   0  0  0  0  0  0  0  0  0  0  0  0
  153.1589  139.0726  185.7920 O   0  0  0  0  0  0  0  0  0  0  0  0
  153.8811  143.3460  182.7742 C   0  0  0  0  0  0  0  0  0  0  0  0
  154.6578  142.0926  182.9573 C   0  0  0  0  0  0  0  0  0  0  0  0
  154.1049  141.0418  183.6620 C   0  0  0  0  0  0  0  0  0  0  0  0
  154.7702  139.8537  183.8680 C   0  0  0  0  0  0  0  0  0  0  0  0
  156.0394  139.7514  183.3309 C   0  0  0  0  0  0  0  0  0  0  0  0
  156.6166  140.7977  182.6169 C   0  0  0  0  0  0  0  0  0  0  0  0
  157.9801  140.7075  182.0315 C   0  0  0  0  0  0  0  0  0  0  0  0
  155.9191  141.9746  182.4306 C   0  0  0  0  0  0  0  0  0  0  0  0
  156.4410  143.0317  181.7373 F   0  0  0  0  0  0  0  0  0  0  0  0
  154.2201  135.1704  183.1723 C   0  0  0  0  0  0  0  0  0  0  0  0
  153.6641  133.9169  183.0293 O   0  0  0  0  0  0  0  0  0  0  0  0
  153.8557  133.4124  183.8561 H   0  0  0  0  0  0  0  0  0  0  0  0
 16 17  1  0  0  0
 17 18  2  0  0  0
 18 19  1  0  0  0
 19 20  2  0  0  0
 20 21  1  0  0  0
 21 22  1  0  0  0
 21 23  2  0  0  0
 23 24  1  0  0  0
 19 13  1  0  0  0
 13 14  2  0  0  0
 13 15  2  0  0  0
 13  1  1  0  0  0
  1  2  1  0  0  0
  2 25  1  0  0  0
 25 26  1  0  0  0
  2  3  1  0  0  0
  3  4  1  0  0  0
  4  5  1  0  0  0
  5  6  1  0  0  0
  6  7  2  0  0  0
  7  8  1  0  0  0
  8  9  2  0  0  0
  9 10  1  0  0  0
  9 11  1  0  0  0
 11 12  2  0  0  0
 23 17  1  0  0  0
  5  1  1  0  0  0
 12  6  1  0  0  0
 26 27  1  0  0  0
M  END
> <minimizedAffinity>
-7.09217

> <CNNscore>
0.5933699012

> <CNNaffinity>
5.8209018707

> <CNN_VS>
3.4539480209

> <CNNaffinity_variance>
0.1977773011

$$$$
[H]OC([H])([H])[C@@]1([H])N(S(=O)(=O)c2c([H])c(C([H])([H])[H])c(F)c(C([H])([H])[H])c2[H])[C@@]([H])(c2c([H])c([H])c(F)c([H])c2[H])C([H])([H])C1([H])[H]


 27 29  0  0  0  0  0  0  0  0999 V2000
  154.6290  136.3229  189.0996 N   0  0  0  0  0  0  0  0  0  0  0  0
  154.3636  137.6752  188.7693 C   0  0  0  0  0  0  0  0  0  0  0  0
  154.9411  138.5473  189.8714 C   0  0  0  0  0  0  0  0  0  0  0  0
  155.8864  137.6380  190.6218 C   0  0  0  0  0  0  0  0  0  0  0  0
  155.4327  136.2455  190.2614 C   0  0  0  0  0  0  0  0  0  0  0  0
  156.5854  135.3130  190.1482 C   0  0  0  0  0  0  0  0  0  0  0  0
  157.3610  135.2346  188.9908 C   0  0  0  0  0  0  0  0  0  0  0  0
  158.4265  134.3715  188.8886 C   0  0  0  0  0  0  0  0  0  0  0  0
  158.7693  133.5443  189.9378 C   0  0  0  0  0  0  0  0  0  0  0  0
  159.8057  132.6802  189.8870 F   0  0  0  0  0  0  0  0  0  0  0  0
  158.0237  133.5989  191.0917 C   0  0  0  0  0  0  0  0  0  0  0  0
  156.9576  134.4698  191.1796 C   0  0  0  0  0  0  0  0  0  0  0  0
  153.2713  135.3015  189.1481 S   0  0  0  0  0  0  0  0  0  0  0  0
  153.7693  133.8714  189.1737 O   0  0  0  0  0  0  0  0  0  0  0  0
  152.4468  135.4484  187.9088 O   0  0  0  0  0  0  0  0  0  0  0  0
  149.2218  133.9826  192.1398 C   0  0  0  0  0  0  0  0  0  0  0  0
  150.3713  134.8952  191.9084 C   0  0  0  0  0  0  0  0  0  0  0  0
  151.1776  134.7132  190.8024 C   0  0  0  0  0  0  0  0  0  0  0  0
  152.2578  135.5226  190.5293 C   0  0  0  0  0  0  0  0  0  0  0  0
  152.5092  136.5458  191.4236 C   0  0  0  0  0  0  0  0  0  0  0  0
  151.7097  136.7480  192.5451 C   0  0  0  0  0  0  0  0  0  0  0  0
  151.9633  137.8424  193.5188 C   0  0  0  0  0  0  0  0  0  0  0  0
  150.6348  135.9160  192.7865 C   0  0  0  0  0  0  0  0  0  0  0  0
  149.8191  136.0721  193.8731 F   0  0  0  0  0  0  0  0  0  0  0  0
  155.0033  138.1331  187.4741 C   0  0  0  0  0  0  0  0  0  0  0  0
  155.4231  137.0829  186.6856 O   0  0  0  0  0  0  0  0  0  0  0  0
  156.2029  136.6723  187.1306 H   0  0  0  0  0  0  0  0  0  0  0  0
 16 17  1  0  0  0
 17 18  2  0  0  0
 18 19  1  0  0  0
 19 20  2  0  0  0
 20 21  1  0  0  0
 21 22  1  0  0  0
 21 23  2  0  0  0
 23 24  1  0  0  0
 19 13  1  0  0  0
 13 14  2  0  0  0
 13 15  2  0  0  0
 13  1  1  0  0  0
  1  2  1  0  0  0
  2 25  1  0  0  0
 25 26  1  0  0  0
  2  3  1  0  0  0
  3  4  1  0  0  0
  4  5  1  0  0  0
  5  6  1  0  0  0
  6  7  2  0  0  0
  7  8  1  0  0  0
  8  9  2  0  0  0
  9 10  1  0  0  0
  9 11  1  0  0  0
 11 12  2  0  0  0
 23 17  1  0  0  0
  5  1  1  0  0  0
 12  6  1  0  0  0
 26 27  1  0  0  0
M  END
> <minimizedAffinity>
-6.57838

> <CNNscore>
0.5478987098

> <CNNaffinity>
5.2714004517

> <CNN_VS>
2.8881936073

> <CNNaffinity_variance>
0.1961518973

$$$$
[H]OC([H])([H])[C@@]1([H])N(S(=O)(=O)c2c([H])c(C([H])([H])[H])c(F)c(C([H])([H])[H])c2[H])[C@@]([H])(c2c([H])c([H])c(F)c([H])c2[H])C([H])([H])C1([H])[H]


 27 29  0  0  0  0  0  0  0  0999 V2000
  154.6616  136.3189  189.1028 N   0  0  0  0  0  0  0  0  0  0  0  0
  154.4110  137.6741  188.7728 C   0  0  0  0  0  0  0  0  0  0  0  0
  154.9965  138.5395  189.8760 C   0  0  0  0  0  0  0  0  0  0  0  0
  155.9310  137.6197  190.6272 C   0  0  0  0  0  0  0  0  0  0  0  0
  155.4628  136.2323  190.2656 C   0  0  0  0  0  0  0  0  0  0  0  0
  156.6056  135.2876  190.1533 C   0  0  0  0  0  0  0  0  0  0  0  0
  157.4055  135.2282  189.0114 C   0  0  0  0  0  0  0  0  0  0  0  0
  158.4617  134.3538  188.9100 C   0  0  0  0  0  0  0  0  0  0  0  0
  158.7706  133.4956  189.9448 C   0  0  0  0  0  0  0  0  0  0  0  0
  159.7966  132.6191  189.8941 F   0  0  0  0  0  0  0  0  0  0  0  0
  158.0005  133.5307  191.0832 C   0  0  0  0  0  0  0  0  0  0  0  0
  156.9441  134.4133  191.1704 C   0  0  0  0  0  0  0  0  0  0  0  0
  153.2928  135.3121  189.1490 S   0  0  0  0  0  0  0  0  0  0  0  0
  153.7753  133.8764  189.1633 O   0  0  0  0  0  0  0  0  0  0  0  0
  152.4659  135.4763  187.9135 O   0  0  0  0  0  0  0  0  0  0  0  0
  151.9551  137.8267  193.5051 C   0  0  0  0  0  0  0  0  0  0  0  0
  151.6788  136.7160  192.5575 C   0  0  0  0  0  0  0  0  0  0  0  0
  152.4870  136.5431  191.4515 C   0  0  0  0  0  0  0  0  0  0  0  0
  152.2864  135.5350  190.5350 C   0  0  0  0  0  0  0  0  0  0  0  0
  151.2225  134.6848  190.7699 C   0  0  0  0  0  0  0  0  0  0  0  0
  150.3947  134.8401  191.8782 C   0  0  0  0  0  0  0  0  0  0  0  0
  149.2456  133.9365  192.1485 C   0  0  0  0  0  0  0  0  0  0  0  0
  150.6266  135.8630  192.7759 C   0  0  0  0  0  0  0  0  0  0  0  0
  149.8432  136.0584  193.8798 F   0  0  0  0  0  0  0  0  0  0  0  0
  155.0573  138.1258  187.4787 C   0  0  0  0  0  0  0  0  0  0  0  0
  155.4359  137.0716  186.6748 O   0  0  0  0  0  0  0  0  0  0  0  0
  156.2044  136.6295  187.1094 H   0  0  0  0  0  0  0  0  0  0  0  0
 16 17  1  0  0  0
 17 18  2  0  0  0
 18 19  1  0  0  0
 19 20  2  0  0  0
 20 21  1  0  0  0
 21 22  1  0  0  0
 21 23  2  0  0  0
 23 24  1  0  0  0
 19 13  1  0  0  0
 13 14  2  0  0  0
 13 15  2  0  0  0
 13  1  1  0  0  0
  1  2  1  0  0  0
  2 25  1  0  0  0
 25 26  1  0  0  0
  2  3  1  0  0  0
  3  4  1  0  0  0
  4  5  1  0  0  0
  5  6  1  0  0  0
  6  7  2  0  0  0
  7  8  1  0  0  0
  8  9  2  0  0  0
  9 10  1  0  0  0
  9 11  1  0  0  0
 11 12  2  0  0  0
 23 17  1  0  0  0
  5  1  1  0  0  0
 12  6  1  0  0  0
 26 27  1  0  0  0
M  END
> <minimizedAffinity>
-6.54844

> <CNNscore>
0.5474165678

> <CNNaffinity>
5.2752165794

> <CNN_VS>
2.8877408504

> <CNNaffinity_variance>
0.1926916987

$$$$
[H]OC([H])([H])[C@@]1([H])N(S(=O)(=O)c2c([H])c(C([H])([H])[H])c(F)c(C([H])([H])[H])c2[H])[C@@]([H])(c2c([H])c([H])c(F)c([H])c2[H])C([H])([H])C1([H])[H]


 27 29  0  0  0  0  0  0  0  0999 V2000
  156.4008  141.4490  182.8376 N   0  0  0  0  0  0  0  0  0  0  0  0
  154.9993  141.3801  183.0367 C   0  0  0  0  0  0  0  0  0  0  0  0
  154.5020  142.7820  183.3466 C   0  0  0  0  0  0  0  0  0  0  0  0
  155.6295  143.6911  182.9151 C   0  0  0  0  0  0  0  0  0  0  0  0
  156.8407  142.7932  182.8745 C   0  0  0  0  0  0  0  0  0  0  0  0
  157.7560  143.1690  181.7646 C   0  0  0  0  0  0  0  0  0  0  0  0
  157.8658  142.4001  180.6052 C   0  0  0  0  0  0  0  0  0  0  0  0
  158.7130  142.7499  179.5802 C   0  0  0  0  0  0  0  0  0  0  0  0
  159.4920  143.8851  179.6633 C   0  0  0  0  0  0  0  0  0  0  0  0
  160.3387  144.2711  178.6848 F   0  0  0  0  0  0  0  0  0  0  0  0
  159.4057  144.6632  180.7935 C   0  0  0  0  0  0  0  0  0  0  0  0
  158.5514  144.2997  181.8136 C   0  0  0  0  0  0  0  0  0  0  0  0
  157.3296  140.4074  183.8079 S   0  0  0  0  0  0  0  0  0  0  0  0
  157.7155  139.2107  182.9635 O   0  0  0  0  0  0  0  0  0  0  0  0
  156.5240  139.8839  184.9543 O   0  0  0  0  0  0  0  0  0  0  0  0
  160.0405  142.9570  187.4464 C   0  0  0  0  0  0  0  0  0  0  0  0
  160.0329  142.2918  186.1178 C   0  0  0  0  0  0  0  0  0  0  0  0
  158.8638  141.7358  185.6376 C   0  0  0  0  0  0  0  0  0  0  0  0
  158.7880  141.1054  184.4156 C   0  0  0  0  0  0  0  0  0  0  0  0
  159.9519  141.0496  183.6723 C   0  0  0  0  0  0  0  0  0  0  0  0
  161.1417  141.6033  184.1364 C   0  0  0  0  0  0  0  0  0  0  0  0
  162.4039  141.5536  183.3525 C   0  0  0  0  0  0  0  0  0  0  0  0
  161.1795  142.2276  185.3672 C   0  0  0  0  0  0  0  0  0  0  0  0
  162.3225  142.7871  185.8683 F   0  0  0  0  0  0  0  0  0  0  0  0
  154.2247  140.9035  181.8246 C   0  0  0  0  0  0  0  0  0  0  0  0
  153.6882  139.6449  181.9951 O   0  0  0  0  0  0  0  0  0  0  0  0
  154.4367  139.0011  181.9889 H   0  0  0  0  0  0  0  0  0  0  0  0
 16 17  1  0  0  0
 17 18  2  0  0  0
 18 19  1  0  0  0
 19 20  2  0  0  0
 20 21  1  0  0  0
 21 22  1  0  0  0
 21 23  2  0  0  0
 23 24  1  0  0  0
 19 13  1  0  0  0
 13 14  2  0  0  0
 13 15  2  0  0  0
 13  1  1  0  0  0
  1  2  1  0  0  0
  2 25  1  0  0  0
 25 26  1  0  0  0
  2  3  1  0  0  0
  3  4  1  0  0  0
  4  5  1  0  0  0
  5  6  1  0  0  0
  6  7  2  0  0  0
  7  8  1  0  0  0
  8  9  2  0  0  0
  9 10  1  0  0  0
  9 11  1  0  0  0
 11 12  2  0  0  0
 23 17  1  0  0  0
  5  1  1  0  0  0
 12  6  1  0  0  0
 26 27  1  0  0  0
M  END
> <minimizedAffinity>
-9.56195

> <CNNscore>
0.5320522785

> <CNNaffinity>
6.8126702309

> <CNN_VS>
3.6246967316

> <CNNaffinity_variance>
0.1170920581

$$$$
[H]OC([H])([H])[C@@]1([H])N(S(=O)(=O)c2c([H])c(C([H])([H])[H])c(F)c(C([H])([H])[H])c2[H])[C@@]([H])(c2c([H])c([H])c(F)c([H])c2[H])C([H])([H])C1([H])[H]


 27 29  0  0  0  0  0  0  0  0999 V2000
  159.1221  141.5625  182.7254 N   0  0  0  0  0  0  0  0  0  0  0  0
  158.6258  142.2272  181.5765 C   0  0  0  0  0  0  0  0  0  0  0  0
  157.9474  143.5075  182.0341 C   0  0  0  0  0  0  0  0  0  0  0  0
  158.4418  143.7176  183.4465 C   0  0  0  0  0  0  0  0  0  0  0  0
  158.9292  142.3576  183.8797 C   0  0  0  0  0  0  0  0  0  0  0  0
  160.1252  142.4653  184.7565 C   0  0  0  0  0  0  0  0  0  0  0  0
  161.4171  142.2551  184.2728 C   0  0  0  0  0  0  0  0  0  0  0  0
  162.5215  142.3553  185.0858 C   0  0  0  0  0  0  0  0  0  0  0  0
  162.3893  142.6704  186.4221 C   0  0  0  0  0  0  0  0  0  0  0  0
  163.4416  142.7806  187.2610 F   0  0  0  0  0  0  0  0  0  0  0  0
  161.1287  142.8833  186.9280 C   0  0  0  0  0  0  0  0  0  0  0  0
  160.0302  142.7793  186.1004 C   0  0  0  0  0  0  0  0  0  0  0  0
  158.6078  139.9541  182.9194 S   0  0  0  0  0  0  0  0  0  0  0  0
  159.5458  139.2841  183.9020 O   0  0  0  0  0  0  0  0  0  0  0  0
  158.7192  139.1980  181.6336 O   0  0  0  0  0  0  0  0  0  0  0  0
  153.4679  140.7228  182.6395 C   0  0  0  0  0  0  0  0  0  0  0  0
  154.6161  140.1512  183.3898 C   0  0  0  0  0  0  0  0  0  0  0  0
  155.8963  140.2900  182.8914 C   0  0  0  0  0  0  0  0  0  0  0  0
  157.0033  139.7847  183.5362 C   0  0  0  0  0  0  0  0  0  0  0  0
  156.7789  139.1193  184.7265 C   0  0  0  0  0  0  0  0  0  0  0  0
  155.4972  138.9675  185.2477 C   0  0  0  0  0  0  0  0  0  0  0  0
  155.2349  138.2554  186.5260 C   0  0  0  0  0  0  0  0  0  0  0  0
  154.4108  139.4877  184.5729 C   0  0  0  0  0  0  0  0  0  0  0  0
  153.1320  139.3658  185.0422 F   0  0  0  0  0  0  0  0  0  0  0  0
  159.6976  142.6349  180.5858 C   0  0  0  0  0  0  0  0  0  0  0  0
  159.3688  143.7742  179.8824 O   0  0  0  0  0  0  0  0  0  0  0  0
  158.6377  143.5381  179.2622 H   0  0  0  0  0  0  0  0  0  0  0  0
 16 17  1  0  0  0
 17 18  2  0  0  0
 18 19  1  0  0  0
 19 20  2  0  0  0
 20 21  1  0  0  0
 21 22  1  0  0  0
 21 23  2  0  0  0
 23 24  1  0  0  0
 19 13  1  0  0  0
 13 14  2  0  0  0
 13 15  2  0  0  0
 13  1  1  0  0  0
  1  2  1  0  0  0
  2 25  1  0  0  0
 25 26  1  0  0  0
  2  3  1  0  0  0
  3  4  1  0  0  0
  4  5  1  0  0  0
  5  6  1  0  0  0
  6  7  2  0  0  0
  7  8  1  0  0  0
  8  9  2  0  0  0
  9 10  1  0  0  0
  9 11  1  0  0  0
 11 12  2  0  0  0
 23 17  1  0  0  0
  5  1  1  0  0  0
 12  6  1  0  0  0
 26 27  1  0  0  0
M  END
> <minimizedAffinity>
-9.24789

> <CNNscore>
0.5051329136

> <CNNaffinity>
6.6610174179

> <CNN_VS>
3.3646991253

> <CNNaffinity_variance>
0.0701702833

$$$$
[H]OC([H])([H])[C@@]1([H])N(S(=O)(=O)c2c([H])c(C([H])([H])[H])c(F)c(C([H])([H])[H])c2[H])[C@@]([H])(c2c([H])c([H])c(F)c([H])c2[H])C([H])([H])C1([H])[H]


 27 29  0  0  0  0  0  0  0  0999 V2000
  151.3059  135.4634  187.7820 N   0  0  0  0  0  0  0  0  0  0  0  0
  150.1026  134.7380  187.5972 C   0  0  0  0  0  0  0  0  0  0  0  0
  149.0492  135.7041  187.0817 C   0  0  0  0  0  0  0  0  0  0  0  0
  149.8327  136.9073  186.6105 C   0  0  0  0  0  0  0  0  0  0  0  0
  151.1590  136.7924  187.3193 C   0  0  0  0  0  0  0  0  0  0  0  0
  152.2750  137.2688  186.4599 C   0  0  0  0  0  0  0  0  0  0  0  0
  153.0194  138.4053  186.7784 C   0  0  0  0  0  0  0  0  0  0  0  0
  154.0510  138.8438  185.9820 C   0  0  0  0  0  0  0  0  0  0  0  0
  154.3893  138.1681  184.8281 C   0  0  0  0  0  0  0  0  0  0  0  0
  155.3930  138.5579  184.0132 F   0  0  0  0  0  0  0  0  0  0  0  0
  153.6740  137.0444  184.4877 C   0  0  0  0  0  0  0  0  0  0  0  0
  152.6418  136.6165  185.2965 C   0  0  0  0  0  0  0  0  0  0  0  0
  151.9912  135.3604  189.3341 S   0  0  0  0  0  0  0  0  0  0  0  0
  152.1940  133.8937  189.6533 O   0  0  0  0  0  0  0  0  0  0  0  0
  151.0562  135.9012  190.3688 O   0  0  0  0  0  0  0  0  0  0  0  0
  157.0518  135.8360  188.2148 C   0  0  0  0  0  0  0  0  0  0  0  0
  155.8744  136.3488  188.9621 C   0  0  0  0  0  0  0  0  0  0  0  0
  154.6527  135.7190  188.8301 C   0  0  0  0  0  0  0  0  0  0  0  0
  153.5229  136.1426  189.4939 C   0  0  0  0  0  0  0  0  0  0  0  0
  153.6617  137.2458  190.3148 C   0  0  0  0  0  0  0  0  0  0  0  0
  154.8834  137.8963  190.4630 C   0  0  0  0  0  0  0  0  0  0  0  0
  155.0534  139.0841  191.3407 C   0  0  0  0  0  0  0  0  0  0  0  0
  155.9949  137.4429  189.7812 C   0  0  0  0  0  0  0  0  0  0  0  0
  157.2173  138.0463  189.8925 F   0  0  0  0  0  0  0  0  0  0  0  0
  150.2032  133.6218  186.5771 C   0  0  0  0  0  0  0  0  0  0  0  0
  149.0742  133.5116  185.7934 O   0  0  0  0  0  0  0  0  0  0  0  0
  148.3500  133.1612  186.3656 H   0  0  0  0  0  0  0  0  0  0  0  0
 16 17  1  0  0  0
 17 18  2  0  0  0
 18 19  1  0  0  0
 19 20  2  0  0  0
 20 21  1  0  0  0
 21 22  1  0  0  0
 21 23  2  0  0  0
 23 24  1  0  0  0
 19 13  1  0  0  0
 13 14  2  0  0  0
 13 15  2  0  0  0
 13  1  1  0  0  0
  1  2  1  0  0  0
  2 25  1  0  0  0
 25 26  1  0  0  0
  2  3  1  0  0  0
  3  4  1  0  0  0
  4  5  1  0  0  0
  5  6  1  0  0  0
  6  7  2  0  0  0
  7  8  1  0  0  0
  8  9  2  0  0  0
  9 10  1  0  0  0
  9 11  1  0  0  0
 11 12  2  0  0  0
 23 17  1  0  0  0
  5  1  1  0  0  0
 12  6  1  0  0  0
 26 27  1  0  0  0
M  END
> <minimizedAffinity>
-5.40861

> <CNNscore>
0.4962896705

> <CNNaffinity>
5.2057566643

> <CNN_VS>
2.5835633278

> <CNNaffinity_variance>
0.1485182792

$$$$
[H]OC([H])([H])[C@@]1([H])N(S(=O)(=O)c2c([H])c(C([H])([H])[H])c(F)c(C([H])([H])[H])c2[H])[C@@]([H])(c2c([H])c([H])c(F)c([H])c2[H])C([H])([H])C1([H])[H]


 27 29  0  0  0  0  0  0  0  0999 V2000
  154.7575  136.3020  189.8214 N   0  0  0  0  0  0  0  0  0  0  0  0
  154.8115  136.6033  191.2050 C   0  0  0  0  0  0  0  0  0  0  0  0
  155.9333  137.6050  191.4216 C   0  0  0  0  0  0  0  0  0  0  0  0
  156.2334  138.1460  190.0429 C   0  0  0  0  0  0  0  0  0  0  0  0
  155.6695  137.1103  189.1025 C   0  0  0  0  0  0  0  0  0  0  0  0
  155.0997  137.7403  187.8822 C   0  0  0  0  0  0  0  0  0  0  0  0
  153.7552  138.1045  187.7979 C   0  0  0  0  0  0  0  0  0  0  0  0
  153.2308  138.6871  186.6681 C   0  0  0  0  0  0  0  0  0  0  0  0
  154.0240  138.9343  185.5671 C   0  0  0  0  0  0  0  0  0  0  0  0
  153.5571  139.5037  184.4352 F   0  0  0  0  0  0  0  0  0  0  0  0
  155.3532  138.5866  185.6201 C   0  0  0  0  0  0  0  0  0  0  0  0
  155.8651  138.0029  186.7602 C   0  0  0  0  0  0  0  0  0  0  0  0
  154.8616  134.6518  189.4274 S   0  0  0  0  0  0  0  0  0  0  0  0
  154.5271  134.5055  187.9574 O   0  0  0  0  0  0  0  0  0  0  0  0
  153.8441  133.8564  190.1819 O   0  0  0  0  0  0  0  0  0  0  0  0
  159.7262  133.5999  187.9050 C   0  0  0  0  0  0  0  0  0  0  0  0
  158.6800  133.4733  188.9525 C   0  0  0  0  0  0  0  0  0  0  0  0
  157.4350  134.0339  188.7473 C   0  0  0  0  0  0  0  0  0  0  0  0
  156.4216  133.9531  189.6764 C   0  0  0  0  0  0  0  0  0  0  0  0
  156.7046  133.2749  190.8468 C   0  0  0  0  0  0  0  0  0  0  0  0
  157.9525  132.7018  191.0750 C   0  0  0  0  0  0  0  0  0  0  0  0
  158.2767  131.9684  192.3268 C   0  0  0  0  0  0  0  0  0  0  0  0
  158.9445  132.8032  190.1201 C   0  0  0  0  0  0  0  0  0  0  0  0
  160.1865  132.2581  190.2956 F   0  0  0  0  0  0  0  0  0  0  0  0
  153.5494  137.2417  191.7492 C   0  0  0  0  0  0  0  0  0  0  0  0
  152.4106  136.5376  191.4202 O   0  0  0  0  0  0  0  0  0  0  0  0
  152.2613  136.6528  190.4511 H   0  0  0  0  0  0  0  0  0  0  0  0
 16 17  1  0  0  0
 17 18  2  0  0  0
 18 19  1  0  0  0
 19 20  2  0  0  0
 20 21  1  0  0  0
 21 22  1  0  0  0
 21 23  2  0  0  0
 23 24  1  0  0  0
 19 13  1  0  0  0
 13 14  2  0  0  0
 13 15  2  0  0  0
 13  1  1  0  0  0
  1  2  1  0  0  0
  2 25  1  0  0  0
 25 26  1  0  0  0
  2  3  1  0  0  0
  3  4  1  0  0  0
  4  5  1  0  0  0
  5  6  1  0  0  0
  6  7  2  0  0  0
  7  8  1  0  0  0
  8  9  2  0  0  0
  9 10  1  0  0  0
  9 11  1  0  0  0
 11 12  2  0  0  0
 23 17  1  0  0  0
  5  1  1  0  0  0
 12  6  1  0  0  0
 26 27  1  0  0  0
M  END
> <minimizedAffinity>
-6.67477

> <CNNscore>
0.4936698079

> <CNNaffinity>
5.2979946136

> <CNN_VS>
2.6154599190

> <CNNaffinity_variance>
0.1355789453

$$$$
[H]OC([H])([H])[C@@]1([H])N(S(=O)(=O)c2c([H])c(C([H])([H])[H])c(F)c(C([H])([H])[H])c2[H])[C@@]([H])(c2c([H])c([H])c(F)c([H])c2[H])C([H])([H])C1([H])[H]


 27 29  0  0  0  0  0  0  0  0999 V2000
  155.6619  140.7247  184.0182 N   0  0  0  0  0  0  0  0  0  0  0  0
  154.9832  141.5703  183.1057 C   0  0  0  0  0  0  0  0  0  0  0  0
  153.9191  140.7427  182.4046 C   0  0  0  0  0  0  0  0  0  0  0  0
  153.7750  139.5042  183.2584 C   0  0  0  0  0  0  0  0  0  0  0  0
  155.0532  139.4481  184.0570 C   0  0  0  0  0  0  0  0  0  0  0  0
  154.8123  138.9255  185.4280 C   0  0  0  0  0  0  0  0  0  0  0  0
  155.8436  138.4091  186.2135 C   0  0  0  0  0  0  0  0  0  0  0  0
  155.6182  137.9265  187.4812 C   0  0  0  0  0  0  0  0  0  0  0  0
  154.3512  137.9361  188.0262 C   0  0  0  0  0  0  0  0  0  0  0  0
  154.0783  137.4741  189.2653 F   0  0  0  0  0  0  0  0  0  0  0  0
  153.3142  138.4388  187.2763 C   0  0  0  0  0  0  0  0  0  0  0  0
  153.5556  138.9195  186.0062 C   0  0  0  0  0  0  0  0  0  0  0  0
  157.3512  140.6626  183.8405 S   0  0  0  0  0  0  0  0  0  0  0  0
  157.7057  139.3081  183.2628 O   0  0  0  0  0  0  0  0  0  0  0  0
  158.0327  140.7563  185.1686 O   0  0  0  0  0  0  0  0  0  0  0  0
  158.4634  142.5096  179.1034 C   0  0  0  0  0  0  0  0  0  0  0  0
  158.5142  142.7071  180.5752 C   0  0  0  0  0  0  0  0  0  0  0  0
  157.9900  141.7432  181.4134 C   0  0  0  0  0  0  0  0  0  0  0  0
  158.0048  141.8638  182.7852 C   0  0  0  0  0  0  0  0  0  0  0  0
  158.5767  143.0110  183.3017 C   0  0  0  0  0  0  0  0  0  0  0  0
  159.1112  143.9958  182.4758 C   0  0  0  0  0  0  0  0  0  0  0  0
  159.7305  145.2366  183.0115 C   0  0  0  0  0  0  0  0  0  0  0  0
  159.0784  143.8403  181.1044 C   0  0  0  0  0  0  0  0  0  0  0  0
  159.5896  144.7778  180.2498 F   0  0  0  0  0  0  0  0  0  0  0  0
  154.2664  142.7357  183.7574 C   0  0  0  0  0  0  0  0  0  0  0  0
  153.5521  143.4950  182.8550 O   0  0  0  0  0  0  0  0  0  0  0  0
  154.2046  143.9812  182.2959 H   0  0  0  0  0  0  0  0  0  0  0  0
 16 17  1  0  0  0
 17 18  2  0  0  0
 18 19  1  0  0  0
 19 20  2  0  0  0
 20 21  1  0  0  0
 21 22  1  0  0  0
 21 23  2  0  0  0
 23 24  1  0  0  0
 19 13  1  0  0  0
 13 14  2  0  0  0
 13 15  2  0  0  0
 13  1  1  0  0  0
  1  2  1  0  0  0
  2 25  1  0  0  0
 25 26  1  0  0  0
  2  3  1  0  0  0
  3  4  1  0  0  0
  4  5  1  0  0  0
  5  6  1  0  0  0
  6  7  2  0  0  0
  7  8  1  0  0  0
  8  9  2  0  0  0
  9 10  1  0  0  0
  9 11  1  0  0  0
 11 12  2  0  0  0
 23 17  1  0  0  0
  5  1  1  0  0  0
 12  6  1  0  0  0
 26 27  1  0  0  0
M  END
> <minimizedAffinity>
-8.89944

> <CNNscore>
0.4912030697

> <CNNaffinity>
6.1621537209

> <CNN_VS>
3.0268688202

> <CNNaffinity_variance>
0.2138632983

$$$$
[H]OC([H])([H])[C@@]1([H])N(S(=O)(=O)c2c([H])c(C([H])([H])[H])c(F)c(C([H])([H])[H])c2[H])[C@@]([H])(c2c([H])c([H])c(F)c([H])c2[H])C([H])([H])C1([H])[H]


 27 29  0  0  0  0  0  0  0  0999 V2000
  155.6466  140.7281  184.0287 N   0  0  0  0  0  0  0  0  0  0  0  0
  154.9711  141.5747  183.1147 C   0  0  0  0  0  0  0  0  0  0  0  0
  153.9089  140.7481  182.4097 C   0  0  0  0  0  0  0  0  0  0  0  0
  153.7615  139.5089  183.2621 C   0  0  0  0  0  0  0  0  0  0  0  0
  155.0373  139.4518  184.0647 C   0  0  0  0  0  0  0  0  0  0  0  0
  154.7918  138.9283  185.4346 C   0  0  0  0  0  0  0  0  0  0  0  0
  155.8121  138.3700  186.2058 C   0  0  0  0  0  0  0  0  0  0  0  0
  155.5825  137.8867  187.4724 C   0  0  0  0  0  0  0  0  0  0  0  0
  154.3222  137.9373  188.0306 C   0  0  0  0  0  0  0  0  0  0  0  0
  154.0457  137.4765  189.2694 F   0  0  0  0  0  0  0  0  0  0  0  0
  153.2962  138.4819  187.2950 C   0  0  0  0  0  0  0  0  0  0  0  0
  153.5417  138.9628  186.0257 C   0  0  0  0  0  0  0  0  0  0  0  0
  157.3364  140.6655  183.8562 S   0  0  0  0  0  0  0  0  0  0  0  0
  157.6918  139.3131  183.2742 O   0  0  0  0  0  0  0  0  0  0  0  0
  158.0136  140.7532  185.1870 O   0  0  0  0  0  0  0  0  0  0  0  0
  159.7133  145.2158  182.9998 C   0  0  0  0  0  0  0  0  0  0  0  0
  159.1003  143.9888  182.4283 C   0  0  0  0  0  0  0  0  0  0  0  0
  158.5760  143.0293  183.2717 C   0  0  0  0  0  0  0  0  0  0  0  0
  157.9943  141.8704  182.8080 C   0  0  0  0  0  0  0  0  0  0  0  0
  157.9545  141.7009  181.4369 C   0  0  0  0  0  0  0  0  0  0  0  0
  158.4767  142.6548  180.5680 C   0  0  0  0  0  0  0  0  0  0  0  0
  158.4438  142.4912  179.0907 C   0  0  0  0  0  0  0  0  0  0  0  0
  159.0527  143.8049  181.0696 C   0  0  0  0  0  0  0  0  0  0  0  0
  159.5797  144.7720  180.2589 F   0  0  0  0  0  0  0  0  0  0  0  0
  154.2527  142.7399  183.7650 C   0  0  0  0  0  0  0  0  0  0  0  0
  153.5585  143.5122  182.8581 O   0  0  0  0  0  0  0  0  0  0  0  0
  154.2233  143.9982  182.3135 H   0  0  0  0  0  0  0  0  0  0  0  0
 16 17  1  0  0  0
 17 18  2  0  0  0
 18 19  1  0  0  0
 19 20  2  0  0  0
 20 21  1  0  0  0
 21 22  1  0  0  0
 21 23  2  0  0  0
 23 24  1  0  0  0
 19 13  1  0  0  0
 13 14  2  0  0  0
 13 15  2  0  0  0
 13  1  1  0  0  0
  1  2  1  0  0  0
  2 25  1  0  0  0
 25 26  1  0  0  0
  2  3  1  0  0  0
  3  4  1  0  0  0
  4  5  1  0  0  0
  5  6  1  0  0  0
  6  7  2  0  0  0
  7  8  1  0  0  0
  8  9  2  0  0  0
  9 10  1  0  0  0
  9 11  1  0  0  0
 11 12  2  0  0  0
 23 17  1  0  0  0
  5  1  1  0  0  0
 12  6  1  0  0  0
 26 27  1  0  0  0
M  END
> <minimizedAffinity>
-8.87496

> <CNNscore>
0.4893677235

> <CNNaffinity>
6.1584315300

> <CNN_VS>
3.0137376785

> <CNNaffinity_variance>
0.2149778306

$$$$
[H]OC1(C(F)(F)F)C([H])([H])C([H])([H])N(C([H])(C([H])([H])c2c([H])c([H])c(F)c([H])c2[H])C([H])([H])N([H])C(=O)C2(c3c([H])c([H])c(Cl)c([H])c3[H])C([H])([H])C2([H])[H])C([H])([H])C1([H])[H]


 36 39  0  0  0  0  0  0  0  0999 V2000
  153.9066  138.7438  185.1903 C   0  0  0  0  0  0  0  0  0  0  0  0
  154.5528  135.8863  189.5119 O   0  0  0  0  0  0  0  0  0  0  0  0
  154.7441  137.1833  188.9623 C   0  0  0  0  0  0  0  0  0  0  0  0
  153.4112  137.6409  188.5196 C   0  0  0  0  0  0  0  0  0  0  0  0
  153.5162  138.7385  187.5221 C   0  0  0  0  0  0  0  0  0  0  0  0
  154.2995  138.1973  186.3913 N   0  0  0  0  0  0  0  0  0  0  0  0
  155.6423  138.0568  186.7796 C   0  0  0  0  0  0  0  0  0  0  0  0
  155.8187  137.0923  187.9322 C   0  0  0  0  0  0  0  0  0  0  0  0
  153.9760  135.3454  188.9494 H   0  0  0  0  0  0  0  0  0  0  0  0
  155.2039  138.0141  190.1560 C   0  0  0  0  0  0  0  0  0  0  0  0
  154.6173  139.2496  190.2147 F   0  0  0  0  0  0  0  0  0  0  0  0
  155.0230  137.2982  191.3378 F   0  0  0  0  0  0  0  0  0  0  0  0
  156.5800  138.2321  190.0554 F   0  0  0  0  0  0  0  0  0  0  0  0
  154.6030  139.9042  184.5892 C   0  0  0  0  0  0  0  0  0  0  0  0
  155.9855  139.7014  184.2296 N   0  0  0  0  0  0  0  0  0  0  0  0
  156.7657  140.7572  183.7263 C   0  0  0  0  0  0  0  0  0  0  0  0
  156.1779  141.8909  183.6172 O   0  0  0  0  0  0  0  0  0  0  0  0
  156.3998  138.7674  184.3428 H   0  0  0  0  0  0  0  0  0  0  0  0
  158.1723  140.7272  183.3107 C   0  0  0  0  0  0  0  0  0  0  0  0
  158.4195  140.7832  181.8518 C   0  0  0  0  0  0  0  0  0  0  0  0
  158.6024  139.4846  182.5846 C   0  0  0  0  0  0  0  0  0  0  0  0
  159.1368  141.3601  184.2434 C   0  0  0  0  0  0  0  0  0  0  0  0
  160.3840  141.6888  183.7810 C   0  0  0  0  0  0  0  0  0  0  0  0
  161.3170  142.2511  184.6607 C   0  0  0  0  0  0  0  0  0  0  0  0
  160.9990  142.4789  185.9852 C   0  0  0  0  0  0  0  0  0  0  0  0
  162.1649  143.1868  187.1049 Cl  0  0  0  0  0  0  0  0  0  0  0  0
  159.7482  142.1517  186.4580 C   0  0  0  0  0  0  0  0  0  0  0  0
  158.8575  141.6041  185.5772 C   0  0  0  0  0  0  0  0  0  0  0  0
  153.7237  137.7092  184.0694 C   0  0  0  0  0  0  0  0  0  0  0  0
  152.5343  137.9944  183.2273 C   0  0  0  0  0  0  0  0  0  0  0  0
  152.7371  138.8509  182.1381 C   0  0  0  0  0  0  0  0  0  0  0  0
  151.7120  139.1769  181.2848 C   0  0  0  0  0  0  0  0  0  0  0  0
  150.4464  138.6696  181.4742 C   0  0  0  0  0  0  0  0  0  0  0  0
  149.4469  139.0118  180.6092 F   0  0  0  0  0  0  0  0  0  0  0  0
  150.2639  137.8384  182.5366 C   0  0  0  0  0  0  0  0  0  0  0  0
  151.2850  137.4973  183.4085 C   0  0  0  0  0  0  0  0  0  0  0  0
  2  3  1  0  0  0
  3  4  1  0  0  0
  4  5  1  0  0  0
  5  6  1  0  0  0
  6  7  1  0  0  0
  7  8  1  0  0  0
  6  1  1  0  0  0
  1 14  1  0  0  0
 14 15  1  0  0  0
 15 16  1  0  0  0
 16 17  2  0  0  0
 16 19  1  0  0  0
 19 20  1  0  0  0
 20 21  1  0  0  0
 19 22  1  0  0  0
 22 23  2  0  0  0
 23 24  1  0  0  0
 24 25  2  0  0  0
 25 26  1  0  0  0
 25 27  1  0  0  0
 27 28  2  0  0  0
  1 29  1  0  0  0
 29 30  1  0  0  0
 30 31  2  0  0  0
 31 32  1  0  0  0
 32 33  2  0  0  0
 33 34  1  0  0  0
 33 35  1  0  0  0
 35 36  2  0  0  0
  3 10  1  0  0  0
 10 11  1  0  0  0
 10 12  1  0  0  0
 10 13  1  0  0  0
  8  3  1  0  0  0
 21 19  1  0  0  0
 28 22  1  0  0  0
 36 30  1  0  0  0
  2  9  1  0  0  0
 15 18  1  0  0  0
M  END
> <minimizedAffinity>
-9.55763

> <CNNscore>
0.6979215741

> <CNNaffinity>
7.0831480026

> <CNN_VS>
4.9434819221

> <CNNaffinity_variance>
0.0713419393

$$$$
[H]OC1(C(F)(F)F)C([H])([H])C([H])([H])N(C([H])(C([H])([H])c2c([H])c([H])c(F)c([H])c2[H])C([H])([H])N([H])C(=O)C2(c3c([H])c([H])c(Cl)c([H])c3[H])C([H])([H])C2([H])[H])C([H])([H])C1([H])[H]


 36 39  0  0  0  0  0  0  0  0999 V2000
  154.3435  138.5194  184.3979 C   0  0  0  0  0  0  0  0  0  0  0  0
  152.6711  139.1337  179.4902 O   0  0  0  0  0  0  0  0  0  0  0  0
  152.2470  139.1202  180.8470 C   0  0  0  0  0  0  0  0  0  0  0  0
  153.0462  140.1540  181.5360 C   0  0  0  0  0  0  0  0  0  0  0  0
  153.0626  139.9388  183.0071 C   0  0  0  0  0  0  0  0  0  0  0  0
  153.6306  138.5911  183.2224 N   0  0  0  0  0  0  0  0  0  0  0  0
  152.6969  137.6220  182.8187 C   0  0  0  0  0  0  0  0  0  0  0  0
  152.3533  137.7196  181.3482 C   0  0  0  0  0  0  0  0  0  0  0  0
  153.6382  139.1765  179.4224 H   0  0  0  0  0  0  0  0  0  0  0  0
  150.7890  139.5616  180.7713 C   0  0  0  0  0  0  0  0  0  0  0  0
  150.1309  139.4665  181.9680 F   0  0  0  0  0  0  0  0  0  0  0  0
  150.7027  140.8442  180.2334 F   0  0  0  0  0  0  0  0  0  0  0  0
  150.1085  138.7321  179.8767 F   0  0  0  0  0  0  0  0  0  0  0  0
  155.1732  139.6454  184.8844 C   0  0  0  0  0  0  0  0  0  0  0  0
  156.5397  139.6759  184.4226 N   0  0  0  0  0  0  0  0  0  0  0  0
  157.0652  140.8158  183.7891 C   0  0  0  0  0  0  0  0  0  0  0  0
  156.2647  141.8082  183.6585 O   0  0  0  0  0  0  0  0  0  0  0  0
  157.1324  138.8472  184.5592 H   0  0  0  0  0  0  0  0  0  0  0  0
  158.4182  141.0156  183.2585 C   0  0  0  0  0  0  0  0  0  0  0  0
  158.5058  141.3956  181.8301 C   0  0  0  0  0  0  0  0  0  0  0  0
  158.8701  139.9996  182.2487 C   0  0  0  0  0  0  0  0  0  0  0  0
  159.4201  141.5382  184.2198 C   0  0  0  0  0  0  0  0  0  0  0  0
  160.7221  141.6658  183.8126 C   0  0  0  0  0  0  0  0  0  0  0  0
  161.6851  142.1210  184.7215 C   0  0  0  0  0  0  0  0  0  0  0  0
  161.3422  142.4428  186.0200 C   0  0  0  0  0  0  0  0  0  0  0  0
  162.5453  143.0175  187.1760 Cl  0  0  0  0  0  0  0  0  0  0  0  0
  160.0363  142.3176  186.4374 C   0  0  0  0  0  0  0  0  0  0  0  0
  159.1174  141.8708  185.5291 C   0  0  0  0  0  0  0  0  0  0  0  0
  153.5148  138.0314  185.5960 C   0  0  0  0  0  0  0  0  0  0  0  0
  154.3056  137.9975  186.8524 C   0  0  0  0  0  0  0  0  0  0  0  0
  153.7059  138.5758  187.9780 C   0  0  0  0  0  0  0  0  0  0  0  0
  154.3396  138.5929  189.1960 C   0  0  0  0  0  0  0  0  0  0  0  0
  155.5905  138.0393  189.3496 C   0  0  0  0  0  0  0  0  0  0  0  0
  156.1959  138.0714  190.5730 F   0  0  0  0  0  0  0  0  0  0  0  0
  156.1613  137.4807  188.2473 C   0  0  0  0  0  0  0  0  0  0  0  0
  155.5383  137.4533  187.0102 C   0  0  0  0  0  0  0  0  0  0  0  0
  2  3  1  0  0  0
  3  4  1  0  0  0
  4  5  1  0  0  0
  5  6  1  0  0  0
  6  7  1  0  0  0
  7  8  1  0  0  0
  6  1  1  0  0  0
  1 14  1  0  0  0
 14 15  1  0  0  0
 15 16  1  0  0  0
 16 17  2  0  0  0
 16 19  1  0  0  0
 19 20  1  0  0  0
 20 21  1  0  0  0
 19 22  1  0  0  0
 22 23  2  0  0  0
 23 24  1  0  0  0
 24 25  2  0  0  0
 25 26  1  0  0  0
 25 27  1  0  0  0
 27 28  2  0  0  0
  1 29  1  0  0  0
 29 30  1  0  0  0
 30 31  2  0  0  0
 31 32  1  0  0  0
 32 33  2  0  0  0
 33 34  1  0  0  0
 33 35  1  0  0  0
 35 36  2  0  0  0
  3 10  1  0  0  0
 10 11  1  0  0  0
 10 12  1  0  0  0
 10 13  1  0  0  0
  8  3  1  0  0  0
 21 19  1  0  0  0
 28 22  1  0  0  0
 36 30  1  0  0  0
  2  9  1  0  0  0
 15 18  1  0  0  0
M  END
> <minimizedAffinity>
-10.06825

> <CNNscore>
0.5777710676

> <CNNaffinity>
7.0478720665

> <CNN_VS>
4.0720567703

> <CNNaffinity_variance>
0.0756260231

$$$$
[H]OC1(C(F)(F)F)C([H])([H])C([H])([H])N(C([H])(C([H])([H])c2c([H])c([H])c(F)c([H])c2[H])C([H])([H])N([H])C(=O)C2(c3c([H])c([H])c(Cl)c([H])c3[H])C([H])([H])C2([H])[H])C([H])([H])C1([H])[H]


 36 39  0  0  0  0  0  0  0  0999 V2000
  153.4469  138.7354  182.6820 C   0  0  0  0  0  0  0  0  0  0  0  0
  148.4109  139.7015  181.6994 O   0  0  0  0  0  0  0  0  0  0  0  0
  149.5670  139.0467  181.1939 C   0  0  0  0  0  0  0  0  0  0  0  0
  149.9907  138.0965  182.2425 C   0  0  0  0  0  0  0  0  0  0  0  0
  151.4126  137.6964  182.0721 C   0  0  0  0  0  0  0  0  0  0  0  0
  152.2037  138.9438  182.1283 N   0  0  0  0  0  0  0  0  0  0  0  0
  151.9897  139.6846  180.9539 C   0  0  0  0  0  0  0  0  0  0  0  0
  150.5436  140.0940  180.7775 C   0  0  0  0  0  0  0  0  0  0  0  0
  148.5309  139.9662  182.6253 H   0  0  0  0  0  0  0  0  0  0  0  0
  149.0439  138.2791  179.9840 C   0  0  0  0  0  0  0  0  0  0  0  0
  147.7370  138.5593  179.6878 F   0  0  0  0  0  0  0  0  0  0  0  0
  149.8788  138.4842  178.8873 F   0  0  0  0  0  0  0  0  0  0  0  0
  149.1055  136.9097  180.2526 F   0  0  0  0  0  0  0  0  0  0  0  0
  154.1871  139.8114  183.3800 C   0  0  0  0  0  0  0  0  0  0  0  0
  155.5010  140.1166  182.8679 N   0  0  0  0  0  0  0  0  0  0  0  0
  156.0892  141.3749  183.0858 C   0  0  0  0  0  0  0  0  0  0  0  0
  155.3948  142.2129  183.7627 O   0  0  0  0  0  0  0  0  0  0  0  0
  156.0084  139.3998  182.3337 H   0  0  0  0  0  0  0  0  0  0  0  0
  157.4022  141.8519  182.6377 C   0  0  0  0  0  0  0  0  0  0  0  0
  157.4065  142.6890  181.4163 C   0  0  0  0  0  0  0  0  0  0  0  0
  157.8909  141.2689  181.3425 C   0  0  0  0  0  0  0  0  0  0  0  0
  158.3975  142.1090  183.7073 C   0  0  0  0  0  0  0  0  0  0  0  0
  159.4199  142.9872  183.4608 C   0  0  0  0  0  0  0  0  0  0  0  0
  160.3879  143.2097  184.4476 C   0  0  0  0  0  0  0  0  0  0  0  0
  160.3273  142.5580  185.6638 C   0  0  0  0  0  0  0  0  0  0  0  0
  161.5404  142.8287  186.9165 Cl  0  0  0  0  0  0  0  0  0  0  0  0
  159.3034  141.6740  185.9198 C   0  0  0  0  0  0  0  0  0  0  0  0
  158.3725  141.4761  184.9383 C   0  0  0  0  0  0  0  0  0  0  0  0
  153.5242  137.4914  183.5802 C   0  0  0  0  0  0  0  0  0  0  0  0
  153.5865  137.8401  185.0224 C   0  0  0  0  0  0  0  0  0  0  0  0
  154.8590  137.8341  185.6069 C   0  0  0  0  0  0  0  0  0  0  0  0
  155.0387  138.1507  186.9309 C   0  0  0  0  0  0  0  0  0  0  0  0
  153.9683  138.4855  187.7291 C   0  0  0  0  0  0  0  0  0  0  0  0
  154.1779  138.7955  189.0422 F   0  0  0  0  0  0  0  0  0  0  0  0
  152.7375  138.4874  187.1475 C   0  0  0  0  0  0  0  0  0  0  0  0
  152.5356  138.1713  185.8140 C   0  0  0  0  0  0  0  0  0  0  0  0
  2  3  1  0  0  0
  3  4  1  0  0  0
  4  5  1  0  0  0
  5  6  1  0  0  0
  6  7  1  0  0  0
  7  8  1  0  0  0
  6  1  1  0  0  0
  1 14  1  0  0  0
 14 15  1  0  0  0
 15 16  1  0  0  0
 16 17  2  0  0  0
 16 19  1  0  0  0
 19 20  1  0  0  0
 20 21  1  0  0  0
 19 22  1  0  0  0
 22 23  2  0  0  0
 23 24  1  0  0  0
 24 25  2  0  0  0
 25 26  1  0  0  0
 25 27  1  0  0  0
 27 28  2  0  0  0
  1 29  1  0  0  0
 29 30  1  0  0  0
 30 31  2  0  0  0
 31 32  1  0  0  0
 32 33  2  0  0  0
 33 34  1  0  0  0
 33 35  1  0  0  0
 35 36  2  0  0  0
  3 10  1  0  0  0
 10 11  1  0  0  0
 10 12  1  0  0  0
 10 13  1  0  0  0
  8  3  1  0  0  0
 21 19  1  0  0  0
 28 22  1  0  0  0
 36 30  1  0  0  0
  2  9  1  0  0  0
 15 18  1  0  0  0
M  END
> <minimizedAffinity>
-8.87909

> <CNNscore>
0.5332888365

> <CNNaffinity>
6.7852859497

> <CNN_VS>
3.6185171604

> <CNNaffinity_variance>
0.0325852111

$$$$
[H]OC1(C(F)(F)F)C([H])([H])C([H])([H])N(C([H])(C([H])([H])c2c([H])c([H])c(F)c([H])c2[H])C([H])([H])N([H])C(=O)C2(c3c([H])c([H])c(Cl)c([H])c3[H])C([H])([H])C2([H])[H])C([H])([H])C1([H])[H]


 36 39  0  0  0  0  0  0  0  0999 V2000
  153.2535  139.4689  183.1475 C   0  0  0  0  0  0  0  0  0  0  0  0
  153.0788  136.5027  187.4407 O   0  0  0  0  0  0  0  0  0  0  0  0
  153.9375  137.3095  186.6453 C   0  0  0  0  0  0  0  0  0  0  0  0
  153.3104  138.6459  186.5922 C   0  0  0  0  0  0  0  0  0  0  0  0
  153.8190  139.4406  185.4430 C   0  0  0  0  0  0  0  0  0  0  0  0
  153.5117  138.6562  184.2284 N   0  0  0  0  0  0  0  0  0  0  0  0
  154.3541  137.5332  184.1732 C   0  0  0  0  0  0  0  0  0  0  0  0
  154.1644  136.6029  185.3516 C   0  0  0  0  0  0  0  0  0  0  0  0
  152.1479  136.6327  187.1995 H   0  0  0  0  0  0  0  0  0  0  0  0
  155.2243  137.3762  187.4614 C   0  0  0  0  0  0  0  0  0  0  0  0
  156.3129  137.7629  186.7268 F   0  0  0  0  0  0  0  0  0  0  0  0
  155.0415  138.1852  188.5812 F   0  0  0  0  0  0  0  0  0  0  0  0
  155.5133  136.1037  187.9600 F   0  0  0  0  0  0  0  0  0  0  0  0
  154.1078  140.6324  182.8168 C   0  0  0  0  0  0  0  0  0  0  0  0
  155.4989  140.3488  182.5595 N   0  0  0  0  0  0  0  0  0  0  0  0
  156.5066  141.2451  182.9570 C   0  0  0  0  0  0  0  0  0  0  0  0
  156.1128  142.3068  183.5573 O   0  0  0  0  0  0  0  0  0  0  0  0
  155.7503  139.4777  182.0751 H   0  0  0  0  0  0  0  0  0  0  0  0
  157.9566  141.1184  182.7736 C   0  0  0  0  0  0  0  0  0  0  0  0
  158.4363  141.1197  181.3728 C   0  0  0  0  0  0  0  0  0  0  0  0
  158.4163  139.8328  182.1475 C   0  0  0  0  0  0  0  0  0  0  0  0
  158.7987  141.7167  183.8384 C   0  0  0  0  0  0  0  0  0  0  0  0
  159.7254  142.6650  183.4928 C   0  0  0  0  0  0  0  0  0  0  0  0
  160.5533  143.2096  184.4820 C   0  0  0  0  0  0  0  0  0  0  0  0
  160.4495  142.8057  185.7986 C   0  0  0  0  0  0  0  0  0  0  0  0
  161.4863  143.4835  187.0555 Cl  0  0  0  0  0  0  0  0  0  0  0  0
  159.5212  141.8535  186.1545 C   0  0  0  0  0  0  0  0  0  0  0  0
  158.7264  141.3389  185.1683 C   0  0  0  0  0  0  0  0  0  0  0  0
  153.0249  138.7017  181.8363 C   0  0  0  0  0  0  0  0  0  0  0  0
  151.6136  138.7727  181.3800 C   0  0  0  0  0  0  0  0  0  0  0  0
  151.4118  139.1477  180.0460 C   0  0  0  0  0  0  0  0  0  0  0  0
  150.1500  139.2365  179.5117 C   0  0  0  0  0  0  0  0  0  0  0  0
  149.0384  138.9583  180.2744 C   0  0  0  0  0  0  0  0  0  0  0  0
  147.7963  139.0554  179.7157 F   0  0  0  0  0  0  0  0  0  0  0  0
  149.2496  138.5950  181.5692 C   0  0  0  0  0  0  0  0  0  0  0  0
  150.5142  138.4995  182.1265 C   0  0  0  0  0  0  0  0  0  0  0  0
  2  3  1  0  0  0
  3  4  1  0  0  0
  4  5  1  0  0  0
  5  6  1  0  0  0
  6  7  1  0  0  0
  7  8  1  0  0  0
  6  1  1  0  0  0
  1 14  1  0  0  0
 14 15  1  0  0  0
 15 16  1  0  0  0
 16 17  2  0  0  0
 16 19  1  0  0  0
 19 20  1  0  0  0
 20 21  1  0  0  0
 19 22  1  0  0  0
 22 23  2  0  0  0
 23 24  1  0  0  0
 24 25  2  0  0  0
 25 26  1  0  0  0
 25 27  1  0  0  0
 27 28  2  0  0  0
  1 29  1  0  0  0
 29 30  1  0  0  0
 30 31  2  0  0  0
 31 32  1  0  0  0
 32 33  2  0  0  0
 33 34  1  0  0  0
 33 35  1  0  0  0
 35 36  2  0  0  0
  3 10  1  0  0  0
 10 11  1  0  0  0
 10 12  1  0  0  0
 10 13  1  0  0  0
  8  3  1  0  0  0
 21 19  1  0  0  0
 28 22  1  0  0  0
 36 30  1  0  0  0
  2  9  1  0  0  0
 15 18  1  0  0  0
M  END
> <minimizedAffinity>
-8.95783

> <CNNscore>
0.5272552967

> <CNNaffinity>
6.7989287376

> <CNN_VS>
3.5847711563

> <CNNaffinity_variance>
0.0416212901

$$$$
[H]OC1(C(F)(F)F)C([H])([H])C([H])([H])N(C([H])(C([H])([H])c2c([H])c([H])c(F)c([H])c2[H])C([H])([H])N([H])C(=O)C2(c3c([H])c([H])c(Cl)c([H])c3[H])C([H])([H])C2([H])[H])C([H])([H])C1([H])[H]


 36 39  0  0  0  0  0  0  0  0999 V2000
  154.3364  138.3419  186.1175 C   0  0  0  0  0  0  0  0  0  0  0  0
  155.0351  135.7068  190.5704 O   0  0  0  0  0  0  0  0  0  0  0  0
  155.3866  136.9010  189.8839 C   0  0  0  0  0  0  0  0  0  0  0  0
  154.1142  137.5825  189.5700 C   0  0  0  0  0  0  0  0  0  0  0  0
  154.2818  138.5689  188.4702 C   0  0  0  0  0  0  0  0  0  0  0  0
  154.7842  137.8097  187.3056 N   0  0  0  0  0  0  0  0  0  0  0  0
  156.1181  137.4329  187.5352 C   0  0  0  0  0  0  0  0  0  0  0  0
  156.2705  136.5314  188.7410 C   0  0  0  0  0  0  0  0  0  0  0  0
  154.2945  135.2543  190.1362 H   0  0  0  0  0  0  0  0  0  0  0  0
  156.1559  137.7022  190.9293 C   0  0  0  0  0  0  0  0  0  0  0  0
  156.6480  136.9319  191.9485 F   0  0  0  0  0  0  0  0  0  0  0  0
  157.1578  138.4530  190.3175 F   0  0  0  0  0  0  0  0  0  0  0  0
  155.2936  138.6321  191.5149 F   0  0  0  0  0  0  0  0  0  0  0  0
  155.2096  138.4518  184.9265 C   0  0  0  0  0  0  0  0  0  0  0  0
  155.6060  139.7864  184.5480 N   0  0  0  0  0  0  0  0  0  0  0  0
  156.9595  140.1113  184.3497 C   0  0  0  0  0  0  0  0  0  0  0  0
  157.7993  139.1580  184.5186 O   0  0  0  0  0  0  0  0  0  0  0  0
  154.8832  140.5070  184.4258 H   0  0  0  0  0  0  0  0  0  0  0  0
  157.5349  141.4065  183.9707 C   0  0  0  0  0  0  0  0  0  0  0  0
  156.5754  142.4286  183.4942 C   0  0  0  0  0  0  0  0  0  0  0  0
  157.4704  141.7356  182.5065 C   0  0  0  0  0  0  0  0  0  0  0  0
  158.7390  141.8269  184.7284 C   0  0  0  0  0  0  0  0  0  0  0  0
  159.8884  142.1094  184.0382 C   0  0  0  0  0  0  0  0  0  0  0  0
  161.0429  142.4697  184.7438 C   0  0  0  0  0  0  0  0  0  0  0  0
  161.0399  142.5445  186.1228 C   0  0  0  0  0  0  0  0  0  0  0  0
  162.4875  142.9972  187.0249 Cl  0  0  0  0  0  0  0  0  0  0  0  0
  159.8894  142.2624  186.8241 C   0  0  0  0  0  0  0  0  0  0  0  0
  158.7774  141.9132  186.1096 C   0  0  0  0  0  0  0  0  0  0  0  0
  153.0044  137.7472  185.6354 C   0  0  0  0  0  0  0  0  0  0  0  0
  153.1850  136.8038  184.5030 C   0  0  0  0  0  0  0  0  0  0  0  0
  153.8803  135.6216  184.7862 C   0  0  0  0  0  0  0  0  0  0  0  0
  154.0978  134.6713  183.8192 C   0  0  0  0  0  0  0  0  0  0  0  0
  153.6370  134.8518  182.5347 C   0  0  0  0  0  0  0  0  0  0  0  0
  153.8687  133.8894  181.5943 F   0  0  0  0  0  0  0  0  0  0  0  0
  152.9630  136.0053  182.2738 C   0  0  0  0  0  0  0  0  0  0  0  0
  152.7332  136.9757  183.2354 C   0  0  0  0  0  0  0  0  0  0  0  0
  2  3  1  0  0  0
  3  4  1  0  0  0
  4  5  1  0  0  0
  5  6  1  0  0  0
  6  7  1  0  0  0
  7  8  1  0  0  0
  6  1  1  0  0  0
  1 14  1  0  0  0
 14 15  1  0  0  0
 15 16  1  0  0  0
 16 17  2  0  0  0
 16 19  1  0  0  0
 19 20  1  0  0  0
 20 21  1  0  0  0
 19 22  1  0  0  0
 22 23  2  0  0  0
 23 24  1  0  0  0
 24 25  2  0  0  0
 25 26  1  0  0  0
 25 27  1  0  0  0
 27 28  2  0  0  0
  1 29  1  0  0  0
 29 30  1  0  0  0
 30 31  2  0  0  0
 31 32  1  0  0  0
 32 33  2  0  0  0
 33 34  1  0  0  0
 33 35  1  0  0  0
 35 36  2  0  0  0
  3 10  1  0  0  0
 10 11  1  0  0  0
 10 12  1  0  0  0
 10 13  1  0  0  0
  8  3  1  0  0  0
 21 19  1  0  0  0
 28 22  1  0  0  0
 36 30  1  0  0  0
  2  9  1  0  0  0
 15 18  1  0  0  0
M  END
> <minimizedAffinity>
-8.56217

> <CNNscore>
0.5255053639

> <CNNaffinity>
6.8166646957

> <CNN_VS>
3.5821938515

> <CNNaffinity_variance>
0.0553171039

$$$$
[H]OC1(C(F)(F)F)C([H])([H])C([H])([H])N(C([H])(C([H])([H])c2c([H])c([H])c(F)c([H])c2[H])C([H])([H])N([H])C(=O)C2(c3c([H])c([H])c(Cl)c([H])c3[H])C([H])([H])C2([H])[H])C([H])([H])C1([H])[H]


 36 39  0  0  0  0  0  0  0  0999 V2000
  153.0251  139.1942  183.1410 C   0  0  0  0  0  0  0  0  0  0  0  0
  155.2299  136.0631  186.6899 O   0  0  0  0  0  0  0  0  0  0  0  0
  154.2531  137.0812  186.5163 C   0  0  0  0  0  0  0  0  0  0  0  0
  153.3054  136.5710  185.5045 C   0  0  0  0  0  0  0  0  0  0  0  0
  152.5270  137.6746  184.8824 C   0  0  0  0  0  0  0  0  0  0  0  0
  153.5172  138.5892  184.2755 N   0  0  0  0  0  0  0  0  0  0  0  0
  154.1982  139.2796  185.2921 C   0  0  0  0  0  0  0  0  0  0  0  0
  154.9660  138.3554  186.2120 C   0  0  0  0  0  0  0  0  0  0  0  0
  155.5212  135.7034  185.8370 H   0  0  0  0  0  0  0  0  0  0  0  0
  153.5656  137.1540  187.8759 C   0  0  0  0  0  0  0  0  0  0  0  0
  152.3173  136.5922  187.8829 F   0  0  0  0  0  0  0  0  0  0  0  0
  154.3863  136.6047  188.8591 F   0  0  0  0  0  0  0  0  0  0  0  0
  153.3998  138.4949  188.2306 F   0  0  0  0  0  0  0  0  0  0  0  0
  153.7178  140.3313  182.4928 C   0  0  0  0  0  0  0  0  0  0  0  0
  155.1599  140.2866  182.5001 N   0  0  0  0  0  0  0  0  0  0  0  0
  155.9140  141.3220  183.0798 C   0  0  0  0  0  0  0  0  0  0  0  0
  155.2455  142.2857  183.5966 O   0  0  0  0  0  0  0  0  0  0  0  0
  155.6375  139.4840  182.0706 H   0  0  0  0  0  0  0  0  0  0  0  0
  157.3735  141.4394  183.1708 C   0  0  0  0  0  0  0  0  0  0  0  0
  158.0770  140.3063  183.8139 C   0  0  0  0  0  0  0  0  0  0  0  0
  157.9207  141.6006  184.5604 C   0  0  0  0  0  0  0  0  0  0  0  0
  158.0333  142.1833  182.0699 C   0  0  0  0  0  0  0  0  0  0  0  0
  158.2410  141.5470  180.8744 C   0  0  0  0  0  0  0  0  0  0  0  0
  158.8974  142.2247  179.8399 C   0  0  0  0  0  0  0  0  0  0  0  0
  159.3376  143.5231  180.0066 C   0  0  0  0  0  0  0  0  0  0  0  0
  160.1662  144.3893  178.7115 Cl  0  0  0  0  0  0  0  0  0  0  0  0
  159.1329  144.1700  181.2044 C   0  0  0  0  0  0  0  0  0  0  0  0
  158.4896  143.4842  182.1969 C   0  0  0  0  0  0  0  0  0  0  0  0
  152.6552  138.2071  182.0234 C   0  0  0  0  0  0  0  0  0  0  0  0
  151.2826  138.4326  181.5034 C   0  0  0  0  0  0  0  0  0  0  0  0
  151.1833  138.8027  180.1565 C   0  0  0  0  0  0  0  0  0  0  0  0
  149.9646  139.0269  179.5650 C   0  0  0  0  0  0  0  0  0  0  0  0
  148.7964  138.8944  180.2811 C   0  0  0  0  0  0  0  0  0  0  0  0
  147.5993  139.1241  179.6659 F   0  0  0  0  0  0  0  0  0  0  0  0
  148.9081  138.5341  181.5890 C   0  0  0  0  0  0  0  0  0  0  0  0
  150.1279  138.3032  182.2037 C   0  0  0  0  0  0  0  0  0  0  0  0
  2  3  1  0  0  0
  3  4  1  0  0  0
  4  5  1  0  0  0
  5  6  1  0  0  0
  6  7  1  0  0  0
  7  8  1  0  0  0
  6  1  1  0  0  0
  1 14  1  0  0  0
 14 15  1  0  0  0
 15 16  1  0  0  0
 16 17  2  0  0  0
 16 19  1  0  0  0
 19 20  1  0  0  0
 20 21  1  0  0  0
 19 22  1  0  0  0
 22 23  2  0  0  0
 23 24  1  0  0  0
 24 25  2  0  0  0
 25 26  1  0  0  0
 25 27  1  0  0  0
 27 28  2  0  0  0
  1 29  1  0  0  0
 29 30  1  0  0  0
 30 31  2  0  0  0
 31 32  1  0  0  0
 32 33  2  0  0  0
 33 34  1  0  0  0
 33 35  1  0  0  0
 35 36  2  0  0  0
  3 10  1  0  0  0
 10 11  1  0  0  0
 10 12  1  0  0  0
 10 13  1  0  0  0
  8  3  1  0  0  0
 21 19  1  0  0  0
 28 22  1  0  0  0
 36 30  1  0  0  0
  2  9  1  0  0  0
 15 18  1  0  0  0
M  END
> <minimizedAffinity>
-8.26658

> <CNNscore>
0.4842545390

> <CNNaffinity>
6.6909141541

> <CNN_VS>
3.2401056290

> <CNNaffinity_variance>
0.1822970808

$$$$
[H]OC1(C(F)(F)F)C([H])([H])C([H])([H])N(C([H])(C([H])([H])c2c([H])c([H])c(F)c([H])c2[H])C([H])([H])N([H])C(=O)C2(c3c([H])c([H])c(Cl)c([H])c3[H])C([H])([H])C2([H])[H])C([H])([H])C1([H])[H]


 36 39  0  0  0  0  0  0  0  0999 V2000
  154.3613  137.8283  185.9149 C   0  0  0  0  0  0  0  0  0  0  0  0
  151.4218  134.5066  183.1607 O   0  0  0  0  0  0  0  0  0  0  0  0
  151.6439  135.8860  183.4232 C   0  0  0  0  0  0  0  0  0  0  0  0
  153.0582  136.1447  183.0841 C   0  0  0  0  0  0  0  0  0  0  0  0
  153.5564  137.3843  183.7366 C   0  0  0  0  0  0  0  0  0  0  0  0
  153.3822  137.1859  185.1910 N   0  0  0  0  0  0  0  0  0  0  0  0
  152.0150  137.2450  185.5089 C   0  0  0  0  0  0  0  0  0  0  0  0
  151.2090  136.1637  184.8225 C   0  0  0  0  0  0  0  0  0  0  0  0
  152.1480  133.9604  183.5013 H   0  0  0  0  0  0  0  0  0  0  0  0
  150.7363  136.5923  182.4213 C   0  0  0  0  0  0  0  0  0  0  0  0
  150.3441  137.8386  182.8299 F   0  0  0  0  0  0  0  0  0  0  0  0
  151.3404  136.6251  181.1660 F   0  0  0  0  0  0  0  0  0  0  0  0
  149.5692  135.8424  182.2575 F   0  0  0  0  0  0  0  0  0  0  0  0
  155.3967  138.6656  185.2667 C   0  0  0  0  0  0  0  0  0  0  0  0
  154.9172  139.7140  184.3993 N   0  0  0  0  0  0  0  0  0  0  0  0
  155.7629  140.7606  183.9917 C   0  0  0  0  0  0  0  0  0  0  0  0
  156.9666  140.7165  184.4296 O   0  0  0  0  0  0  0  0  0  0  0  0
  153.9403  139.6913  184.0801 H   0  0  0  0  0  0  0  0  0  0  0  0
  155.4428  141.8994  183.1241 C   0  0  0  0  0  0  0  0  0  0  0  0
  154.4772  142.8802  183.6702 C   0  0  0  0  0  0  0  0  0  0  0  0
  154.0379  141.9293  182.5934 C   0  0  0  0  0  0  0  0  0  0  0  0
  156.5354  142.3626  182.2339 C   0  0  0  0  0  0  0  0  0  0  0  0
  157.0555  143.6160  182.4237 C   0  0  0  0  0  0  0  0  0  0  0  0
  158.0602  144.0804  181.5662 C   0  0  0  0  0  0  0  0  0  0  0  0
  158.5339  143.2949  180.5337 C   0  0  0  0  0  0  0  0  0  0  0  0
  159.7997  143.8673  179.4454 Cl  0  0  0  0  0  0  0  0  0  0  0  0
  158.0170  142.0344  180.3359 C   0  0  0  0  0  0  0  0  0  0  0  0
  157.0371  141.6069  181.1880 C   0  0  0  0  0  0  0  0  0  0  0  0
  153.8223  138.6355  187.1057 C   0  0  0  0  0  0  0  0  0  0  0  0
  154.5323  138.3172  188.3705 C   0  0  0  0  0  0  0  0  0  0  0  0
  155.6069  137.4248  188.2701 C   0  0  0  0  0  0  0  0  0  0  0  0
  156.3431  137.0659  189.3722 C   0  0  0  0  0  0  0  0  0  0  0  0
  156.0464  137.5745  190.6165 C   0  0  0  0  0  0  0  0  0  0  0  0
  156.7961  137.1991  191.6941 F   0  0  0  0  0  0  0  0  0  0  0  0
  154.9995  138.4407  190.6991 C   0  0  0  0  0  0  0  0  0  0  0  0
  154.2451  138.8152  189.5993 C   0  0  0  0  0  0  0  0  0  0  0  0
  2  3  1  0  0  0
  3  4  1  0  0  0
  4  5  1  0  0  0
  5  6  1  0  0  0
  6  7  1  0  0  0
  7  8  1  0  0  0
  6  1  1  0  0  0
  1 14  1  0  0  0
 14 15  1  0  0  0
 15 16  1  0  0  0
 16 17  2  0  0  0
 16 19  1  0  0  0
 19 20  1  0  0  0
 20 21  1  0  0  0
 19 22  1  0  0  0
 22 23  2  0  0  0
 23 24  1  0  0  0
 24 25  2  0  0  0
 25 26  1  0  0  0
 25 27  1  0  0  0
 27 28  2  0  0  0
  1 29  1  0  0  0
 29 30  1  0  0  0
 30 31  2  0  0  0
 31 32  1  0  0  0
 32 33  2  0  0  0
 33 34  1  0  0  0
 33 35  1  0  0  0
 35 36  2  0  0  0
  3 10  1  0  0  0
 10 11  1  0  0  0
 10 12  1  0  0  0
 10 13  1  0  0  0
  8  3  1  0  0  0
 21 19  1  0  0  0
 28 22  1  0  0  0
 36 30  1  0  0  0
  2  9  1  0  0  0
 15 18  1  0  0  0
M  END
> <minimizedAffinity>
-8.44149

> <CNNscore>
0.4444024265

> <CNNaffinity>
6.4501824379

> <CNN_VS>
2.8664767742

> <CNNaffinity_variance>
0.0842372328

$$$$
[H]OC1(C(F)(F)F)C([H])([H])C([H])([H])N(C([H])(C([H])([H])c2c([H])c([H])c(F)c([H])c2[H])C([H])([H])N([H])C(=O)C2(c3c([H])c([H])c(Cl)c([H])c3[H])C([H])([H])C2([H])[H])C([H])([H])C1([H])[H]


 36 39  0  0  0  0  0  0  0  0999 V2000
  153.6365  138.8436  184.9054 C   0  0  0  0  0  0  0  0  0  0  0  0
  154.3697  135.9200  189.1686 O   0  0  0  0  0  0  0  0  0  0  0  0
  154.5767  137.2171  188.6251 C   0  0  0  0  0  0  0  0  0  0  0  0
  153.2412  137.7176  188.2404 C   0  0  0  0  0  0  0  0  0  0  0  0
  153.3385  138.8230  187.2507 C   0  0  0  0  0  0  0  0  0  0  0  0
  154.0605  138.2725  186.0842 N   0  0  0  0  0  0  0  0  0  0  0  0
  155.4130  138.0893  186.4173 C   0  0  0  0  0  0  0  0  0  0  0  0
  155.6067  137.1072  187.5521 C   0  0  0  0  0  0  0  0  0  0  0  0
  153.7558  135.4021  188.6239 H   0  0  0  0  0  0  0  0  0  0  0  0
  155.1071  138.0209  189.8078 C   0  0  0  0  0  0  0  0  0  0  0  0
  154.4950  139.2365  189.9554 F   0  0  0  0  0  0  0  0  0  0  0  0
  155.0383  137.2615  190.9742 F   0  0  0  0  0  0  0  0  0  0  0  0
  156.4650  138.2815  189.6084 F   0  0  0  0  0  0  0  0  0  0  0  0
  154.2810  140.0511  184.3403 C   0  0  0  0  0  0  0  0  0  0  0  0
  155.7183  140.0099  184.2217 N   0  0  0  0  0  0  0  0  0  0  0  0
  156.4637  141.1866  184.0309 C   0  0  0  0  0  0  0  0  0  0  0  0
  155.7925  142.2772  183.9772 O   0  0  0  0  0  0  0  0  0  0  0  0
  156.1987  139.1026  184.2754 H   0  0  0  0  0  0  0  0  0  0  0  0
  157.9170  141.3262  183.8872 C   0  0  0  0  0  0  0  0  0  0  0  0
  158.7333  140.2243  184.4457 C   0  0  0  0  0  0  0  0  0  0  0  0
  158.6727  141.5404  185.1676 C   0  0  0  0  0  0  0  0  0  0  0  0
  158.3820  142.0420  182.6738 C   0  0  0  0  0  0  0  0  0  0  0  0
  158.4977  141.3454  181.4997 C   0  0  0  0  0  0  0  0  0  0  0  0
  158.9724  141.9994  180.3563 C   0  0  0  0  0  0  0  0  0  0  0  0
  159.3249  143.3342  180.3947 C   0  0  0  0  0  0  0  0  0  0  0  0
  159.9246  144.1711  178.9614 Cl  0  0  0  0  0  0  0  0  0  0  0  0
  159.2117  144.0416  181.5702 C   0  0  0  0  0  0  0  0  0  0  0  0
  158.7457  143.3778  182.6707 C   0  0  0  0  0  0  0  0  0  0  0  0
  153.4865  137.8415  183.7506 C   0  0  0  0  0  0  0  0  0  0  0  0
  152.4851  138.2834  182.7470 C   0  0  0  0  0  0  0  0  0  0  0  0
  151.1880  137.7790  182.9024 C   0  0  0  0  0  0  0  0  0  0  0  0
  150.1778  138.1272  182.0401 C   0  0  0  0  0  0  0  0  0  0  0  0
  150.4096  138.9873  180.9905 C   0  0  0  0  0  0  0  0  0  0  0  0
  149.3853  139.3152  180.1493 F   0  0  0  0  0  0  0  0  0  0  0  0
  151.6749  139.4698  180.8518 C   0  0  0  0  0  0  0  0  0  0  0  0
  152.7072  139.1307  181.7111 C   0  0  0  0  0  0  0  0  0  0  0  0
  2  3  1  0  0  0
  3  4  1  0  0  0
  4  5  1  0  0  0
  5  6  1  0  0  0
  6  7  1  0  0  0
  7  8  1  0  0  0
  6  1  1  0  0  0
  1 14  1  0  0  0
 14 15  1  0  0  0
 15 16  1  0  0  0
 16 17  2  0  0  0
 16 19  1  0  0  0
 19 20  1  0  0  0
 20 21  1  0  0  0
 19 22  1  0  0  0
 22 23  2  0  0  0
 23 24  1  0  0  0
 24 25  2  0  0  0
 25 26  1  0  0  0
 25 27  1  0  0  0
 27 28  2  0  0  0
  1 29  1  0  0  0
 29 30  1  0  0  0
 30 31  2  0  0  0
 31 32  1  0  0  0
 32 33  2  0  0  0
 33 34  1  0  0  0
 33 35  1  0  0  0
 35 36  2  0  0  0
  3 10  1  0  0  0
 10 11  1  0  0  0
 10 12  1  0  0  0
 10 13  1  0  0  0
  8  3  1  0  0  0
 21 19  1  0  0  0
 28 22  1  0  0  0
 36 30  1  0  0  0
  2  9  1  0  0  0
 15 18  1  0  0  0
M  END
> <minimizedAffinity>
-8.85377

> <CNNscore>
0.4229890108

> <CNNaffinity>
6.6882772446

> <CNN_VS>
2.8290677071

> <CNNaffinity_variance>
0.0410083793

$$$$
[H]OC1(C(F)(F)F)C([H])([H])C([H])([H])N(C([H])(C([H])([H])c2c([H])c([H])c(F)c([H])c2[H])C([H])([H])N([H])C(=O)C2(c3c([H])c([H])c(Cl)c([H])c3[H])C([H])([H])C2([H])[H])C([H])([H])C1([H])[H]


 36 39  0  0  0  0  0  0  0  0999 V2000
  154.8406  138.9097  184.9217 C   0  0  0  0  0  0  0  0  0  0  0  0
  154.9302  138.8116  190.1411 O   0  0  0  0  0  0  0  0  0  0  0  0
  154.6596  138.0233  188.9895 C   0  0  0  0  0  0  0  0  0  0  0  0
  155.8993  138.0331  188.1862 C   0  0  0  0  0  0  0  0  0  0  0  0
  155.6331  137.6666  186.7700 C   0  0  0  0  0  0  0  0  0  0  0  0
  154.6582  138.6549  186.2623 N   0  0  0  0  0  0  0  0  0  0  0  0
  153.4026  138.4121  186.8440 C   0  0  0  0  0  0  0  0  0  0  0  0
  153.4204  138.5527  188.3506 C   0  0  0  0  0  0  0  0  0  0  0  0
  155.3938  139.6315  189.9075 H   0  0  0  0  0  0  0  0  0  0  0  0
  154.4248  136.6274  189.5576 C   0  0  0  0  0  0  0  0  0  0  0  0
  153.7881  135.7868  188.6846 F   0  0  0  0  0  0  0  0  0  0  0  0
  155.6250  136.0867  190.0148 F   0  0  0  0  0  0  0  0  0  0  0  0
  153.6040  136.7267  190.6836 F   0  0  0  0  0  0  0  0  0  0  0  0
  156.1880  138.9855  184.3120 C   0  0  0  0  0  0  0  0  0  0  0  0
  156.7555  140.3057  184.1827 N   0  0  0  0  0  0  0  0  0  0  0  0
  158.0329  140.4939  183.6263 C   0  0  0  0  0  0  0  0  0  0  0  0
  158.6435  139.4340  183.2436 O   0  0  0  0  0  0  0  0  0  0  0  0
  156.2137  141.1169  184.5069 H   0  0  0  0  0  0  0  0  0  0  0  0
  158.7577  141.7535  183.4251 C   0  0  0  0  0  0  0  0  0  0  0  0
  157.9758  142.8658  182.8386 C   0  0  0  0  0  0  0  0  0  0  0  0
  158.9852  142.1433  181.9924 C   0  0  0  0  0  0  0  0  0  0  0  0
  159.8297  142.0479  184.4075 C   0  0  0  0  0  0  0  0  0  0  0  0
  161.1342  142.0214  183.9893 C   0  0  0  0  0  0  0  0  0  0  0  0
  162.1576  142.2592  184.9147 C   0  0  0  0  0  0  0  0  0  0  0  0
  161.8718  142.5198  186.2405 C   0  0  0  0  0  0  0  0  0  0  0  0
  163.1516  142.8212  187.4177 Cl  0  0  0  0  0  0  0  0  0  0  0  0
  160.5639  142.5483  186.6692 C   0  0  0  0  0  0  0  0  0  0  0  0
  159.5852  142.3125  185.7442 C   0  0  0  0  0  0  0  0  0  0  0  0
  153.9884  138.0229  184.0012 C   0  0  0  0  0  0  0  0  0  0  0  0
  153.3343  138.7994  182.9175 C   0  0  0  0  0  0  0  0  0  0  0  0
  152.4761  138.0837  182.0735 C   0  0  0  0  0  0  0  0  0  0  0  0
  151.8087  138.6999  181.0438 C   0  0  0  0  0  0  0  0  0  0  0  0
  151.9632  140.0473  180.8076 C   0  0  0  0  0  0  0  0  0  0  0  0
  151.2866  140.6324  179.7760 F   0  0  0  0  0  0  0  0  0  0  0  0
  152.8002  140.7302  181.6358 C   0  0  0  0  0  0  0  0  0  0  0  0
  153.4821  140.1269  182.6799 C   0  0  0  0  0  0  0  0  0  0  0  0
  2  3  1  0  0  0
  3  4  1  0  0  0
  4  5  1  0  0  0
  5  6  1  0  0  0
  6  7  1  0  0  0
  7  8  1  0  0  0
  6  1  1  0  0  0
  1 14  1  0  0  0
 14 15  1  0  0  0
 15 16  1  0  0  0
 16 17  2  0  0  0
 16 19  1  0  0  0
 19 20  1  0  0  0
 20 21  1  0  0  0
 19 22  1  0  0  0
 22 23  2  0  0  0
 23 24  1  0  0  0
 24 25  2  0  0  0
 25 26  1  0  0  0
 25 27  1  0  0  0
 27 28  2  0  0  0
  1 29  1  0  0  0
 29 30  1  0  0  0
 30 31  2  0  0  0
 31 32  1  0  0  0
 32 33  2  0  0  0
 33 34  1  0  0  0
 33 35  1  0  0  0
 35 36  2  0  0  0
  3 10  1  0  0  0
 10 11  1  0  0  0
 10 12  1  0  0  0
 10 13  1  0  0  0
  8  3  1  0  0  0
 21 19  1  0  0  0
 28 22  1  0  0  0
 36 30  1  0  0  0
  2  9  1  0  0  0
 15 18  1  0  0  0
M  END
> <minimizedAffinity>
-9.72121

> <CNNscore>
0.4074849188

> <CNNaffinity>
6.8627691269

> <CNN_VS>
2.7964749336

> <CNNaffinity_variance>
0.0176086724

$$$$
[H]C1=Nc2c([H])c([H])c([H])c(C(=O)N([H])[H])c2Oc2c([H])c([H])c([H])c([H])c21


 20 22  0  0  0  0  0  0  0  0999 V2000
  154.5645  138.0065  189.5975 C   0  0  0  0  0  0  0  0  0  0  0  0
  155.0352  138.2355  188.3228 C   0  0  0  0  0  0  0  0  0  0  0  0
  154.3304  137.7787  187.2101 C   0  0  0  0  0  0  0  0  0  0  0  0
  153.1502  137.0925  187.4363 C   0  0  0  0  0  0  0  0  0  0  0  0
  152.6570  136.8494  188.6893 C   0  0  0  0  0  0  0  0  0  0  0  0
  151.4399  136.1306  188.6250 N   0  0  0  0  0  0  0  0  0  0  0  0
  150.6844  135.7213  189.5807 C   0  0  0  0  0  0  0  0  0  0  0  0
  150.8926  135.8970  191.0097 C   0  0  0  0  0  0  0  0  0  0  0  0
  149.8522  135.3107  191.7316 C   0  0  0  0  0  0  0  0  0  0  0  0
  149.9183  135.4007  193.1059 C   0  0  0  0  0  0  0  0  0  0  0  0
  150.9427  136.0289  193.7698 C   0  0  0  0  0  0  0  0  0  0  0  0
  151.9648  136.6042  193.0425 C   0  0  0  0  0  0  0  0  0  0  0  0
  151.9234  136.5291  191.6729 C   0  0  0  0  0  0  0  0  0  0  0  0
  153.0436  137.1682  191.1090 O   0  0  0  0  0  0  0  0  0  0  0  0
  153.3875  137.3204  189.7769 C   0  0  0  0  0  0  0  0  0  0  0  0
  156.6185  137.9403  191.0505 N   0  0  0  0  0  0  0  0  0  0  0  0
  155.3271  138.4982  190.7332 C   0  0  0  0  0  0  0  0  0  0  0  0
  154.9089  139.4182  191.4842 O   0  0  0  0  0  0  0  0  0  0  0  0
  157.3783  138.6247  191.2508 H   0  0  0  0  0  0  0  0  0  0  0  0
  156.8085  136.9215  191.0847 H   0  0  0  0  0  0  0  0  0  0  0  0
 16 17  1  0  0  0
 17 18  2  0  0  0
 17  1  1  0  0  0
  1  2  2  0  0  0
  2  3  1  0  0  0
  3  4  2  0  0  0
  4  5  1  0  0  0
  5  6  1  0  0  0
  6  7  2  0  0  0
  7  8  1  0  0  0
  8  9  2  0  0  0
  9 10  1  0  0  0
 10 11  2  0  0  0
 11 12  1  0  0  0
 12 13  2  0  0  0
 13 14  1  0  0  0
 14 15  1  0  0  0
 15  1  1  0  0  0
 15  5  2  0  0  0
 13  8  1  0  0  0
 16 19  1  0  0  0
 16 20  1  0  0  0
M  END
> <minimizedAffinity>
-5.98350

> <CNNscore>
0.5221505165

> <CNNaffinity>
4.3185715675

> <CNN_VS>
2.2549443245

> <CNNaffinity_variance>
0.0396167114

$$$$
[H]C1=Nc2c([H])c([H])c([H])c(C(=O)N([H])[H])c2Oc2c([H])c([H])c([H])c([H])c21


 20 22  0  0  0  0  0  0  0  0999 V2000
  150.6799  135.9750  191.0165 C   0  0  0  0  0  0  0  0  0  0  0  0
  150.2092  135.8633  192.3068 C   0  0  0  0  0  0  0  0  0  0  0  0
  150.9677  136.3191  193.3841 C   0  0  0  0  0  0  0  0  0  0  0  0
  152.2008  136.8825  193.1069 C   0  0  0  0  0  0  0  0  0  0  0  0
  152.6956  137.0074  191.8372 C   0  0  0  0  0  0  0  0  0  0  0  0
  153.9724  137.6170  191.8478 N   0  0  0  0  0  0  0  0  0  0  0  0
  154.7479  137.9000  190.8628 C   0  0  0  0  0  0  0  0  0  0  0  0
  154.5049  137.6599  189.4487 C   0  0  0  0  0  0  0  0  0  0  0  0
  155.5836  138.1063  188.6841 C   0  0  0  0  0  0  0  0  0  0  0  0
  155.4904  137.9419  187.3184 C   0  0  0  0  0  0  0  0  0  0  0  0
  154.4047  137.3708  186.7021 C   0  0  0  0  0  0  0  0  0  0  0  0
  153.3454  136.9340  187.4712 C   0  0  0  0  0  0  0  0  0  0  0  0
  153.4123  137.0857  188.8335 C   0  0  0  0  0  0  0  0  0  0  0  0
  152.2473  136.5848  189.4442 O   0  0  0  0  0  0  0  0  0  0  0  0
  151.9106  136.5414  190.7861 C   0  0  0  0  0  0  0  0  0  0  0  0
  150.3583  134.4766  189.0200 N   0  0  0  0  0  0  0  0  0  0  0  0
  149.8605  135.4885  189.9189 C   0  0  0  0  0  0  0  0  0  0  0  0
  148.6965  135.9160  189.6997 O   0  0  0  0  0  0  0  0  0  0  0  0
  149.7104  133.6875  188.8119 H   0  0  0  0  0  0  0  0  0  0  0  0
  151.3019  134.5072  188.5911 H   0  0  0  0  0  0  0  0  0  0  0  0
 16 17  1  0  0  0
 17 18  2  0  0  0
 17  1  1  0  0  0
  1  2  2  0  0  0
  2  3  1  0  0  0
  3  4  2  0  0  0
  4  5  1  0  0  0
  5  6  1  0  0  0
  6  7  2  0  0  0
  7  8  1  0  0  0
  8  9  2  0  0  0
  9 10  1  0  0  0
 10 11  2  0  0  0
 11 12  1  0  0  0
 12 13  2  0  0  0
 13 14  1  0  0  0
 14 15  1  0  0  0
 15  1  1  0  0  0
 15  5  2  0  0  0
 13  8  1  0  0  0
 16 19  1  0  0  0
 16 20  1  0  0  0
M  END
> <minimizedAffinity>
-5.32236

> <CNNscore>
0.4849620163

> <CNNaffinity>
4.3659992218

> <CNN_VS>
2.1173439026

> <CNNaffinity_variance>
0.1771928966

$$$$
[H]C1=Nc2c([H])c([H])c([H])c(C(=O)N([H])[H])c2Oc2c([H])c([H])c([H])c([H])c21


 20 22  0  0  0  0  0  0  0  0999 V2000
  150.7923  136.0471  191.2378 C   0  0  0  0  0  0  0  0  0  0  0  0
  149.5970  135.5186  190.8008 C   0  0  0  0  0  0  0  0  0  0  0  0
  149.3885  135.2502  189.4487 C   0  0  0  0  0  0  0  0  0  0  0  0
  150.4211  135.5337  188.5723 C   0  0  0  0  0  0  0  0  0  0  0  0
  151.6188  136.0585  188.9753 C   0  0  0  0  0  0  0  0  0  0  0  0
  152.4869  136.2465  187.8738 N   0  0  0  0  0  0  0  0  0  0  0  0
  153.6842  136.7129  187.8509 C   0  0  0  0  0  0  0  0  0  0  0  0
  154.4735  137.1787  188.9806 C   0  0  0  0  0  0  0  0  0  0  0  0
  155.7294  137.6128  188.5543 C   0  0  0  0  0  0  0  0  0  0  0  0
  156.5888  138.0840  189.5241 C   0  0  0  0  0  0  0  0  0  0  0  0
  156.2615  138.1395  190.8562 C   0  0  0  0  0  0  0  0  0  0  0  0
  155.0158  137.7067  191.2630 C   0  0  0  0  0  0  0  0  0  0  0  0
  154.1409  137.2328  190.3179 C   0  0  0  0  0  0  0  0  0  0  0  0
  152.9299  136.8403  190.9185 O   0  0  0  0  0  0  0  0  0  0  0  0
  151.7916  136.3137  190.3329 C   0  0  0  0  0  0  0  0  0  0  0  0
  151.3743  137.6205  193.1140 N   0  0  0  0  0  0  0  0  0  0  0  0
  150.9728  136.3136  192.6553 C   0  0  0  0  0  0  0  0  0  0  0  0
  150.7917  135.4354  193.5393 O   0  0  0  0  0  0  0  0  0  0  0  0
  150.8358  138.0119  193.9156 H   0  0  0  0  0  0  0  0  0  0  0  0
  152.1502  138.1619  192.6896 H   0  0  0  0  0  0  0  0  0  0  0  0
 16 17  1  0  0  0
 17 18  2  0  0  0
 17  1  1  0  0  0
  1  2  2  0  0  0
  2  3  1  0  0  0
  3  4  2  0  0  0
  4  5  1  0  0  0
  5  6  1  0  0  0
  6  7  2  0  0  0
  7  8  1  0  0  0
  8  9  2  0  0  0
  9 10  1  0  0  0
 10 11  2  0  0  0
 11 12  1  0  0  0
 12 13  2  0  0  0
 13 14  1  0  0  0
 14 15  1  0  0  0
 15  1  1  0  0  0
 15  5  2  0  0  0
 13  8  1  0  0  0
 16 19  1  0  0  0
 16 20  1  0  0  0
M  END
> <minimizedAffinity>
-5.59941

> <CNNscore>
0.4823614359

> <CNNaffinity>
4.3415870667

> <CNN_VS>
2.0942142010

> <CNNaffinity_variance>
0.0833419338

$$$$
[H]C1=Nc2c([H])c([H])c([H])c(C(=O)N([H])[H])c2Oc2c([H])c([H])c([H])c([H])c21


 20 22  0  0  0  0  0  0  0  0999 V2000
  155.4896  137.5589  188.4727 C   0  0  0  0  0  0  0  0  0  0  0  0
  154.6990  138.4428  189.1744 C   0  0  0  0  0  0  0  0  0  0  0  0
  154.5799  138.3471  190.5602 C   0  0  0  0  0  0  0  0  0  0  0  0
  155.2814  137.3376  191.1956 C   0  0  0  0  0  0  0  0  0  0  0  0
  156.0742  136.4450  190.5269 C   0  0  0  0  0  0  0  0  0  0  0  0
  156.6694  135.5250  191.4221 N   0  0  0  0  0  0  0  0  0  0  0  0
  157.4679  134.5488  191.1752 C   0  0  0  0  0  0  0  0  0  0  0  0
  157.9773  134.1293  189.8787 C   0  0  0  0  0  0  0  0  0  0  0  0
  158.8206  133.0262  190.0178 C   0  0  0  0  0  0  0  0  0  0  0  0
  159.3791  132.5185  188.8639 C   0  0  0  0  0  0  0  0  0  0  0  0
  159.1412  133.0452  187.6186 C   0  0  0  0  0  0  0  0  0  0  0  0
  158.3050  134.1362  187.4966 C   0  0  0  0  0  0  0  0  0  0  0  0
  157.7359  134.6614  188.6295 C   0  0  0  0  0  0  0  0  0  0  0  0
  156.9199  135.7623  188.3077 O   0  0  0  0  0  0  0  0  0  0  0  0
  156.1694  136.5708  189.1437 C   0  0  0  0  0  0  0  0  0  0  0  0
  154.8221  136.8352  186.1564 N   0  0  0  0  0  0  0  0  0  0  0  0
  155.5891  137.6901  187.0284 C   0  0  0  0  0  0  0  0  0  0  0  0
  156.3348  138.5399  186.4740 O   0  0  0  0  0  0  0  0  0  0  0  0
  154.3223  137.3070  185.3732 H   0  0  0  0  0  0  0  0  0  0  0  0
  154.7542  135.8076  186.2780 H   0  0  0  0  0  0  0  0  0  0  0  0
 16 17  1  0  0  0
 17 18  2  0  0  0
 17  1  1  0  0  0
  1  2  2  0  0  0
  2  3  1  0  0  0
  3  4  2  0  0  0
  4  5  1  0  0  0
  5  6  1  0  0  0
  6  7  2  0  0  0
  7  8  1  0  0  0
  8  9  2  0  0  0
  9 10  1  0  0  0
 10 11  2  0  0  0
 11 12  1  0  0  0
 12 13  2  0  0  0
 13 14  1  0  0  0
 14 15  1  0  0  0
 15  1  1  0  0  0
 15  5  2  0  0  0
 13  8  1  0  0  0
 16 19  1  0  0  0
 16 20  1  0  0  0
M  END
> <minimizedAffinity>
-5.69373

> <CNNscore>
0.4817183614

> <CNNaffinity>
4.3362517357

> <CNN_VS>
2.0888521671

> <CNNaffinity_variance>
0.2260197699

$$$$
[H]C1=Nc2c([H])c([H])c([H])c(C(=O)N([H])[H])c2Oc2c([H])c([H])c([H])c([H])c21


 20 22  0  0  0  0  0  0  0  0999 V2000
  153.5261  136.9898  187.4683 C   0  0  0  0  0  0  0  0  0  0  0  0
  154.6216  137.4171  186.7499 C   0  0  0  0  0  0  0  0  0  0  0  0
  155.7351  137.9499  187.3979 C   0  0  0  0  0  0  0  0  0  0  0  0
  155.6951  138.0313  188.7787 C   0  0  0  0  0  0  0  0  0  0  0  0
  154.6224  137.6156  189.5198 C   0  0  0  0  0  0  0  0  0  0  0  0
  154.8524  137.8150  190.9016 N   0  0  0  0  0  0  0  0  0  0  0  0
  154.0876  137.5529  191.9006 C   0  0  0  0  0  0  0  0  0  0  0  0
  152.7556  136.9690  191.8653 C   0  0  0  0  0  0  0  0  0  0  0  0
  152.2439  136.8389  193.1570 C   0  0  0  0  0  0  0  0  0  0  0  0
  150.9818  136.2966  193.2762 C   0  0  0  0  0  0  0  0  0  0  0  0
  150.2325  135.8920  192.1994 C   0  0  0  0  0  0  0  0  0  0  0  0
  150.7517  136.0269  190.9279 C   0  0  0  0  0  0  0  0  0  0  0  0
  152.0061  136.5636  190.7809 C   0  0  0  0  0  0  0  0  0  0  0  0
  152.3626  136.6211  189.4204 O   0  0  0  0  0  0  0  0  0  0  0  0
  153.5283  137.0889  188.8389 C   0  0  0  0  0  0  0  0  0  0  0  0
  151.1234  137.1405  186.7342 N   0  0  0  0  0  0  0  0  0  0  0  0
  152.3836  136.4398  186.7576 C   0  0  0  0  0  0  0  0  0  0  0  0
  152.4330  135.3450  186.1375 O   0  0  0  0  0  0  0  0  0  0  0  0
  150.6610  137.2241  185.8041 H   0  0  0  0  0  0  0  0  0  0  0  0
  150.6799  137.5476  187.5785 H   0  0  0  0  0  0  0  0  0  0  0  0
 16 17  1  0  0  0
 17 18  2  0  0  0
 17  1  1  0  0  0
  1  2  2  0  0  0
  2  3  1  0  0  0
  3  4  2  0  0  0
  4  5  1  0  0  0
  5  6  1  0  0  0
  6  7  2  0  0  0
  7  8  1  0  0  0
  8  9  2  0  0  0
  9 10  1  0  0  0
 10 11  2  0  0  0
 11 12  1  0  0  0
 12 13  2  0  0  0
 13 14  1  0  0  0
 14 15  1  0  0  0
 15  1  1  0  0  0
 15  5  2  0  0  0
 13  8  1  0  0  0
 16 19  1  0  0  0
 16 20  1  0  0  0
M  END
> <minimizedAffinity>
-5.16653

> <CNNscore>
0.4697348475

> <CNNaffinity>
4.3866853714

> <CNN_VS>
2.0605790615

> <CNNaffinity_variance>
0.0443687364

$$$$
[H]C1=Nc2c([H])c([H])c([H])c(C(=O)N([H])[H])c2Oc2c([H])c([H])c([H])c([H])c21


 20 22  0  0  0  0  0  0  0  0999 V2000
  150.7618  135.8313  188.7066 C   0  0  0  0  0  0  0  0  0  0  0  0
  149.5580  135.3564  189.1801 C   0  0  0  0  0  0  0  0  0  0  0  0
  149.3069  135.2907  190.5499 C   0  0  0  0  0  0  0  0  0  0  0  0
  150.3067  135.7178  191.4060 C   0  0  0  0  0  0  0  0  0  0  0  0
  151.5119  136.1942  190.9667 C   0  0  0  0  0  0  0  0  0  0  0  0
  152.3406  136.5583  192.0543 N   0  0  0  0  0  0  0  0  0  0  0  0
  153.5321  137.0398  192.0447 C   0  0  0  0  0  0  0  0  0  0  0  0
  154.3546  137.3417  190.8834 C   0  0  0  0  0  0  0  0  0  0  0  0
  155.5916  137.8519  191.2791 C   0  0  0  0  0  0  0  0  0  0  0  0
  156.4787  138.1841  190.2772 C   0  0  0  0  0  0  0  0  0  0  0  0
  156.1956  138.0347  188.9422 C   0  0  0  0  0  0  0  0  0  0  0  0
  154.9680  137.5288  188.5659 C   0  0  0  0  0  0  0  0  0  0  0  0
  154.0662  137.1901  189.5432 C   0  0  0  0  0  0  0  0  0  0  0  0
  152.8793  136.6955  188.9705 O   0  0  0  0  0  0  0  0  0  0  0  0
  151.7275  136.2455  189.5923 C   0  0  0  0  0  0  0  0  0  0  0  0
  151.1560  137.1493  186.5990 N   0  0  0  0  0  0  0  0  0  0  0  0
  150.9871  135.8849  187.2716 C   0  0  0  0  0  0  0  0  0  0  0  0
  151.0456  134.8513  186.5549 O   0  0  0  0  0  0  0  0  0  0  0  0
  151.9521  137.2112  185.9296 H   0  0  0  0  0  0  0  0  0  0  0  0
  150.5361  137.9662  186.7532 H   0  0  0  0  0  0  0  0  0  0  0  0
 16 17  1  0  0  0
 17 18  2  0  0  0
 17  1  1  0  0  0
  1  2  2  0  0  0
  2  3  1  0  0  0
  3  4  2  0  0  0
  4  5  1  0  0  0
  5  6  1  0  0  0
  6  7  2  0  0  0
  7  8  1  0  0  0
  8  9  2  0  0  0
  9 10  1  0  0  0
 10 11  2  0  0  0
 11 12  1  0  0  0
 12 13  2  0  0  0
 13 14  1  0  0  0
 14 15  1  0  0  0
 15  1  1  0  0  0
 15  5  2  0  0  0
 13  8  1  0  0  0
 16 19  1  0  0  0
 16 20  1  0  0  0
M  END
> <minimizedAffinity>
-5.02997

> <CNNscore>
0.4582450688

> <CNNaffinity>
4.3378000259

> <CNN_VS>
1.9877754450

> <CNNaffinity_variance>
0.0767296180

$$$$
[H]C1=Nc2c([H])c([H])c([H])c(C(=O)N([H])[H])c2Oc2c([H])c([H])c([H])c([H])c21


 20 22  0  0  0  0  0  0  0  0999 V2000
  155.9027  135.9673  191.0280 C   0  0  0  0  0  0  0  0  0  0  0  0
  156.5626  137.0086  190.4123 C   0  0  0  0  0  0  0  0  0  0  0  0
  156.0414  138.3012  190.4448 C   0  0  0  0  0  0  0  0  0  0  0  0
  154.8457  138.4935  191.1143 C   0  0  0  0  0  0  0  0  0  0  0  0
  154.1670  137.4804  191.7352 C   0  0  0  0  0  0  0  0  0  0  0  0
  152.9800  137.9596  192.3381 N   0  0  0  0  0  0  0  0  0  0  0  0
  152.0888  137.3174  193.0051 C   0  0  0  0  0  0  0  0  0  0  0  0
  152.0721  135.8970  193.3191 C   0  0  0  0  0  0  0  0  0  0  0  0
  150.9364  135.5735  194.0626 C   0  0  0  0  0  0  0  0  0  0  0  0
  150.7885  134.2536  194.4331 C   0  0  0  0  0  0  0  0  0  0  0  0
  151.6936  133.2747  194.1053 C   0  0  0  0  0  0  0  0  0  0  0  0
  152.8120  133.6097  193.3695 C   0  0  0  0  0  0  0  0  0  0  0  0
  152.9837  134.9166  192.9879 C   0  0  0  0  0  0  0  0  0  0  0  0
  154.1734  135.0636  192.2501 O   0  0  0  0  0  0  0  0  0  0  0  0
  154.7173  136.2027  191.6822 C   0  0  0  0  0  0  0  0  0  0  0  0
  155.8223  133.5789  190.2384 N   0  0  0  0  0  0  0  0  0  0  0  0
  156.4772  134.6332  190.9728 C   0  0  0  0  0  0  0  0  0  0  0  0
  157.5549  134.3339  191.5512 O   0  0  0  0  0  0  0  0  0  0  0  0
  156.4295  133.0093  189.6118 H   0  0  0  0  0  0  0  0  0  0  0  0
  154.8077  133.3768  190.3105 H   0  0  0  0  0  0  0  0  0  0  0  0
 16 17  1  0  0  0
 17 18  2  0  0  0
 17  1  1  0  0  0
  1  2  2  0  0  0
  2  3  1  0  0  0
  3  4  2  0  0  0
  4  5  1  0  0  0
  5  6  1  0  0  0
  6  7  2  0  0  0
  7  8  1  0  0  0
  8  9  2  0  0  0
  9 10  1  0  0  0
 10 11  2  0  0  0
 11 12  1  0  0  0
 12 13  2  0  0  0
 13 14  1  0  0  0
 14 15  1  0  0  0
 15  1  1  0  0  0
 15  5  2  0  0  0
 13  8  1  0  0  0
 16 19  1  0  0  0
 16 20  1  0  0  0
M  END
> <minimizedAffinity>
-5.20271

> <CNNscore>
0.4103868306

> <CNNaffinity>
4.2835931778

> <CNN_VS>
1.7579302788

> <CNNaffinity_variance>
0.1112001687

$$$$
[H]C1=Nc2c([H])c([H])c([H])c(C(=O)N([H])[H])c2Oc2c([H])c([H])c([H])c([H])c21


 20 22  0  0  0  0  0  0  0  0999 V2000
  152.0093  137.1509  185.9210 C   0  0  0  0  0  0  0  0  0  0  0  0
  151.9965  137.2088  184.5443 C   0  0  0  0  0  0  0  0  0  0  0  0
  153.1460  137.5538  183.8349 C   0  0  0  0  0  0  0  0  0  0  0  0
  154.2890  137.8331  184.5631 C   0  0  0  0  0  0  0  0  0  0  0  0
  154.3333  137.7843  185.9299 C   0  0  0  0  0  0  0  0  0  0  0  0
  155.6234  138.1148  186.4080 N   0  0  0  0  0  0  0  0  0  0  0  0
  156.0519  138.1783  187.6179 C   0  0  0  0  0  0  0  0  0  0  0  0
  155.3009  137.9199  188.8367 C   0  0  0  0  0  0  0  0  0  0  0  0
  156.1134  138.0924  189.9580 C   0  0  0  0  0  0  0  0  0  0  0  0
  155.5307  137.8793  191.1893 C   0  0  0  0  0  0  0  0  0  0  0  0
  154.2167  137.5138  191.3462 C   0  0  0  0  0  0  0  0  0  0  0  0
  153.4252  137.3469  190.2280 C   0  0  0  0  0  0  0  0  0  0  0  0
  153.9804  137.5526  188.9900 C   0  0  0  0  0  0  0  0  0  0  0  0
  153.0259  137.3365  187.9783 O   0  0  0  0  0  0  0  0  0  0  0  0
  153.1666  137.4361  186.6050 C   0  0  0  0  0  0  0  0  0  0  0  0
  150.7599  135.6403  187.4995 N   0  0  0  0  0  0  0  0  0  0  0  0
  150.7912  136.7874  186.6261 C   0  0  0  0  0  0  0  0  0  0  0  0
  149.7212  137.4415  186.5137 O   0  0  0  0  0  0  0  0  0  0  0  0
  150.3180  135.7845  188.4321 H   0  0  0  0  0  0  0  0  0  0  0  0
  151.1470  134.7138  187.2406 H   0  0  0  0  0  0  0  0  0  0  0  0
 16 17  1  0  0  0
 17 18  2  0  0  0
 17  1  1  0  0  0
  1  2  2  0  0  0
  2  3  1  0  0  0
  3  4  2  0  0  0
  4  5  1  0  0  0
  5  6  1  0  0  0
  6  7  2  0  0  0
  7  8  1  0  0  0
  8  9  2  0  0  0
  9 10  1  0  0  0
 10 11  2  0  0  0
 11 12  1  0  0  0
 12 13  2  0  0  0
 13 14  1  0  0  0
 14 15  1  0  0  0
 15  1  1  0  0  0
 15  5  2  0  0  0
 13  8  1  0  0  0
 16 19  1  0  0  0
 16 20  1  0  0  0
M  END
> <minimizedAffinity>
-5.00030

> <CNNscore>
0.4032518864

> <CNNaffinity>
4.4753403664

> <CNN_VS>
1.8046894073

> <CNNaffinity_variance>
0.1754541695

$$$$
[H]C1=Nc2c([H])c([H])c([H])c(C(=O)N([H])[H])c2Oc2c([H])c([H])c([H])c([H])c21


 20 22  0  0  0  0  0  0  0  0999 V2000
  149.7367  134.9095  190.5282 C   0  0  0  0  0  0  0  0  0  0  0  0
  148.9148  134.2305  191.4013 C   0  0  0  0  0  0  0  0  0  0  0  0
  149.2055  134.1844  192.7640 C   0  0  0  0  0  0  0  0  0  0  0  0
  150.3424  134.8422  193.1994 C   0  0  0  0  0  0  0  0  0  0  0  0
  151.1780  135.5247  192.3576 C   0  0  0  0  0  0  0  0  0  0  0  0
  152.2578  136.0984  193.0696 N   0  0  0  0  0  0  0  0  0  0  0  0
  153.2384  136.8045  192.6319 C   0  0  0  0  0  0  0  0  0  0  0  0
  153.4954  137.2048  191.2571 C   0  0  0  0  0  0  0  0  0  0  0  0
  154.6611  137.9680  191.1794 C   0  0  0  0  0  0  0  0  0  0  0  0
  155.0295  138.4186  189.9295 C   0  0  0  0  0  0  0  0  0  0  0  0
  154.3101  138.1504  188.7914 C   0  0  0  0  0  0  0  0  0  0  0  0
  153.1593  137.3943  188.8837 C   0  0  0  0  0  0  0  0  0  0  0  0
  152.7699  136.9332  190.1161 C   0  0  0  0  0  0  0  0  0  0  0  0
  151.5813  136.1865  190.0113 O   0  0  0  0  0  0  0  0  0  0  0  0
  150.8562  135.5494  191.0033 C   0  0  0  0  0  0  0  0  0  0  0  0
  150.2427  134.2785  188.1449 N   0  0  0  0  0  0  0  0  0  0  0  0
  149.4009  134.9354  189.1142 C   0  0  0  0  0  0  0  0  0  0  0  0
  148.3782  135.5206  188.6702 O   0  0  0  0  0  0  0  0  0  0  0  0
  149.7560  133.6840  187.4411 H   0  0  0  0  0  0  0  0  0  0  0  0
  151.2751  134.3744  188.1259 H   0  0  0  0  0  0  0  0  0  0  0  0
 16 17  1  0  0  0
 17 18  2  0  0  0
 17  1  1  0  0  0
  1  2  2  0  0  0
  2  3  1  0  0  0
  3  4  2  0  0  0
  4  5  1  0  0  0
  5  6  1  0  0  0
  6  7  2  0  0  0
  7  8  1  0  0  0
  8  9  2  0  0  0
  9 10  1  0  0  0
 10 11  2  0  0  0
 11 12  1  0  0  0
 12 13  2  0  0  0
 13 14  1  0  0  0
 14 15  1  0  0  0
 15  1  1  0  0  0
 15  5  2  0  0  0
 13  8  1  0  0  0
 16 19  1  0  0  0
 16 20  1  0  0  0
M  END
> <minimizedAffinity>
-4.86600

> <CNNscore>
0.4010410011

> <CNNaffinity>
4.1292166710

> <CNN_VS>
1.6559852362

> <CNNaffinity_variance>
0.1225232929

$$$$
[H]c1sc(N([H])C(=O)C([H])([H])c2c(Cl)oc3c2c(=O)n(C([H])([H])[H])c(=O)n3C([H])([H])[H])nc1-c1c([H])c([H])c(F)c(OC(F)(F)F)c1[H]


 36 39  0  0  0  0  0  0  0  0999 V2000
  153.5410  136.0473  186.7923 C   0  0  0  0  0  0  0  0  0  0  0  0
  153.8004  134.9760  187.4184 O   0  0  0  0  0  0  0  0  0  0  0  0
  154.1796  136.2351  185.5601 N   0  0  0  0  0  0  0  0  0  0  0  0
  154.8402  135.5030  185.1924 H   0  0  0  0  0  0  0  0  0  0  0  0
  153.9929  137.3957  184.7450 C   0  0  0  0  0  0  0  0  0  0  0  0
  153.1750  137.5518  183.7156 N   0  0  0  0  0  0  0  0  0  0  0  0
  153.1441  138.6862  183.0933 C   0  0  0  0  0  0  0  0  0  0  0  0
  153.9763  139.6830  183.5425 C   0  0  0  0  0  0  0  0  0  0  0  0
  154.7578  138.9081  184.8499 S   0  0  0  0  0  0  0  0  0  0  0  0
  152.2416  138.9036  181.9277 C   0  0  0  0  0  0  0  0  0  0  0  0
  152.6765  139.5125  180.7665 C   0  0  0  0  0  0  0  0  0  0  0  0
  151.8411  139.7107  179.6837 C   0  0  0  0  0  0  0  0  0  0  0  0
  150.5351  139.2894  179.7622 C   0  0  0  0  0  0  0  0  0  0  0  0
  149.6817  139.4660  178.7190 F   0  0  0  0  0  0  0  0  0  0  0  0
  150.0686  138.6782  180.9059 C   0  0  0  0  0  0  0  0  0  0  0  0
  150.9404  138.5010  181.9645 C   0  0  0  0  0  0  0  0  0  0  0  0
  148.7591  138.2695  180.9492 O   0  0  0  0  0  0  0  0  0  0  0  0
  147.6537  139.0930  181.2323 C   0  0  0  0  0  0  0  0  0  0  0  0
  147.9680  140.3535  181.6380 F   0  0  0  0  0  0  0  0  0  0  0  0
  146.8424  139.2384  180.0979 F   0  0  0  0  0  0  0  0  0  0  0  0
  146.8158  138.5235  182.1909 F   0  0  0  0  0  0  0  0  0  0  0  0
  152.5976  137.0266  187.3803 C   0  0  0  0  0  0  0  0  0  0  0  0
  152.0716  136.1828  193.4120 C   0  0  0  0  0  0  0  0  0  0  0  0
  151.5720  136.0051  192.0501 N   0  0  0  0  0  0  0  0  0  0  0  0
  152.2312  136.4926  190.9948 C   0  0  0  0  0  0  0  0  0  0  0  0
  153.3492  137.1674  190.9195 O   0  0  0  0  0  0  0  0  0  0  0  0
  153.6526  137.4583  189.6798 C   0  0  0  0  0  0  0  0  0  0  0  0
  155.0548  138.3441  189.1376 Cl  0  0  0  0  0  0  0  0  0  0  0  0
  152.6516  136.9319  188.8663 C   0  0  0  0  0  0  0  0  0  0  0  0
  151.7529  136.3209  189.7008 C   0  0  0  0  0  0  0  0  0  0  0  0
  150.5744  135.6307  189.5356 C   0  0  0  0  0  0  0  0  0  0  0  0
  150.1306  135.4678  188.3700 O   0  0  0  0  0  0  0  0  0  0  0  0
  149.9288  135.1490  190.6185 N   0  0  0  0  0  0  0  0  0  0  0  0
  148.6919  134.4302  190.3875 C   0  0  0  0  0  0  0  0  0  0  0  0
  150.4230  135.3354  191.8533 C   0  0  0  0  0  0  0  0  0  0  0  0
  149.8040  134.8757  192.8654 O   0  0  0  0  0  0  0  0  0  0  0  0
 23 24  1  0  0  0
 24 25  1  0  0  0
 25 26  1  0  0  0
 26 27  1  0  0  0
 27 28  1  0  0  0
 27 29  2  0  0  0
 29 22  1  0  0  0
 22  1  1  0  0  0
  1  2  2  0  0  0
  1  3  1  0  0  0
  3  5  1  0  0  0
  5  6  2  0  0  0
  6  7  1  0  0  0
  7  8  2  0  0  0
  8  9  1  0  0  0
  7 10  1  0  0  0
 10 11  2  0  0  0
 11 12  1  0  0  0
 12 13  2  0  0  0
 13 14  1  0  0  0
 13 15  1  0  0  0
 15 17  1  0  0  0
 17 18  1  0  0  0
 18 19  1  0  0  0
 18 20  1  0  0  0
 18 21  1  0  0  0
 15 16  2  0  0  0
 29 30  1  0  0  0
 30 31  1  0  0  0
 31 32  2  0  0  0
 31 33  1  0  0  0
 33 34  1  0  0  0
 33 35  1  0  0  0
 35 36  2  0  0  0
 35 24  1  0  0  0
 30 25  2  0  0  0
  9  5  1  0  0  0
 16 10  1  0  0  0
  3  4  1  0  0  0
M  END
> <minimizedAffinity>
-7.37109

> <CNNscore>
0.5504083633

> <CNNaffinity>
6.0818276405

> <CNN_VS>
3.3474888802

> <CNNaffinity_variance>
0.2909552455

$$$$
[H]c1sc(N([H])C(=O)C([H])([H])c2c(Cl)oc3c2c(=O)n(C([H])([H])[H])c(=O)n3C([H])([H])[H])nc1-c1c([H])c([H])c(F)c(OC(F)(F)F)c1[H]


 36 39  0  0  0  0  0  0  0  0999 V2000
  154.8409  136.7282  188.0145 C   0  0  0  0  0  0  0  0  0  0  0  0
  155.0833  135.6932  188.7052 O   0  0  0  0  0  0  0  0  0  0  0  0
  155.4755  136.8259  186.7697 N   0  0  0  0  0  0  0  0  0  0  0  0
  156.1194  136.0593  186.4453 H   0  0  0  0  0  0  0  0  0  0  0  0
  155.3064  137.9367  185.8845 C   0  0  0  0  0  0  0  0  0  0  0  0
  156.2073  138.8325  185.5115 N   0  0  0  0  0  0  0  0  0  0  0  0
  155.8658  139.7770  184.6951 C   0  0  0  0  0  0  0  0  0  0  0  0
  154.5649  139.7988  184.2533 C   0  0  0  0  0  0  0  0  0  0  0  0
  153.9123  138.4377  185.0545 S   0  0  0  0  0  0  0  0  0  0  0  0
  156.8467  140.8076  184.2526 C   0  0  0  0  0  0  0  0  0  0  0  0
  156.5340  141.7560  183.2979 C   0  0  0  0  0  0  0  0  0  0  0  0
  157.4419  142.7147  182.8901 C   0  0  0  0  0  0  0  0  0  0  0  0
  158.6968  142.7271  183.4507 C   0  0  0  0  0  0  0  0  0  0  0  0
  159.6184  143.6536  183.0765 F   0  0  0  0  0  0  0  0  0  0  0  0
  159.0416  141.7954  184.4059 C   0  0  0  0  0  0  0  0  0  0  0  0
  158.1008  140.8548  184.7831 C   0  0  0  0  0  0  0  0  0  0  0  0
  160.3030  141.8378  184.9449 O   0  0  0  0  0  0  0  0  0  0  0  0
  160.7085  142.6565  186.0152 C   0  0  0  0  0  0  0  0  0  0  0  0
  161.8374  142.2453  186.6546 F   0  0  0  0  0  0  0  0  0  0  0  0
  160.9648  143.9612  185.5699 F   0  0  0  0  0  0  0  0  0  0  0  0
  159.6989  142.8034  186.9662 F   0  0  0  0  0  0  0  0  0  0  0  0
  153.9205  137.7608  188.5447 C   0  0  0  0  0  0  0  0  0  0  0  0
  151.6402  135.9233  193.9107 C   0  0  0  0  0  0  0  0  0  0  0  0
  151.5607  136.0148  192.4542 N   0  0  0  0  0  0  0  0  0  0  0  0
  152.5049  136.6351  191.7403 C   0  0  0  0  0  0  0  0  0  0  0  0
  153.6017  137.2419  192.1140 O   0  0  0  0  0  0  0  0  0  0  0  0
  154.2581  137.7229  191.0886 C   0  0  0  0  0  0  0  0  0  0  0  0
  155.7656  138.6000  191.1434 Cl  0  0  0  0  0  0  0  0  0  0  0  0
  153.5353  137.4080  189.9400 C   0  0  0  0  0  0  0  0  0  0  0  0
  152.4258  136.7193  190.3550 C   0  0  0  0  0  0  0  0  0  0  0  0
  151.3415  136.1425  189.7351 C   0  0  0  0  0  0  0  0  0  0  0  0
  151.2579  136.2111  188.4819 O   0  0  0  0  0  0  0  0  0  0  0  0
  150.4023  135.5223  190.4798 N   0  0  0  0  0  0  0  0  0  0  0  0
  149.2812  134.9325  189.7761 C   0  0  0  0  0  0  0  0  0  0  0  0
  150.5141  135.4617  191.8168 C   0  0  0  0  0  0  0  0  0  0  0  0
  149.6212  134.8738  192.5067 O   0  0  0  0  0  0  0  0  0  0  0  0
 23 24  1  0  0  0
 24 25  1  0  0  0
 25 26  1  0  0  0
 26 27  1  0  0  0
 27 28  1  0  0  0
 27 29  2  0  0  0
 29 22  1  0  0  0
 22  1  1  0  0  0
  1  2  2  0  0  0
  1  3  1  0  0  0
  3  5  1  0  0  0
  5  6  2  0  0  0
  6  7  1  0  0  0
  7  8  2  0  0  0
  8  9  1  0  0  0
  7 10  1  0  0  0
 10 11  2  0  0  0
 11 12  1  0  0  0
 12 13  2  0  0  0
 13 14  1  0  0  0
 13 15  1  0  0  0
 15 17  1  0  0  0
 17 18  1  0  0  0
 18 19  1  0  0  0
 18 20  1  0  0  0
 18 21  1  0  0  0
 15 16  2  0  0  0
 29 30  1  0  0  0
 30 31  1  0  0  0
 31 32  2  0  0  0
 31 33  1  0  0  0
 33 34  1  0  0  0
 33 35  1  0  0  0
 35 36  2  0  0  0
 35 24  1  0  0  0
 30 25  2  0  0  0
  9  5  1  0  0  0
 16 10  1  0  0  0
  3  4  1  0  0  0
M  END
> <minimizedAffinity>
-8.74904

> <CNNscore>
0.5450307727

> <CNNaffinity>
6.6569352150

> <CNN_VS>
3.6282346249

> <CNNaffinity_variance>
0.1019856334

$$$$
[H]c1sc(N([H])C(=O)C([H])([H])c2c(Cl)oc3c2c(=O)n(C([H])([H])[H])c(=O)n3C([H])([H])[H])nc1-c1c([H])c([H])c(F)c(OC(F)(F)F)c1[H]


 36 39  0  0  0  0  0  0  0  0999 V2000
  155.0274  136.9149  187.8186 C   0  0  0  0  0  0  0  0  0  0  0  0
  155.5990  136.0917  188.5949 O   0  0  0  0  0  0  0  0  0  0  0  0
  155.3186  136.8094  186.4527 N   0  0  0  0  0  0  0  0  0  0  0  0
  155.9851  136.0697  186.1120 H   0  0  0  0  0  0  0  0  0  0  0  0
  154.7575  137.6718  185.4588 C   0  0  0  0  0  0  0  0  0  0  0  0
  155.2298  138.8257  185.0132 N   0  0  0  0  0  0  0  0  0  0  0  0
  154.5764  139.4716  184.1017 C   0  0  0  0  0  0  0  0  0  0  0  0
  153.4084  138.9152  183.6390 C   0  0  0  0  0  0  0  0  0  0  0  0
  153.3294  137.4783  184.5608 S   0  0  0  0  0  0  0  0  0  0  0  0
  155.0699  140.7751  183.5748 C   0  0  0  0  0  0  0  0  0  0  0  0
  154.2962  141.9192  183.6056 C   0  0  0  0  0  0  0  0  0  0  0  0
  154.7549  143.1293  183.1210 C   0  0  0  0  0  0  0  0  0  0  0  0
  156.0210  143.1994  182.5908 C   0  0  0  0  0  0  0  0  0  0  0  0
  156.5089  144.3710  182.1036 F   0  0  0  0  0  0  0  0  0  0  0  0
  156.8194  142.0771  182.5446 C   0  0  0  0  0  0  0  0  0  0  0  0
  156.3185  140.8876  183.0412 C   0  0  0  0  0  0  0  0  0  0  0  0
  158.0785  142.1837  182.0091 O   0  0  0  0  0  0  0  0  0  0  0  0
  158.4849  141.6678  180.7646 C   0  0  0  0  0  0  0  0  0  0  0  0
  158.8115  140.3466  180.7717 F   0  0  0  0  0  0  0  0  0  0  0  0
  157.4656  141.8133  179.8127 F   0  0  0  0  0  0  0  0  0  0  0  0
  159.5616  142.3794  180.2357 F   0  0  0  0  0  0  0  0  0  0  0  0
  154.1011  137.9256  188.3799 C   0  0  0  0  0  0  0  0  0  0  0  0
  151.5838  135.7466  193.5069 C   0  0  0  0  0  0  0  0  0  0  0  0
  151.5753  135.9236  192.0561 N   0  0  0  0  0  0  0  0  0  0  0  0
  152.5449  136.5959  191.4285 C   0  0  0  0  0  0  0  0  0  0  0  0
  153.6130  137.1918  191.8919 O   0  0  0  0  0  0  0  0  0  0  0  0
  154.3126  137.7403  190.9310 C   0  0  0  0  0  0  0  0  0  0  0  0
  155.8028  138.6296  191.1132 Cl  0  0  0  0  0  0  0  0  0  0  0  0
  153.6522  137.4861  189.7309 C   0  0  0  0  0  0  0  0  0  0  0  0
  152.5334  136.7614  190.0482 C   0  0  0  0  0  0  0  0  0  0  0  0
  151.4896  136.2103  189.3416 C   0  0  0  0  0  0  0  0  0  0  0  0
  151.4673  136.3523  188.0921 O   0  0  0  0  0  0  0  0  0  0  0  0
  150.5235  135.5363  190.0004 N   0  0  0  0  0  0  0  0  0  0  0  0
  149.4473  134.9768  189.2075 C   0  0  0  0  0  0  0  0  0  0  0  0
  150.5696  135.3977  191.3353 C   0  0  0  0  0  0  0  0  0  0  0  0
  149.6521  134.7596  191.9436 O   0  0  0  0  0  0  0  0  0  0  0  0
 23 24  1  0  0  0
 24 25  1  0  0  0
 25 26  1  0  0  0
 26 27  1  0  0  0
 27 28  1  0  0  0
 27 29  2  0  0  0
 29 22  1  0  0  0
 22  1  1  0  0  0
  1  2  2  0  0  0
  1  3  1  0  0  0
  3  5  1  0  0  0
  5  6  2  0  0  0
  6  7  1  0  0  0
  7  8  2  0  0  0
  8  9  1  0  0  0
  7 10  1  0  0  0
 10 11  2  0  0  0
 11 12  1  0  0  0
 12 13  2  0  0  0
 13 14  1  0  0  0
 13 15  1  0  0  0
 15 17  1  0  0  0
 17 18  1  0  0  0
 18 19  1  0  0  0
 18 20  1  0  0  0
 18 21  1  0  0  0
 15 16  2  0  0  0
 29 30  1  0  0  0
 30 31  1  0  0  0
 31 32  2  0  0  0
 31 33  1  0  0  0
 33 34  1  0  0  0
 33 35  1  0  0  0
 35 36  2  0  0  0
 35 24  1  0  0  0
 30 25  2  0  0  0
  9  5  1  0  0  0
 16 10  1  0  0  0
  3  4  1  0  0  0
M  END
> <minimizedAffinity>
-8.56720

> <CNNscore>
0.4224328995

> <CNNaffinity>
6.3648705482

> <CNN_VS>
2.6887307167

> <CNNaffinity_variance>
0.1592060924

$$$$
[H]c1sc(N([H])C(=O)C([H])([H])c2c(Cl)oc3c2c(=O)n(C([H])([H])[H])c(=O)n3C([H])([H])[H])nc1-c1c([H])c([H])c(F)c(OC(F)(F)F)c1[H]


 36 39  0  0  0  0  0  0  0  0999 V2000
  153.1279  136.6678  185.1440 C   0  0  0  0  0  0  0  0  0  0  0  0
  153.3005  135.5035  185.6147 O   0  0  0  0  0  0  0  0  0  0  0  0
  153.1779  136.8052  183.7511 N   0  0  0  0  0  0  0  0  0  0  0  0
  153.3515  135.9628  183.1447 H   0  0  0  0  0  0  0  0  0  0  0  0
  153.0099  138.0554  183.0764 C   0  0  0  0  0  0  0  0  0  0  0  0
  153.8227  139.1006  183.0723 N   0  0  0  0  0  0  0  0  0  0  0  0
  153.4989  140.1562  182.3970 C   0  0  0  0  0  0  0  0  0  0  0  0
  152.3091  140.1339  181.7102 C   0  0  0  0  0  0  0  0  0  0  0  0
  151.7291  138.5715  182.0884 S   0  0  0  0  0  0  0  0  0  0  0  0
  154.3823  141.3558  182.3681 C   0  0  0  0  0  0  0  0  0  0  0  0
  153.8961  142.6303  182.5864 C   0  0  0  0  0  0  0  0  0  0  0  0
  154.7156  143.7429  182.5639 C   0  0  0  0  0  0  0  0  0  0  0  0
  156.0576  143.5786  182.3164 C   0  0  0  0  0  0  0  0  0  0  0  0
  156.8968  144.6476  182.2857 F   0  0  0  0  0  0  0  0  0  0  0  0
  156.5756  142.3210  182.0945 C   0  0  0  0  0  0  0  0  0  0  0  0
  155.7179  141.2367  182.1266 C   0  0  0  0  0  0  0  0  0  0  0  0
  157.9203  142.1939  181.8514 O   0  0  0  0  0  0  0  0  0  0  0  0
  158.4961  141.7605  180.6428 C   0  0  0  0  0  0  0  0  0  0  0  0
  158.7786  140.4302  180.5880 F   0  0  0  0  0  0  0  0  0  0  0  0
  157.6385  142.0226  179.5648 F   0  0  0  0  0  0  0  0  0  0  0  0
  159.6614  142.4655  180.3422 F   0  0  0  0  0  0  0  0  0  0  0  0
  152.8879  137.8008  186.0678 C   0  0  0  0  0  0  0  0  0  0  0  0
  156.3498  137.2638  191.0775 C   0  0  0  0  0  0  0  0  0  0  0  0
  155.0736  137.0997  190.3844 N   0  0  0  0  0  0  0  0  0  0  0  0
  154.9217  137.4576  189.1058 C   0  0  0  0  0  0  0  0  0  0  0  0
  155.7675  137.9795  188.2556 O   0  0  0  0  0  0  0  0  0  0  0  0
  155.2122  138.1812  187.0874 C   0  0  0  0  0  0  0  0  0  0  0  0
  155.9850  138.8577  185.6768 Cl  0  0  0  0  0  0  0  0  0  0  0  0
  153.8879  137.7570  187.1715 C   0  0  0  0  0  0  0  0  0  0  0  0
  153.7062  137.2992  188.4501 C   0  0  0  0  0  0  0  0  0  0  0  0
  152.6571  136.7605  189.1584 C   0  0  0  0  0  0  0  0  0  0  0  0
  151.5517  136.6114  188.5769 O   0  0  0  0  0  0  0  0  0  0  0  0
  152.8376  136.4077  190.4485 N   0  0  0  0  0  0  0  0  0  0  0  0
  151.6995  135.8457  191.1476 C   0  0  0  0  0  0  0  0  0  0  0  0
  154.0277  136.5763  191.0476 C   0  0  0  0  0  0  0  0  0  0  0  0
  154.1840  136.2393  192.2645 O   0  0  0  0  0  0  0  0  0  0  0  0
 23 24  1  0  0  0
 24 25  1  0  0  0
 25 26  1  0  0  0
 26 27  1  0  0  0
 27 28  1  0  0  0
 27 29  2  0  0  0
 29 22  1  0  0  0
 22  1  1  0  0  0
  1  2  2  0  0  0
  1  3  1  0  0  0
  3  5  1  0  0  0
  5  6  2  0  0  0
  6  7  1  0  0  0
  7  8  2  0  0  0
  8  9  1  0  0  0
  7 10  1  0  0  0
 10 11  2  0  0  0
 11 12  1  0  0  0
 12 13  2  0  0  0
 13 14  1  0  0  0
 13 15  1  0  0  0
 15 17  1  0  0  0
 17 18  1  0  0  0
 18 19  1  0  0  0
 18 20  1  0  0  0
 18 21  1  0  0  0
 15 16  2  0  0  0
 29 30  1  0  0  0
 30 31  1  0  0  0
 31 32  2  0  0  0
 31 33  1  0  0  0
 33 34  1  0  0  0
 33 35  1  0  0  0
 35 36  2  0  0  0
 35 24  1  0  0  0
 30 25  2  0  0  0
  9  5  1  0  0  0
 16 10  1  0  0  0
  3  4  1  0  0  0
M  END
> <minimizedAffinity>
-8.80815

> <CNNscore>
0.3475558162

> <CNNaffinity>
6.3594937325

> <CNN_VS>
2.2102789879

> <CNNaffinity_variance>
0.3202343583

$$$$
[H]c1sc(N([H])C(=O)C([H])([H])c2c(Cl)oc3c2c(=O)n(C([H])([H])[H])c(=O)n3C([H])([H])[H])nc1-c1c([H])c([H])c(F)c(OC(F)(F)F)c1[H]


 36 39  0  0  0  0  0  0  0  0999 V2000
  154.5452  136.1413  188.0857 C   0  0  0  0  0  0  0  0  0  0  0  0
  155.0676  135.3150  188.8926 O   0  0  0  0  0  0  0  0  0  0  0  0
  154.6319  135.8399  186.7206 N   0  0  0  0  0  0  0  0  0  0  0  0
  155.1140  134.9591  186.4055 H   0  0  0  0  0  0  0  0  0  0  0  0
  154.0977  136.6796  185.6931 C   0  0  0  0  0  0  0  0  0  0  0  0
  154.6557  137.7384  185.1267 N   0  0  0  0  0  0  0  0  0  0  0  0
  154.0130  138.3798  184.2044 C   0  0  0  0  0  0  0  0  0  0  0  0
  152.7657  137.9192  183.8582 C   0  0  0  0  0  0  0  0  0  0  0  0
  152.6006  136.5738  184.8989 S   0  0  0  0  0  0  0  0  0  0  0  0
  154.6021  139.5783  183.5435 C   0  0  0  0  0  0  0  0  0  0  0  0
  153.8290  140.4843  182.8434 C   0  0  0  0  0  0  0  0  0  0  0  0
  154.3741  141.5983  182.2338 C   0  0  0  0  0  0  0  0  0  0  0  0
  155.7285  141.8139  182.3255 C   0  0  0  0  0  0  0  0  0  0  0  0
  156.3031  142.8977  181.7397 F   0  0  0  0  0  0  0  0  0  0  0  0
  156.5288  140.9299  183.0164 C   0  0  0  0  0  0  0  0  0  0  0  0
  155.9396  139.8289  183.6103 C   0  0  0  0  0  0  0  0  0  0  0  0
  157.8769  141.1768  183.0883 O   0  0  0  0  0  0  0  0  0  0  0  0
  158.8920  140.3169  182.6297 C   0  0  0  0  0  0  0  0  0  0  0  0
  158.6372  139.7164  181.4352 F   0  0  0  0  0  0  0  0  0  0  0  0
  160.0961  141.0166  182.4664 F   0  0  0  0  0  0  0  0  0  0  0  0
  159.1886  139.3227  183.5619 F   0  0  0  0  0  0  0  0  0  0  0  0
  153.8840  137.3579  188.6125 C   0  0  0  0  0  0  0  0  0  0  0  0
  151.5494  136.0550  194.1099 C   0  0  0  0  0  0  0  0  0  0  0  0
  151.4605  136.0474  192.6511 N   0  0  0  0  0  0  0  0  0  0  0  0
  152.4342  136.5543  191.8890 C   0  0  0  0  0  0  0  0  0  0  0  0
  153.5708  137.1156  192.2116 O   0  0  0  0  0  0  0  0  0  0  0  0
  154.2453  137.4799  191.1505 C   0  0  0  0  0  0  0  0  0  0  0  0
  155.8053  138.2615  191.1332 Cl  0  0  0  0  0  0  0  0  0  0  0  0
  153.4921  137.1304  190.0318 C   0  0  0  0  0  0  0  0  0  0  0  0
  152.3461  136.5445  190.5017 C   0  0  0  0  0  0  0  0  0  0  0  0
  151.2213  135.9949  189.9312 C   0  0  0  0  0  0  0  0  0  0  0  0
  151.1290  135.9792  188.6769 O   0  0  0  0  0  0  0  0  0  0  0  0
  150.2529  135.4899  190.7241 N   0  0  0  0  0  0  0  0  0  0  0  0
  149.0898  134.9237  190.0712 C   0  0  0  0  0  0  0  0  0  0  0  0
  150.3746  135.5177  192.0613 C   0  0  0  0  0  0  0  0  0  0  0  0
  149.4540  135.0380  192.7969 O   0  0  0  0  0  0  0  0  0  0  0  0
 23 24  1  0  0  0
 24 25  1  0  0  0
 25 26  1  0  0  0
 26 27  1  0  0  0
 27 28  1  0  0  0
 27 29  2  0  0  0
 29 22  1  0  0  0
 22  1  1  0  0  0
  1  2  2  0  0  0
  1  3  1  0  0  0
  3  5  1  0  0  0
  5  6  2  0  0  0
  6  7  1  0  0  0
  7  8  2  0  0  0
  8  9  1  0  0  0
  7 10  1  0  0  0
 10 11  2  0  0  0
 11 12  1  0  0  0
 12 13  2  0  0  0
 13 14  1  0  0  0
 13 15  1  0  0  0
 15 17  1  0  0  0
 17 18  1  0  0  0
 18 19  1  0  0  0
 18 20  1  0  0  0
 18 21  1  0  0  0
 15 16  2  0  0  0
 29 30  1  0  0  0
 30 31  1  0  0  0
 31 32  2  0  0  0
 31 33  1  0  0  0
 33 34  1  0  0  0
 33 35  1  0  0  0
 35 36  2  0  0  0
 35 24  1  0  0  0
 30 25  2  0  0  0
  9  5  1  0  0  0
 16 10  1  0  0  0
  3  4  1  0  0  0
M  END
> <minimizedAffinity>
-8.57035

> <CNNscore>
0.3314667344

> <CNNaffinity>
6.3002696037

> <CNN_VS>
2.0883297920

> <CNNaffinity_variance>
0.1048531532

$$$$
[H]c1sc(N([H])C(=O)C([H])([H])c2c(Cl)oc3c2c(=O)n(C([H])([H])[H])c(=O)n3C([H])([H])[H])nc1-c1c([H])c([H])c(F)c(OC(F)(F)F)c1[H]


 36 39  0  0  0  0  0  0  0  0999 V2000
  154.7180  136.6118  187.9795 C   0  0  0  0  0  0  0  0  0  0  0  0
  154.9325  135.5681  188.6661 O   0  0  0  0  0  0  0  0  0  0  0  0
  155.2662  136.6502  186.6912 N   0  0  0  0  0  0  0  0  0  0  0  0
  155.8263  135.8345  186.3328 H   0  0  0  0  0  0  0  0  0  0  0  0
  155.1161  137.7624  185.8042 C   0  0  0  0  0  0  0  0  0  0  0  0
  156.0428  138.6140  185.3929 N   0  0  0  0  0  0  0  0  0  0  0  0
  155.7155  139.5682  184.5820 C   0  0  0  0  0  0  0  0  0  0  0  0
  154.4021  139.6466  184.1862 C   0  0  0  0  0  0  0  0  0  0  0  0
  153.7175  138.3213  185.0201 S   0  0  0  0  0  0  0  0  0  0  0  0
  156.7257  140.5506  184.0975 C   0  0  0  0  0  0  0  0  0  0  0  0
  157.7720  140.9790  184.8913 C   0  0  0  0  0  0  0  0  0  0  0  0
  158.7115  141.8869  184.4412 C   0  0  0  0  0  0  0  0  0  0  0  0
  158.6036  142.3811  183.1631 C   0  0  0  0  0  0  0  0  0  0  0  0
  159.5073  143.2758  182.6830 F   0  0  0  0  0  0  0  0  0  0  0  0
  157.5720  141.9747  182.3447 C   0  0  0  0  0  0  0  0  0  0  0  0
  156.6550  141.0646  182.8377 C   0  0  0  0  0  0  0  0  0  0  0  0
  157.4954  142.4880  181.0741 O   0  0  0  0  0  0  0  0  0  0  0  0
  158.2338  142.0381  179.9639 C   0  0  0  0  0  0  0  0  0  0  0  0
  159.1363  142.9326  179.4762 F   0  0  0  0  0  0  0  0  0  0  0  0
  158.9629  140.8854  180.2894 F   0  0  0  0  0  0  0  0  0  0  0  0
  157.4033  141.6424  178.9156 F   0  0  0  0  0  0  0  0  0  0  0  0
  153.9175  137.7154  188.5590 C   0  0  0  0  0  0  0  0  0  0  0  0
  151.5841  135.8615  193.8965 C   0  0  0  0  0  0  0  0  0  0  0  0
  151.5177  135.9597  192.4397 N   0  0  0  0  0  0  0  0  0  0  0  0
  152.4701  136.5801  191.7370 C   0  0  0  0  0  0  0  0  0  0  0  0
  153.5656  137.1816  192.1230 O   0  0  0  0  0  0  0  0  0  0  0  0
  154.2325  137.6651  191.1056 C   0  0  0  0  0  0  0  0  0  0  0  0
  155.7423  138.5369  191.1776 Cl  0  0  0  0  0  0  0  0  0  0  0  0
  153.5188  137.3576  189.9493 C   0  0  0  0  0  0  0  0  0  0  0  0
  152.4035  136.6707  190.3514 C   0  0  0  0  0  0  0  0  0  0  0  0
  151.3229  136.1003  189.7194 C   0  0  0  0  0  0  0  0  0  0  0  0
  151.2505  136.1747  188.4659 O   0  0  0  0  0  0  0  0  0  0  0  0
  150.3751  135.4798  190.4531 N   0  0  0  0  0  0  0  0  0  0  0  0
  149.2584  134.8969  189.7369 C   0  0  0  0  0  0  0  0  0  0  0  0
  150.4749  135.4130  191.7907 C   0  0  0  0  0  0  0  0  0  0  0  0
  149.5741  134.8248  192.4701 O   0  0  0  0  0  0  0  0  0  0  0  0
 23 24  1  0  0  0
 24 25  1  0  0  0
 25 26  1  0  0  0
 26 27  1  0  0  0
 27 28  1  0  0  0
 27 29  2  0  0  0
 29 22  1  0  0  0
 22  1  1  0  0  0
  1  2  2  0  0  0
  1  3  1  0  0  0
  3  5  1  0  0  0
  5  6  2  0  0  0
  6  7  1  0  0  0
  7  8  2  0  0  0
  8  9  1  0  0  0
  7 10  1  0  0  0
 10 11  2  0  0  0
 11 12  1  0  0  0
 12 13  2  0  0  0
 13 14  1  0  0  0
 13 15  1  0  0  0
 15 17  1  0  0  0
 17 18  1  0  0  0
 18 19  1  0  0  0
 18 20  1  0  0  0
 18 21  1  0  0  0
 15 16  2  0  0  0
 29 30  1  0  0  0
 30 31  1  0  0  0
 31 32  2  0  0  0
 31 33  1  0  0  0
 33 34  1  0  0  0
 33 35  1  0  0  0
 35 36  2  0  0  0
 35 24  1  0  0  0
 30 25  2  0  0  0
  9  5  1  0  0  0
 16 10  1  0  0  0
  3  4  1  0  0  0
M  END
> <minimizedAffinity>
-8.58595

> <CNNscore>
0.3104473650

> <CNNaffinity>
6.2486619949

> <CNN_VS>
1.9398806095

> <CNNaffinity_variance>
0.1408062726

$$$$
[H]c1sc(N([H])C(=O)C([H])([H])c2c(Cl)oc3c2c(=O)n(C([H])([H])[H])c(=O)n3C([H])([H])[H])nc1-c1c([H])c([H])c(F)c(OC(F)(F)F)c1[H]


 36 39  0  0  0  0  0  0  0  0999 V2000
  154.5025  137.3865  185.5574 C   0  0  0  0  0  0  0  0  0  0  0  0
  154.6403  136.1805  185.9228 O   0  0  0  0  0  0  0  0  0  0  0  0
  154.9460  137.7165  184.2705 N   0  0  0  0  0  0  0  0  0  0  0  0
  155.3701  136.9767  183.6539 H   0  0  0  0  0  0  0  0  0  0  0  0
  154.8643  139.0357  183.7235 C   0  0  0  0  0  0  0  0  0  0  0  0
  155.8326  139.9285  183.5877 N   0  0  0  0  0  0  0  0  0  0  0  0
  155.5660  141.0824  183.0656 C   0  0  0  0  0  0  0  0  0  0  0  0
  154.2707  141.3216  182.6746 C   0  0  0  0  0  0  0  0  0  0  0  0
  153.5136  139.8472  183.0908 S   0  0  0  0  0  0  0  0  0  0  0  0
  156.6247  142.1175  182.8978 C   0  0  0  0  0  0  0  0  0  0  0  0
  156.3695  143.3382  182.3036 C   0  0  0  0  0  0  0  0  0  0  0  0
  157.3499  144.3003  182.1514 C   0  0  0  0  0  0  0  0  0  0  0  0
  158.6203  144.0364  182.6050 C   0  0  0  0  0  0  0  0  0  0  0  0
  159.6124  144.9563  182.4740 F   0  0  0  0  0  0  0  0  0  0  0  0
  158.9090  142.8287  183.2027 C   0  0  0  0  0  0  0  0  0  0  0  0
  157.8965  141.8960  183.3335 C   0  0  0  0  0  0  0  0  0  0  0  0
  160.1880  142.5994  183.6446 O   0  0  0  0  0  0  0  0  0  0  0  0
  160.6938  142.9574  184.9080 C   0  0  0  0  0  0  0  0  0  0  0  0
  159.8659  142.6866  185.9537 F   0  0  0  0  0  0  0  0  0  0  0  0
  161.8915  142.2774  185.1715 F   0  0  0  0  0  0  0  0  0  0  0  0
  161.0385  144.3077  184.9641 F   0  0  0  0  0  0  0  0  0  0  0  0
  153.8940  138.3662  186.4872 C   0  0  0  0  0  0  0  0  0  0  0  0
  151.8275  135.4930  191.4716 C   0  0  0  0  0  0  0  0  0  0  0  0
  152.8846  136.2018  190.7531 N   0  0  0  0  0  0  0  0  0  0  0  0
  152.7043  136.6478  189.5063 C   0  0  0  0  0  0  0  0  0  0  0  0
  151.6685  136.5739  188.7111 O   0  0  0  0  0  0  0  0  0  0  0  0
  151.9067  137.1446  187.5573 C   0  0  0  0  0  0  0  0  0  0  0  0
  150.7982  137.2691  186.2154 Cl  0  0  0  0  0  0  0  0  0  0  0  0
  153.2092  137.6376  187.5918 C   0  0  0  0  0  0  0  0  0  0  0  0
  153.7122  137.3221  188.8267 C   0  0  0  0  0  0  0  0  0  0  0  0
  154.9083  137.5188  189.4773 C   0  0  0  0  0  0  0  0  0  0  0  0
  155.8287  138.1279  188.8738 O   0  0  0  0  0  0  0  0  0  0  0  0
  155.0638  137.0580  190.7362 N   0  0  0  0  0  0  0  0  0  0  0  0
  156.3436  137.2919  191.3744 C   0  0  0  0  0  0  0  0  0  0  0  0
  154.0659  136.4109  191.3600 C   0  0  0  0  0  0  0  0  0  0  0  0
  154.2262  135.9818  192.5470 O   0  0  0  0  0  0  0  0  0  0  0  0
 23 24  1  0  0  0
 24 25  1  0  0  0
 25 26  1  0  0  0
 26 27  1  0  0  0
 27 28  1  0  0  0
 27 29  2  0  0  0
 29 22  1  0  0  0
 22  1  1  0  0  0
  1  2  2  0  0  0
  1  3  1  0  0  0
  3  5  1  0  0  0
  5  6  2  0  0  0
  6  7  1  0  0  0
  7  8  2  0  0  0
  8  9  1  0  0  0
  7 10  1  0  0  0
 10 11  2  0  0  0
 11 12  1  0  0  0
 12 13  2  0  0  0
 13 14  1  0  0  0
 13 15  1  0  0  0
 15 17  1  0  0  0
 17 18  1  0  0  0
 18 19  1  0  0  0
 18 20  1  0  0  0
 18 21  1  0  0  0
 15 16  2  0  0  0
 29 30  1  0  0  0
 30 31  1  0  0  0
 31 32  2  0  0  0
 31 33  1  0  0  0
 33 34  1  0  0  0
 33 35  1  0  0  0
 35 36  2  0  0  0
 35 24  1  0  0  0
 30 25  2  0  0  0
  9  5  1  0  0  0
 16 10  1  0  0  0
  3  4  1  0  0  0
M  END
> <minimizedAffinity>
-8.65076

> <CNNscore>
0.2829163373

> <CNNaffinity>
6.4754991531

> <CNN_VS>
1.8320244551

> <CNNaffinity_variance>
0.1651801467

$$$$
[H]c1sc(N([H])C(=O)C([H])([H])c2c(Cl)oc3c2c(=O)n(C([H])([H])[H])c(=O)n3C([H])([H])[H])nc1-c1c([H])c([H])c(F)c(OC(F)(F)F)c1[H]


 36 39  0  0  0  0  0  0  0  0999 V2000
  153.2633  137.1507  185.2088 C   0  0  0  0  0  0  0  0  0  0  0  0
  153.1810  135.9664  185.6533 O   0  0  0  0  0  0  0  0  0  0  0  0
  153.3415  137.3050  183.8189 N   0  0  0  0  0  0  0  0  0  0  0  0
  153.3293  136.4586  183.1936 H   0  0  0  0  0  0  0  0  0  0  0  0
  153.4468  138.5767  183.1724 C   0  0  0  0  0  0  0  0  0  0  0  0
  154.4654  139.4225  183.1878 N   0  0  0  0  0  0  0  0  0  0  0  0
  154.3767  140.5377  182.5369 C   0  0  0  0  0  0  0  0  0  0  0  0
  153.2104  140.7870  181.8546 C   0  0  0  0  0  0  0  0  0  0  0  0
  152.3077  139.3779  182.2009 S   0  0  0  0  0  0  0  0  0  0  0  0
  155.4974  141.5197  182.5306 C   0  0  0  0  0  0  0  0  0  0  0  0
  155.2795  142.8811  182.4441 C   0  0  0  0  0  0  0  0  0  0  0  0
  156.3182  143.7926  182.4424 C   0  0  0  0  0  0  0  0  0  0  0  0
  157.6104  143.3322  182.5294 C   0  0  0  0  0  0  0  0  0  0  0  0
  158.6597  144.1964  182.5307 F   0  0  0  0  0  0  0  0  0  0  0  0
  157.8632  141.9804  182.6171 C   0  0  0  0  0  0  0  0  0  0  0  0
  156.7926  141.1052  182.6152 C   0  0  0  0  0  0  0  0  0  0  0  0
  159.1656  141.5562  182.7034 O   0  0  0  0  0  0  0  0  0  0  0  0
  159.7645  140.9779  183.8379 C   0  0  0  0  0  0  0  0  0  0  0  0
  161.0983  141.2168  183.9655 F   0  0  0  0  0  0  0  0  0  0  0  0
  159.1672  141.4594  185.0116 F   0  0  0  0  0  0  0  0  0  0  0  0
  159.5632  139.5985  183.8833 F   0  0  0  0  0  0  0  0  0  0  0  0
  153.2733  138.2879  186.1581 C   0  0  0  0  0  0  0  0  0  0  0  0
  156.5284  136.8074  191.1162 C   0  0  0  0  0  0  0  0  0  0  0  0
  155.2557  136.8880  190.4022 N   0  0  0  0  0  0  0  0  0  0  0  0
  155.1798  137.3819  189.1627 C   0  0  0  0  0  0  0  0  0  0  0  0
  156.1062  137.8588  188.3720 O   0  0  0  0  0  0  0  0  0  0  0  0
  155.6072  138.2445  187.2249 C   0  0  0  0  0  0  0  0  0  0  0  0
  156.4935  138.9366  185.8906 Cl  0  0  0  0  0  0  0  0  0  0  0  0
  154.2357  138.0023  187.2591 C   0  0  0  0  0  0  0  0  0  0  0  0
  153.9674  137.4561  188.4868 C   0  0  0  0  0  0  0  0  0  0  0  0
  152.8403  137.0042  189.1333 C   0  0  0  0  0  0  0  0  0  0  0  0
  151.7367  137.0653  188.5328 O   0  0  0  0  0  0  0  0  0  0  0  0
  152.9450  136.5102  190.3849 N   0  0  0  0  0  0  0  0  0  0  0  0
  151.7267  136.0486  191.0193 C   0  0  0  0  0  0  0  0  0  0  0  0
  154.1348  136.4549  191.0052 C   0  0  0  0  0  0  0  0  0  0  0  0
  154.2191  135.9867  192.1852 O   0  0  0  0  0  0  0  0  0  0  0  0
 23 24  1  0  0  0
 24 25  1  0  0  0
 25 26  1  0  0  0
 26 27  1  0  0  0
 27 28  1  0  0  0
 27 29  2  0  0  0
 29 22  1  0  0  0
 22  1  1  0  0  0
  1  2  2  0  0  0
  1  3  1  0  0  0
  3  5  1  0  0  0
  5  6  2  0  0  0
  6  7  1  0  0  0
  7  8  2  0  0  0
  8  9  1  0  0  0
  7 10  1  0  0  0
 10 11  2  0  0  0
 11 12  1  0  0  0
 12 13  2  0  0  0
 13 14  1  0  0  0
 13 15  1  0  0  0
 15 17  1  0  0  0
 17 18  1  0  0  0
 18 19  1  0  0  0
 18 20  1  0  0  0
 18 21  1  0  0  0
 15 16  2  0  0  0
 29 30  1  0  0  0
 30 31  1  0  0  0
 31 32  2  0  0  0
 31 33  1  0  0  0
 33 34  1  0  0  0
 33 35  1  0  0  0
 35 36  2  0  0  0
 35 24  1  0  0  0
 30 25  2  0  0  0
  9  5  1  0  0  0
 16 10  1  0  0  0
  3  4  1  0  0  0
M  END
> <minimizedAffinity>
-8.51550

> <CNNscore>
0.2631070316

> <CNNaffinity>
6.4721107483

> <CNN_VS>
1.7028578520

> <CNNaffinity_variance>
0.2585067153

$$$$
[H]c1sc(N([H])C(=O)C([H])([H])c2c(Cl)oc3c2c(=O)n(C([H])([H])[H])c(=O)n3C([H])([H])[H])nc1-c1c([H])c([H])c(F)c(OC(F)(F)F)c1[H]


 36 39  0  0  0  0  0  0  0  0999 V2000
  153.6502  139.9231  182.7527 C   0  0  0  0  0  0  0  0  0  0  0  0
  153.7676  140.3038  181.5493 O   0  0  0  0  0  0  0  0  0  0  0  0
  153.2394  138.6011  182.9651 N   0  0  0  0  0  0  0  0  0  0  0  0
  153.0444  137.9720  182.1443 H   0  0  0  0  0  0  0  0  0  0  0  0
  153.0550  138.0328  184.2648 C   0  0  0  0  0  0  0  0  0  0  0  0
  153.8033  138.1961  185.3448 N   0  0  0  0  0  0  0  0  0  0  0  0
  153.4763  137.5940  186.4429 C   0  0  0  0  0  0  0  0  0  0  0  0
  152.3517  136.8047  186.4270 C   0  0  0  0  0  0  0  0  0  0  0  0
  151.8335  136.9861  184.8087 S   0  0  0  0  0  0  0  0  0  0  0  0
  154.2922  137.7471  187.6803 C   0  0  0  0  0  0  0  0  0  0  0  0
  155.6667  137.8808  187.6409 C   0  0  0  0  0  0  0  0  0  0  0  0
  156.4236  138.0269  188.7878 C   0  0  0  0  0  0  0  0  0  0  0  0
  155.7910  138.0398  190.0080 C   0  0  0  0  0  0  0  0  0  0  0  0
  156.4998  138.1812  191.1593 F   0  0  0  0  0  0  0  0  0  0  0  0
  154.4212  137.9088  190.0832 C   0  0  0  0  0  0  0  0  0  0  0  0
  153.7045  137.7649  188.9094 C   0  0  0  0  0  0  0  0  0  0  0  0
  153.8228  137.9268  191.3182 O   0  0  0  0  0  0  0  0  0  0  0  0
  153.3787  136.7964  192.0289 C   0  0  0  0  0  0  0  0  0  0  0  0
  154.3673  135.9648  192.4572 F   0  0  0  0  0  0  0  0  0  0  0  0
  152.6676  137.1809  193.1747 F   0  0  0  0  0  0  0  0  0  0  0  0
  152.4676  136.0438  191.2880 F   0  0  0  0  0  0  0  0  0  0  0  0
  153.9454  140.8725  183.8510 C   0  0  0  0  0  0  0  0  0  0  0  0
  158.9115  144.0715  182.2779 C   0  0  0  0  0  0  0  0  0  0  0  0
  158.2879  142.8564  182.7983 N   0  0  0  0  0  0  0  0  0  0  0  0
  156.9617  142.7501  182.9235 C   0  0  0  0  0  0  0  0  0  0  0  0
  156.0042  143.5974  182.6480 O   0  0  0  0  0  0  0  0  0  0  0  0
  154.8258  143.0962  182.9200 C   0  0  0  0  0  0  0  0  0  0  0  0
  153.2875  143.8904  182.7016 Cl  0  0  0  0  0  0  0  0  0  0  0  0
  155.0197  141.8093  183.4171 C   0  0  0  0  0  0  0  0  0  0  0  0
  156.3726  141.5922  183.4183 C   0  0  0  0  0  0  0  0  0  0  0  0
  157.1980  140.5521  183.7780 C   0  0  0  0  0  0  0  0  0  0  0  0
  156.6779  139.4985  184.2268 O   0  0  0  0  0  0  0  0  0  0  0  0
  158.5340  140.6859  183.6413 N   0  0  0  0  0  0  0  0  0  0  0  0
  159.3567  139.5600  184.0356 C   0  0  0  0  0  0  0  0  0  0  0  0
  159.0658  141.8209  183.1591 C   0  0  0  0  0  0  0  0  0  0  0  0
  160.3271  141.9335  183.0355 O   0  0  0  0  0  0  0  0  0  0  0  0
 23 24  1  0  0  0
 24 25  1  0  0  0
 25 26  1  0  0  0
 26 27  1  0  0  0
 27 28  1  0  0  0
 27 29  2  0  0  0
 29 22  1  0  0  0
 22  1  1  0  0  0
  1  2  2  0  0  0
  1  3  1  0  0  0
  3  5  1  0  0  0
  5  6  2  0  0  0
  6  7  1  0  0  0
  7  8  2  0  0  0
  8  9  1  0  0  0
  7 10  1  0  0  0
 10 11  2  0  0  0
 11 12  1  0  0  0
 12 13  2  0  0  0
 13 14  1  0  0  0
 13 15  1  0  0  0
 15 17  1  0  0  0
 17 18  1  0  0  0
 18 19  1  0  0  0
 18 20  1  0  0  0
 18 21  1  0  0  0
 15 16  2  0  0  0
 29 30  1  0  0  0
 30 31  1  0  0  0
 31 32  2  0  0  0
 31 33  1  0  0  0
 33 34  1  0  0  0
 33 35  1  0  0  0
 35 36  2  0  0  0
 35 24  1  0  0  0
 30 25  2  0  0  0
  9  5  1  0  0  0
 16 10  1  0  0  0
  3  4  1  0  0  0
M  END
> <minimizedAffinity>
-9.08904

> <CNNscore>
0.2526370883

> <CNNaffinity>
6.5050325394

> <CNN_VS>
1.6434124708

> <CNNaffinity_variance>
0.2961130142

$$$$
[H]c1nc(C(F)(F)F)nc([H])c1-c1nc(N([H])C(=O)[C@@]([H])(n2c([H])nc3c2c(=O)n(C([H])([H])C(=O)C([H])([H])[H])c(=O)n3C([H])([H])[H])C([H])([H])[H])c([H])s1


 37 40  0  0  0  0  0  0  0  0999 V2000
  156.3603  140.5515  183.0152 C   0  0  0  0  0  0  0  0  0  0  0  0
  155.6770  141.4991  183.3696 O   0  0  0  0  0  0  0  0  0  0  0  0
  156.2715  139.2411  183.5657 N   0  0  0  0  0  0  0  0  0  0  0  0
  156.8756  138.4768  183.2151 H   0  0  0  0  0  0  0  0  0  0  0  0
  155.3206  138.9546  184.6480 C   0  0  0  0  0  0  0  0  0  0  0  0
  153.9832  139.2211  184.5763 C   0  0  0  0  0  0  0  0  0  0  0  0
  153.3935  138.6911  186.1074 S   0  0  0  0  0  0  0  0  0  0  0  0
  154.9466  138.1635  186.7503 C   0  0  0  0  0  0  0  0  0  0  0  0
  155.7322  138.4285  185.7542 N   0  0  0  0  0  0  0  0  0  0  0  0
  155.1425  137.5524  188.0739 C   0  0  0  0  0  0  0  0  0  0  0  0
  154.0923  137.4815  188.9585 C   0  0  0  0  0  0  0  0  0  0  0  0
  154.3082  136.9101  190.1846 N   0  0  0  0  0  0  0  0  0  0  0  0
  155.5140  136.4068  190.5754 C   0  0  0  0  0  0  0  0  0  0  0  0
  156.4977  136.4984  189.6953 N   0  0  0  0  0  0  0  0  0  0  0  0
  156.3580  137.0601  188.4275 C   0  0  0  0  0  0  0  0  0  0  0  0
  155.6765  135.8094  191.9269 C   0  0  0  0  0  0  0  0  0  0  0  0
  156.7531  136.4307  192.5373 F   0  0  0  0  0  0  0  0  0  0  0  0
  156.0107  134.4787  191.7696 F   0  0  0  0  0  0  0  0  0  0  0  0
  154.5172  135.9267  192.6879 F   0  0  0  0  0  0  0  0  0  0  0  0
  158.5523  139.8692  182.1470 C   0  0  0  0  0  0  0  0  0  0  0  0
  157.3675  140.7857  181.9191 C   0  0  0  0  0  0  0  0  0  0  0  0
  157.8285  142.1515  181.9772 N   0  0  0  0  0  0  0  0  0  0  0  0
  157.6102  143.1199  181.0885 C   0  0  0  0  0  0  0  0  0  0  0  0
  158.3175  144.2144  181.3656 N   0  0  0  0  0  0  0  0  0  0  0  0
  159.0130  143.9095  182.5160 C   0  0  0  0  0  0  0  0  0  0  0  0
  159.8265  144.6908  183.2354 N   0  0  0  0  0  0  0  0  0  0  0  0
  160.1256  146.0328  182.8154 C   0  0  0  0  0  0  0  0  0  0  0  0
  160.3408  144.1688  184.3741 C   0  0  0  0  0  0  0  0  0  0  0  0
  161.1026  144.8293  185.1030 O   0  0  0  0  0  0  0  0  0  0  0  0
  160.0641  142.8922  184.8075 N   0  0  0  0  0  0  0  0  0  0  0  0
  159.2542  142.1231  184.0750 C   0  0  0  0  0  0  0  0  0  0  0  0
  158.9467  140.9632  184.4002 O   0  0  0  0  0  0  0  0  0  0  0  0
  158.6971  142.6393  182.8845 C   0  0  0  0  0  0  0  0  0  0  0  0
  160.7066  142.4410  186.0576 C   0  0  0  0  0  0  0  0  0  0  0  0
  162.1070  142.3787  186.0633 C   0  0  0  0  0  0  0  0  0  0  0  0
  163.1782  142.6554  187.0855 C   0  0  0  0  0  0  0  0  0  0  0  0
  162.7767  142.0029  184.9646 O   0  0  0  0  0  0  0  0  0  0  0  0
 20 21  1  0  0  0
 21  1  1  0  0  0
  1  2  2  0  0  0
  1  3  1  0  0  0
  3  5  1  0  0  0
  5  6  2  0  0  0
  6  7  1  0  0  0
  7  8  1  0  0  0
  8  9  2  0  0  0
  8 10  1  0  0  0
 10 11  2  0  0  0
 11 12  1  0  0  0
 12 13  2  0  0  0
 13 14  1  0  0  0
 14 15  2  0  0  0
 13 16  1  0  0  0
 16 17  1  0  0  0
 16 18  1  0  0  0
 16 19  1  0  0  0
 21 22  1  0  0  0
 22 23  1  0  0  0
 23 24  2  0  0  0
 24 25  1  0  0  0
 25 26  1  0  0  0
 26 27  1  0  0  0
 26 28  1  0  0  0
 28 29  2  0  0  0
 28 30  1  0  0  0
 30 34  1  0  0  0
 34 35  1  0  0  0
 35 36  1  0  0  0
 35 37  2  0  0  0
 30 31  1  0  0  0
 31 32  2  0  0  0
 31 33  1  0  0  0
  9  5  1  0  0  0
 15 10  1  0  0  0
 33 22  1  0  0  0
 33 25  2  0  0  0
  3  4  1  0  0  0
M  END
> <minimizedAffinity>
-8.32427

> <CNNscore>
0.5245785713

> <CNNaffinity>
7.1106200218

> <CNN_VS>
3.7300789356

> <CNNaffinity_variance>
0.0519273579

$$$$
[H]c1nc(C(F)(F)F)nc([H])c1-c1nc(N([H])C(=O)[C@@]([H])(n2c([H])nc3c2c(=O)n(C([H])([H])C(=O)C([H])([H])[H])c(=O)n3C([H])([H])[H])C([H])([H])[H])c([H])s1


 37 40  0  0  0  0  0  0  0  0999 V2000
  153.1921  138.9381  182.9100 C   0  0  0  0  0  0  0  0  0  0  0  0
  153.4968  140.0802  183.2151 O   0  0  0  0  0  0  0  0  0  0  0  0
  153.4767  137.7879  183.7001 N   0  0  0  0  0  0  0  0  0  0  0  0
  153.1838  136.8450  183.3883 H   0  0  0  0  0  0  0  0  0  0  0  0
  154.1981  137.9225  184.9724 C   0  0  0  0  0  0  0  0  0  0  0  0
  155.4931  138.3443  185.0719 C   0  0  0  0  0  0  0  0  0  0  0  0
  155.7938  138.2958  186.7690 S   0  0  0  0  0  0  0  0  0  0  0  0
  154.1998  137.7113  187.2397 C   0  0  0  0  0  0  0  0  0  0  0  0
  153.6145  137.6260  186.0865 N   0  0  0  0  0  0  0  0  0  0  0  0
  153.7693  137.4738  188.6261 C   0  0  0  0  0  0  0  0  0  0  0  0
  152.6317  136.7429  188.8751 C   0  0  0  0  0  0  0  0  0  0  0  0
  152.2555  136.5430  190.1771 N   0  0  0  0  0  0  0  0  0  0  0  0
  152.9519  137.0327  191.2424 C   0  0  0  0  0  0  0  0  0  0  0  0
  154.0380  137.7329  190.9578 N   0  0  0  0  0  0  0  0  0  0  0  0
  154.4897  137.9764  189.6622 C   0  0  0  0  0  0  0  0  0  0  0  0
  152.4775  136.7836  192.6290 C   0  0  0  0  0  0  0  0  0  0  0  0
  153.3558  135.8930  193.2230 F   0  0  0  0  0  0  0  0  0  0  0  0
  151.2496  136.1557  192.5553 F   0  0  0  0  0  0  0  0  0  0  0  0
  152.3705  137.9633  193.3597 F   0  0  0  0  0  0  0  0  0  0  0  0
  152.2712  140.0800  180.9422 C   0  0  0  0  0  0  0  0  0  0  0  0
  152.4643  138.7321  181.6067 C   0  0  0  0  0  0  0  0  0  0  0  0
  151.1655  138.1618  181.8692 N   0  0  0  0  0  0  0  0  0  0  0  0
  150.0457  138.8083  182.1913 C   0  0  0  0  0  0  0  0  0  0  0  0
  149.0686  137.9677  182.5283 N   0  0  0  0  0  0  0  0  0  0  0  0
  149.6156  136.7097  182.3919 C   0  0  0  0  0  0  0  0  0  0  0  0
  149.0297  135.5186  182.5586 N   0  0  0  0  0  0  0  0  0  0  0  0
  147.6605  135.4210  182.9858 C   0  0  0  0  0  0  0  0  0  0  0  0
  149.7749  134.4189  182.2965 C   0  0  0  0  0  0  0  0  0  0  0  0
  149.3057  133.2735  182.4224 O   0  0  0  0  0  0  0  0  0  0  0  0
  151.0838  134.4808  181.8757 N   0  0  0  0  0  0  0  0  0  0  0  0
  151.6557  135.6776  181.7191 C   0  0  0  0  0  0  0  0  0  0  0  0
  152.8290  135.8211  181.3342 O   0  0  0  0  0  0  0  0  0  0  0  0
  150.9042  136.8446  181.9793 C   0  0  0  0  0  0  0  0  0  0  0  0
  151.7877  133.2042  181.6435 C   0  0  0  0  0  0  0  0  0  0  0  0
  152.0438  132.8555  180.3102 C   0  0  0  0  0  0  0  0  0  0  0  0
  153.2848  132.5594  179.5094 C   0  0  0  0  0  0  0  0  0  0  0  0
  151.0371  132.7252  179.4347 O   0  0  0  0  0  0  0  0  0  0  0  0
 20 21  1  0  0  0
 21  1  1  0  0  0
  1  2  2  0  0  0
  1  3  1  0  0  0
  3  5  1  0  0  0
  5  6  2  0  0  0
  6  7  1  0  0  0
  7  8  1  0  0  0
  8  9  2  0  0  0
  8 10  1  0  0  0
 10 11  2  0  0  0
 11 12  1  0  0  0
 12 13  2  0  0  0
 13 14  1  0  0  0
 14 15  2  0  0  0
 13 16  1  0  0  0
 16 17  1  0  0  0
 16 18  1  0  0  0
 16 19  1  0  0  0
 21 22  1  0  0  0
 22 23  1  0  0  0
 23 24  2  0  0  0
 24 25  1  0  0  0
 25 26  1  0  0  0
 26 27  1  0  0  0
 26 28  1  0  0  0
 28 29  2  0  0  0
 28 30  1  0  0  0
 30 34  1  0  0  0
 34 35  1  0  0  0
 35 36  1  0  0  0
 35 37  2  0  0  0
 30 31  1  0  0  0
 31 32  2  0  0  0
 31 33  1  0  0  0
  9  5  1  0  0  0
 15 10  1  0  0  0
 33 22  1  0  0  0
 33 25  2  0  0  0
  3  4  1  0  0  0
M  END
> <minimizedAffinity>
-5.38484

> <CNNscore>
0.4006356895

> <CNNaffinity>
5.9342141151

> <CNN_VS>
2.3774578571

> <CNNaffinity_variance>
0.2287938297

$$$$
[H]c1nc(C(F)(F)F)nc([H])c1-c1nc(N([H])C(=O)[C@@]([H])(n2c([H])nc3c2c(=O)n(C([H])([H])C(=O)C([H])([H])[H])c(=O)n3C([H])([H])[H])C([H])([H])[H])c([H])s1


 37 40  0  0  0  0  0  0  0  0999 V2000
  154.4527  137.3079  188.6344 C   0  0  0  0  0  0  0  0  0  0  0  0
  155.3131  137.9655  188.0709 O   0  0  0  0  0  0  0  0  0  0  0  0
  153.5541  136.4204  187.9763 N   0  0  0  0  0  0  0  0  0  0  0  0
  152.8501  135.8841  188.5137 H   0  0  0  0  0  0  0  0  0  0  0  0
  153.6095  136.2564  186.5177 C   0  0  0  0  0  0  0  0  0  0  0  0
  154.3851  135.3272  185.8854 C   0  0  0  0  0  0  0  0  0  0  0  0
  154.0512  135.6052  184.2168 S   0  0  0  0  0  0  0  0  0  0  0  0
  152.9212  136.9356  184.4561 C   0  0  0  0  0  0  0  0  0  0  0  0
  152.9067  137.0214  185.7491 N   0  0  0  0  0  0  0  0  0  0  0  0
  152.2141  137.6399  183.3755 C   0  0  0  0  0  0  0  0  0  0  0  0
  150.9523  137.2380  183.0059 C   0  0  0  0  0  0  0  0  0  0  0  0
  150.3222  137.9120  181.9933 N   0  0  0  0  0  0  0  0  0  0  0  0
  150.8828  138.9637  181.3302 C   0  0  0  0  0  0  0  0  0  0  0  0
  152.0988  139.3153  181.7153 N   0  0  0  0  0  0  0  0  0  0  0  0
  152.8040  138.6847  182.7386 C   0  0  0  0  0  0  0  0  0  0  0  0
  150.1423  139.6414  180.2337 C   0  0  0  0  0  0  0  0  0  0  0  0
  150.8189  140.8096  179.9256 F   0  0  0  0  0  0  0  0  0  0  0  0
  148.9008  140.0058  180.7166 F   0  0  0  0  0  0  0  0  0  0  0  0
  150.0019  138.8203  179.1188 F   0  0  0  0  0  0  0  0  0  0  0  0
  155.4361  138.3621  190.6208 C   0  0  0  0  0  0  0  0  0  0  0  0
  154.3340  137.4453  190.1303 C   0  0  0  0  0  0  0  0  0  0  0  0
  154.5086  136.1517  190.7446 N   0  0  0  0  0  0  0  0  0  0  0  0
  155.6203  135.4185  190.7898 C   0  0  0  0  0  0  0  0  0  0  0  0
  155.3920  134.2039  191.2876 N   0  0  0  0  0  0  0  0  0  0  0  0
  154.0464  134.1866  191.5862 C   0  0  0  0  0  0  0  0  0  0  0  0
  153.3276  133.2144  192.1592 N   0  0  0  0  0  0  0  0  0  0  0  0
  153.9294  131.9557  192.5058 C   0  0  0  0  0  0  0  0  0  0  0  0
  152.0218  133.4727  192.4073 C   0  0  0  0  0  0  0  0  0  0  0  0
  151.2840  132.6249  192.9408 O   0  0  0  0  0  0  0  0  0  0  0  0
  151.4206  134.6713  192.0972 N   0  0  0  0  0  0  0  0  0  0  0  0
  152.1508  135.6297  191.5208 C   0  0  0  0  0  0  0  0  0  0  0  0
  151.6873  136.7426  191.2174 O   0  0  0  0  0  0  0  0  0  0  0  0
  153.5172  135.3940  191.2531 C   0  0  0  0  0  0  0  0  0  0  0  0
  149.9839  134.8144  192.4044 C   0  0  0  0  0  0  0  0  0  0  0  0
  149.0810  134.4373  191.4006 C   0  0  0  0  0  0  0  0  0  0  0  0
  148.1729  133.2562  191.1780 C   0  0  0  0  0  0  0  0  0  0  0  0
  148.8880  135.2192  190.3291 O   0  0  0  0  0  0  0  0  0  0  0  0
 20 21  1  0  0  0
 21  1  1  0  0  0
  1  2  2  0  0  0
  1  3  1  0  0  0
  3  5  1  0  0  0
  5  6  2  0  0  0
  6  7  1  0  0  0
  7  8  1  0  0  0
  8  9  2  0  0  0
  8 10  1  0  0  0
 10 11  2  0  0  0
 11 12  1  0  0  0
 12 13  2  0  0  0
 13 14  1  0  0  0
 14 15  2  0  0  0
 13 16  1  0  0  0
 16 17  1  0  0  0
 16 18  1  0  0  0
 16 19  1  0  0  0
 21 22  1  0  0  0
 22 23  1  0  0  0
 23 24  2  0  0  0
 24 25  1  0  0  0
 25 26  1  0  0  0
 26 27  1  0  0  0
 26 28  1  0  0  0
 28 29  2  0  0  0
 28 30  1  0  0  0
 30 34  1  0  0  0
 34 35  1  0  0  0
 35 36  1  0  0  0
 35 37  2  0  0  0
 30 31  1  0  0  0
 31 32  2  0  0  0
 31 33  1  0  0  0
  9  5  1  0  0  0
 15 10  1  0  0  0
 33 22  1  0  0  0
 33 25  2  0  0  0
  3  4  1  0  0  0
M  END
> <minimizedAffinity>
-5.72123

> <CNNscore>
0.3270946145

> <CNNaffinity>
5.7328267097

> <CNN_VS>
1.8751767874

> <CNNaffinity_variance>
0.1950967014

$$$$
[H]c1nc(C(F)(F)F)nc([H])c1-c1nc(N([H])C(=O)[C@@]([H])(n2c([H])nc3c2c(=O)n(C([H])([H])C(=O)C([H])([H])[H])c(=O)n3C([H])([H])[H])C([H])([H])[H])c([H])s1


 37 40  0  0  0  0  0  0  0  0999 V2000
  155.3922  135.4837  187.8556 C   0  0  0  0  0  0  0  0  0  0  0  0
  156.1441  135.0390  187.0028 O   0  0  0  0  0  0  0  0  0  0  0  0
  154.7284  136.7409  187.7707 N   0  0  0  0  0  0  0  0  0  0  0  0
  154.0956  137.0582  188.5264 H   0  0  0  0  0  0  0  0  0  0  0  0
  154.9371  137.6123  186.6069 C   0  0  0  0  0  0  0  0  0  0  0  0
  156.0506  138.3808  186.4217 C   0  0  0  0  0  0  0  0  0  0  0  0
  155.7369  139.1738  184.9232 S   0  0  0  0  0  0  0  0  0  0  0  0
  154.1541  138.4533  184.6410 C   0  0  0  0  0  0  0  0  0  0  0  0
  154.0356  137.6944  185.6848 N   0  0  0  0  0  0  0  0  0  0  0  0
  153.3177  138.7036  183.4571 C   0  0  0  0  0  0  0  0  0  0  0  0
  153.6367  139.7272  182.5963 C   0  0  0  0  0  0  0  0  0  0  0  0
  152.8354  139.9368  181.5051 N   0  0  0  0  0  0  0  0  0  0  0  0
  151.7344  139.1817  181.2272 C   0  0  0  0  0  0  0  0  0  0  0  0
  151.4620  138.2098  182.0828 N   0  0  0  0  0  0  0  0  0  0  0  0
  152.2290  137.9292  183.2119 C   0  0  0  0  0  0  0  0  0  0  0  0
  150.9056  139.4743  180.0283 C   0  0  0  0  0  0  0  0  0  0  0  0
  149.8317  140.2481  180.4351 F   0  0  0  0  0  0  0  0  0  0  0  0
  150.3925  138.2805  179.5606 F   0  0  0  0  0  0  0  0  0  0  0  0
  151.6430  140.1040  179.0300 F   0  0  0  0  0  0  0  0  0  0  0  0
  156.2596  133.6173  189.1928 C   0  0  0  0  0  0  0  0  0  0  0  0
  155.1503  134.6435  189.0829 C   0  0  0  0  0  0  0  0  0  0  0  0
  153.8949  133.9463  188.9451 N   0  0  0  0  0  0  0  0  0  0  0  0
  153.6348  132.8871  188.1796 C   0  0  0  0  0  0  0  0  0  0  0  0
  152.3346  132.5972  188.1611 N   0  0  0  0  0  0  0  0  0  0  0  0
  151.7473  133.5335  188.9850 C   0  0  0  0  0  0  0  0  0  0  0  0
  150.4638  133.6451  189.3453 N   0  0  0  0  0  0  0  0  0  0  0  0
  149.4679  132.7503  188.8216 C   0  0  0  0  0  0  0  0  0  0  0  0
  150.1502  134.6229  190.2281 C   0  0  0  0  0  0  0  0  0  0  0  0
  148.9811  134.7927  190.6181 O   0  0  0  0  0  0  0  0  0  0  0  0
  151.0828  135.4870  190.7550 N   0  0  0  0  0  0  0  0  0  0  0  0
  152.3593  135.3656  190.3810 C   0  0  0  0  0  0  0  0  0  0  0  0
  153.2639  136.0989  190.8162 O   0  0  0  0  0  0  0  0  0  0  0  0
  152.7204  134.3528  189.4656 C   0  0  0  0  0  0  0  0  0  0  0  0
  150.6030  136.5203  191.6936 C   0  0  0  0  0  0  0  0  0  0  0  0
  150.7003  136.2281  193.0611 C   0  0  0  0  0  0  0  0  0  0  0  0
  151.8168  136.2374  194.0723 C   0  0  0  0  0  0  0  0  0  0  0  0
  149.6218  135.8320  193.7516 O   0  0  0  0  0  0  0  0  0  0  0  0
 20 21  1  0  0  0
 21  1  1  0  0  0
  1  2  2  0  0  0
  1  3  1  0  0  0
  3  5  1  0  0  0
  5  6  2  0  0  0
  6  7  1  0  0  0
  7  8  1  0  0  0
  8  9  2  0  0  0
  8 10  1  0  0  0
 10 11  2  0  0  0
 11 12  1  0  0  0
 12 13  2  0  0  0
 13 14  1  0  0  0
 14 15  2  0  0  0
 13 16  1  0  0  0
 16 17  1  0  0  0
 16 18  1  0  0  0
 16 19  1  0  0  0
 21 22  1  0  0  0
 22 23  1  0  0  0
 23 24  2  0  0  0
 24 25  1  0  0  0
 25 26  1  0  0  0
 26 27  1  0  0  0
 26 28  1  0  0  0
 28 29  2  0  0  0
 28 30  1  0  0  0
 30 34  1  0  0  0
 34 35  1  0  0  0
 35 36  1  0  0  0
 35 37  2  0  0  0
 30 31  1  0  0  0
 31 32  2  0  0  0
 31 33  1  0  0  0
  9  5  1  0  0  0
 15 10  1  0  0  0
 33 22  1  0  0  0
 33 25  2  0  0  0
  3  4  1  0  0  0
M  END
> <minimizedAffinity>
-5.92818

> <CNNscore>
0.3131953776

> <CNNaffinity>
5.9140744209

> <CNN_VS>
1.8522608280

> <CNNaffinity_variance>
0.1730696708

$$$$
[H]c1nc(C(F)(F)F)nc([H])c1-c1nc(N([H])C(=O)[C@@]([H])(n2c([H])nc3c2c(=O)n(C([H])([H])C(=O)C([H])([H])[H])c(=O)n3C([H])([H])[H])C([H])([H])[H])c([H])s1


 37 40  0  0  0  0  0  0  0  0999 V2000
  152.7578  139.1894  182.0957 C   0  0  0  0  0  0  0  0  0  0  0  0
  152.8097  140.3777  182.3707 O   0  0  0  0  0  0  0  0  0  0  0  0
  153.5231  138.1768  182.7417 N   0  0  0  0  0  0  0  0  0  0  0  0
  153.4273  137.1833  182.4664 H   0  0  0  0  0  0  0  0  0  0  0  0
  154.4681  138.5296  183.8094 C   0  0  0  0  0  0  0  0  0  0  0  0
  155.4823  139.4318  183.6604 C   0  0  0  0  0  0  0  0  0  0  0  0
  156.2437  139.4274  185.2074 S   0  0  0  0  0  0  0  0  0  0  0  0
  155.1866  138.2289  185.9491 C   0  0  0  0  0  0  0  0  0  0  0  0
  154.3770  137.9704  184.9707 N   0  0  0  0  0  0  0  0  0  0  0  0
  155.2853  137.7722  187.3439 C   0  0  0  0  0  0  0  0  0  0  0  0
  154.4627  138.3147  188.3028 C   0  0  0  0  0  0  0  0  0  0  0  0
  154.5822  137.8709  189.5933 N   0  0  0  0  0  0  0  0  0  0  0  0
  155.4774  136.9167  189.9781 C   0  0  0  0  0  0  0  0  0  0  0  0
  156.2514  136.4241  189.0248 N   0  0  0  0  0  0  0  0  0  0  0  0
  156.1885  136.8183  187.6896 C   0  0  0  0  0  0  0  0  0  0  0  0
  155.5572  136.4912  191.4003 C   0  0  0  0  0  0  0  0  0  0  0  0
  156.5414  137.2479  192.0135 F   0  0  0  0  0  0  0  0  0  0  0  0
  155.9772  135.1760  191.4309 F   0  0  0  0  0  0  0  0  0  0  0  0
  154.3325  136.6194  192.0488 F   0  0  0  0  0  0  0  0  0  0  0  0
  151.7450  139.8761  179.9680 C   0  0  0  0  0  0  0  0  0  0  0  0
  151.8186  138.7655  180.9962 C   0  0  0  0  0  0  0  0  0  0  0  0
  150.5000  138.5632  181.5453 N   0  0  0  0  0  0  0  0  0  0  0  0
  149.5248  139.4630  181.6664 C   0  0  0  0  0  0  0  0  0  0  0  0
  148.4965  138.9869  182.3671 N   0  0  0  0  0  0  0  0  0  0  0  0
  148.8518  137.6951  182.6915 C   0  0  0  0  0  0  0  0  0  0  0  0
  148.1405  136.7694  183.3449 N   0  0  0  0  0  0  0  0  0  0  0  0
  146.8357  137.0715  183.8673 C   0  0  0  0  0  0  0  0  0  0  0  0
  148.6956  135.5416  183.4793 C   0  0  0  0  0  0  0  0  0  0  0  0
  148.0999  134.6227  184.0696 O   0  0  0  0  0  0  0  0  0  0  0  0
  149.9373  135.2195  182.9806 N   0  0  0  0  0  0  0  0  0  0  0  0
  150.6368  136.1567  182.3353 C   0  0  0  0  0  0  0  0  0  0  0  0
  151.7604  135.9454  181.8472 O   0  0  0  0  0  0  0  0  0  0  0  0
  150.0841  137.4461  182.1736 C   0  0  0  0  0  0  0  0  0  0  0  0
  150.4323  133.8485  183.2138 C   0  0  0  0  0  0  0  0  0  0  0  0
  151.2410  133.6504  184.3414 C   0  0  0  0  0  0  0  0  0  0  0  0
  152.6283  134.0795  184.7421 C   0  0  0  0  0  0  0  0  0  0  0  0
  150.7989  132.9243  185.3778 O   0  0  0  0  0  0  0  0  0  0  0  0
 20 21  1  0  0  0
 21  1  1  0  0  0
  1  2  2  0  0  0
  1  3  1  0  0  0
  3  5  1  0  0  0
  5  6  2  0  0  0
  6  7  1  0  0  0
  7  8  1  0  0  0
  8  9  2  0  0  0
  8 10  1  0  0  0
 10 11  2  0  0  0
 11 12  1  0  0  0
 12 13  2  0  0  0
 13 14  1  0  0  0
 14 15  2  0  0  0
 13 16  1  0  0  0
 16 17  1  0  0  0
 16 18  1  0  0  0
 16 19  1  0  0  0
 21 22  1  0  0  0
 22 23  1  0  0  0
 23 24  2  0  0  0
 24 25  1  0  0  0
 25 26  1  0  0  0
 26 27  1  0  0  0
 26 28  1  0  0  0
 28 29  2  0  0  0
 28 30  1  0  0  0
 30 34  1  0  0  0
 34 35  1  0  0  0
 35 36  1  0  0  0
 35 37  2  0  0  0
 30 31  1  0  0  0
 31 32  2  0  0  0
 31 33  1  0  0  0
  9  5  1  0  0  0
 15 10  1  0  0  0
 33 22  1  0  0  0
 33 25  2  0  0  0
  3  4  1  0  0  0
M  END
> <minimizedAffinity>
-5.16685

> <CNNscore>
0.2804581523

> <CNNaffinity>
5.9813957214

> <CNN_VS>
1.6775312424

> <CNNaffinity_variance>
0.1121071577

$$$$
[H]c1nc(C(F)(F)F)nc([H])c1-c1nc(N([H])C(=O)[C@@]([H])(n2c([H])nc3c2c(=O)n(C([H])([H])C(=O)C([H])([H])[H])c(=O)n3C([H])([H])[H])C([H])([H])[H])c([H])s1


 37 40  0  0  0  0  0  0  0  0999 V2000
  152.5492  138.5715  182.1324 C   0  0  0  0  0  0  0  0  0  0  0  0
  152.4505  139.0705  181.0226 O   0  0  0  0  0  0  0  0  0  0  0  0
  153.3995  139.0604  183.1650 N   0  0  0  0  0  0  0  0  0  0  0  0
  153.4319  138.5954  184.0895 H   0  0  0  0  0  0  0  0  0  0  0  0
  154.2511  140.2340  182.9305 C   0  0  0  0  0  0  0  0  0  0  0  0
  153.8827  141.2997  182.1602 C   0  0  0  0  0  0  0  0  0  0  0  0
  155.2554  142.3396  182.2443 S   0  0  0  0  0  0  0  0  0  0  0  0
  156.2328  141.3003  183.2780 C   0  0  0  0  0  0  0  0  0  0  0  0
  155.4294  140.2993  183.4568 N   0  0  0  0  0  0  0  0  0  0  0  0
  157.5773  141.6347  183.7724 C   0  0  0  0  0  0  0  0  0  0  0  0
  158.4124  142.4180  183.0112 C   0  0  0  0  0  0  0  0  0  0  0  0
  159.6597  142.7080  183.4979 N   0  0  0  0  0  0  0  0  0  0  0  0
  160.1181  142.2589  184.7012 C   0  0  0  0  0  0  0  0  0  0  0  0
  159.2837  141.5060  185.3996 N   0  0  0  0  0  0  0  0  0  0  0  0
  157.9988  141.1702  184.9772 C   0  0  0  0  0  0  0  0  0  0  0  0
  161.4885  142.6064  185.1606 C   0  0  0  0  0  0  0  0  0  0  0  0
  161.5703  142.3089  186.5105 F   0  0  0  0  0  0  0  0  0  0  0  0
  161.6488  143.9723  185.0349 F   0  0  0  0  0  0  0  0  0  0  0  0
  162.4653  141.9388  184.4278 F   0  0  0  0  0  0  0  0  0  0  0  0
  150.3231  137.8065  182.8275 C   0  0  0  0  0  0  0  0  0  0  0  0
  151.7130  137.3535  182.4293 C   0  0  0  0  0  0  0  0  0  0  0  0
  152.2935  136.6334  183.5364 N   0  0  0  0  0  0  0  0  0  0  0  0
  152.2488  136.9577  184.8280 C   0  0  0  0  0  0  0  0  0  0  0  0
  153.0280  136.1664  185.5640 N   0  0  0  0  0  0  0  0  0  0  0  0
  153.5847  135.2786  184.6684 C   0  0  0  0  0  0  0  0  0  0  0  0
  154.3996  134.2454  184.9094 N   0  0  0  0  0  0  0  0  0  0  0  0
  154.8606  133.9618  186.2412 C   0  0  0  0  0  0  0  0  0  0  0  0
  154.7572  133.4780  183.8526 C   0  0  0  0  0  0  0  0  0  0  0  0
  155.5086  132.4960  183.9901 O   0  0  0  0  0  0  0  0  0  0  0  0
  154.3233  133.7178  182.5687 N   0  0  0  0  0  0  0  0  0  0  0  0
  153.5142  134.7565  182.3441 C   0  0  0  0  0  0  0  0  0  0  0  0
  153.0706  135.0366  181.2171 O   0  0  0  0  0  0  0  0  0  0  0  0
  153.1184  135.5737  183.4256 C   0  0  0  0  0  0  0  0  0  0  0  0
  154.8045  132.8142  181.5052 C   0  0  0  0  0  0  0  0  0  0  0  0
  155.9233  133.2363  180.7737 C   0  0  0  0  0  0  0  0  0  0  0  0
  157.3813  132.8586  180.7505 C   0  0  0  0  0  0  0  0  0  0  0  0
  155.8083  134.1986  179.8476 O   0  0  0  0  0  0  0  0  0  0  0  0
 20 21  1  0  0  0
 21  1  1  0  0  0
  1  2  2  0  0  0
  1  3  1  0  0  0
  3  5  1  0  0  0
  5  6  2  0  0  0
  6  7  1  0  0  0
  7  8  1  0  0  0
  8  9  2  0  0  0
  8 10  1  0  0  0
 10 11  2  0  0  0
 11 12  1  0  0  0
 12 13  2  0  0  0
 13 14  1  0  0  0
 14 15  2  0  0  0
 13 16  1  0  0  0
 16 17  1  0  0  0
 16 18  1  0  0  0
 16 19  1  0  0  0
 21 22  1  0  0  0
 22 23  1  0  0  0
 23 24  2  0  0  0
 24 25  1  0  0  0
 25 26  1  0  0  0
 26 27  1  0  0  0
 26 28  1  0  0  0
 28 29  2  0  0  0
 28 30  1  0  0  0
 30 34  1  0  0  0
 34 35  1  0  0  0
 35 36  1  0  0  0
 35 37  2  0  0  0
 30 31  1  0  0  0
 31 32  2  0  0  0
 31 33  1  0  0  0
  9  5  1  0  0  0
 15 10  1  0  0  0
 33 22  1  0  0  0
 33 25  2  0  0  0
  3  4  1  0  0  0
M  END
> <minimizedAffinity>
-7.72295

> <CNNscore>
0.2659149766

> <CNNaffinity>
6.5126366615

> <CNN_VS>
1.7318075895

> <CNNaffinity_variance>
0.1726365387

$$$$
[H]c1nc(C(F)(F)F)nc([H])c1-c1nc(N([H])C(=O)[C@@]([H])(n2c([H])nc3c2c(=O)n(C([H])([H])C(=O)C([H])([H])[H])c(=O)n3C([H])([H])[H])C([H])([H])[H])c([H])s1


 37 40  0  0  0  0  0  0  0  0999 V2000
  154.9844  138.1170  188.7834 C   0  0  0  0  0  0  0  0  0  0  0  0
  153.8503  138.5561  188.6763 O   0  0  0  0  0  0  0  0  0  0  0  0
  155.8744  137.9042  187.6922 N   0  0  0  0  0  0  0  0  0  0  0  0
  156.8289  137.5354  187.8508 H   0  0  0  0  0  0  0  0  0  0  0  0
  155.4474  138.2010  186.3185 C   0  0  0  0  0  0  0  0  0  0  0  0
  154.2878  137.7384  185.7654 C   0  0  0  0  0  0  0  0  0  0  0  0
  154.3260  138.3887  184.1690 S   0  0  0  0  0  0  0  0  0  0  0  0
  155.8723  139.2184  184.3261 C   0  0  0  0  0  0  0  0  0  0  0  0
  156.1866  138.9310  185.5501 N   0  0  0  0  0  0  0  0  0  0  0  0
  156.4986  140.0314  183.2723 C   0  0  0  0  0  0  0  0  0  0  0  0
  155.7932  141.0557  182.6862 C   0  0  0  0  0  0  0  0  0  0  0  0
  156.4034  141.7916  181.7050 N   0  0  0  0  0  0  0  0  0  0  0  0
  157.6775  141.5605  181.2773 C   0  0  0  0  0  0  0  0  0  0  0  0
  158.3189  140.5638  181.8654 N   0  0  0  0  0  0  0  0  0  0  0  0
  157.7709  139.7725  182.8733 C   0  0  0  0  0  0  0  0  0  0  0  0
  158.2714  142.3948  180.1998 C   0  0  0  0  0  0  0  0  0  0  0  0
  157.6873  143.6486  180.2651 F   0  0  0  0  0  0  0  0  0  0  0  0
  157.9149  141.8429  178.9851 F   0  0  0  0  0  0  0  0  0  0  0  0
  159.6572  142.4680  180.3057 F   0  0  0  0  0  0  0  0  0  0  0  0
  156.9059  138.2579  190.3040 C   0  0  0  0  0  0  0  0  0  0  0  0
  155.4757  137.7769  190.1668 C   0  0  0  0  0  0  0  0  0  0  0  0
  155.4563  136.3451  190.3424 N   0  0  0  0  0  0  0  0  0  0  0  0
  156.1920  135.4389  189.6997 C   0  0  0  0  0  0  0  0  0  0  0  0
  155.8057  134.1960  189.9843 N   0  0  0  0  0  0  0  0  0  0  0  0
  154.7663  134.3399  190.8781 C   0  0  0  0  0  0  0  0  0  0  0  0
  154.0676  133.3905  191.5109 N   0  0  0  0  0  0  0  0  0  0  0  0
  154.3182  131.9971  191.2610 C   0  0  0  0  0  0  0  0  0  0  0  0
  153.1305  133.7983  192.3992 C   0  0  0  0  0  0  0  0  0  0  0  0
  152.4396  132.9805  193.0329 O   0  0  0  0  0  0  0  0  0  0  0  0
  152.8758  135.1239  192.6676 N   0  0  0  0  0  0  0  0  0  0  0  0
  153.5785  136.0596  192.0235 C   0  0  0  0  0  0  0  0  0  0  0  0
  153.4169  137.2773  192.2144 O   0  0  0  0  0  0  0  0  0  0  0  0
  154.5669  135.6675  191.0943 C   0  0  0  0  0  0  0  0  0  0  0  0
  151.8132  135.4309  193.6451 C   0  0  0  0  0  0  0  0  0  0  0  0
  150.5302  135.6681  193.1325 C   0  0  0  0  0  0  0  0  0  0  0  0
  149.9623  135.8987  191.7565 C   0  0  0  0  0  0  0  0  0  0  0  0
  149.4708  135.7332  193.9511 O   0  0  0  0  0  0  0  0  0  0  0  0
 20 21  1  0  0  0
 21  1  1  0  0  0
  1  2  2  0  0  0
  1  3  1  0  0  0
  3  5  1  0  0  0
  5  6  2  0  0  0
  6  7  1  0  0  0
  7  8  1  0  0  0
  8  9  2  0  0  0
  8 10  1  0  0  0
 10 11  2  0  0  0
 11 12  1  0  0  0
 12 13  2  0  0  0
 13 14  1  0  0  0
 14 15  2  0  0  0
 13 16  1  0  0  0
 16 17  1  0  0  0
 16 18  1  0  0  0
 16 19  1  0  0  0
 21 22  1  0  0  0
 22 23  1  0  0  0
 23 24  2  0  0  0
 24 25  1  0  0  0
 25 26  1  0  0  0
 26 27  1  0  0  0
 26 28  1  0  0  0
 28 29  2  0  0  0
 28 30  1  0  0  0
 30 34  1  0  0  0
 34 35  1  0  0  0
 35 36  1  0  0  0
 35 37  2  0  0  0
 30 31  1  0  0  0
 31 32  2  0  0  0
 31 33  1  0  0  0
  9  5  1  0  0  0
 15 10  1  0  0  0
 33 22  1  0  0  0
 33 25  2  0  0  0
  3  4  1  0  0  0
M  END
> <minimizedAffinity>
-8.00617

> <CNNscore>
0.2629603148

> <CNNaffinity>
6.0177187920

> <CNN_VS>
1.5824211836

> <CNNaffinity_variance>
0.0978080630

$$$$
[H]c1nc(C(F)(F)F)nc([H])c1-c1nc(N([H])C(=O)[C@@]([H])(n2c([H])nc3c2c(=O)n(C([H])([H])C(=O)C([H])([H])[H])c(=O)n3C([H])([H])[H])C([H])([H])[H])c([H])s1


 37 40  0  0  0  0  0  0  0  0999 V2000
  155.4699  136.4996  187.7779 C   0  0  0  0  0  0  0  0  0  0  0  0
  155.8953  135.7368  186.9249 O   0  0  0  0  0  0  0  0  0  0  0  0
  155.1107  137.8572  187.5406 N   0  0  0  0  0  0  0  0  0  0  0  0
  154.7479  138.4512  188.3072 H   0  0  0  0  0  0  0  0  0  0  0  0
  155.2557  138.4388  186.1997 C   0  0  0  0  0  0  0  0  0  0  0  0
  156.4267  138.9451  185.7124 C   0  0  0  0  0  0  0  0  0  0  0  0
  155.9961  139.4812  184.1312 S   0  0  0  0  0  0  0  0  0  0  0  0
  154.2988  139.0165  184.2159 C   0  0  0  0  0  0  0  0  0  0  0  0
  154.2391  138.5043  185.4048 N   0  0  0  0  0  0  0  0  0  0  0  0
  153.3283  139.1827  183.1230 C   0  0  0  0  0  0  0  0  0  0  0  0
  152.3788  138.2146  182.8960 C   0  0  0  0  0  0  0  0  0  0  0  0
  151.4921  138.3972  181.8680 N   0  0  0  0  0  0  0  0  0  0  0  0
  151.5020  139.4921  181.0549 C   0  0  0  0  0  0  0  0  0  0  0  0
  152.4338  140.3973  181.3061 N   0  0  0  0  0  0  0  0  0  0  0  0
  153.3680  140.2881  182.3345 C   0  0  0  0  0  0  0  0  0  0  0  0
  150.5136  139.6178  179.9517 C   0  0  0  0  0  0  0  0  0  0  0  0
  150.4189  138.3860  179.3263 F   0  0  0  0  0  0  0  0  0  0  0  0
  151.0183  140.5073  179.0237 F   0  0  0  0  0  0  0  0  0  0  0  0
  149.2756  140.0558  180.4128 F   0  0  0  0  0  0  0  0  0  0  0  0
  156.6927  135.7480  189.7688 C   0  0  0  0  0  0  0  0  0  0  0  0
  155.3144  135.9668  189.1788 C   0  0  0  0  0  0  0  0  0  0  0  0
  154.6296  134.6979  189.1345 N   0  0  0  0  0  0  0  0  0  0  0  0
  155.1667  133.4823  189.2312 C   0  0  0  0  0  0  0  0  0  0  0  0
  154.2733  132.5255  188.9838 N   0  0  0  0  0  0  0  0  0  0  0  0
  153.0945  133.1934  188.7300 C   0  0  0  0  0  0  0  0  0  0  0  0
  151.8818  132.6871  188.4790 N   0  0  0  0  0  0  0  0  0  0  0  0
  151.6771  131.2670  188.3894 C   0  0  0  0  0  0  0  0  0  0  0  0
  150.8624  133.5654  188.3273 C   0  0  0  0  0  0  0  0  0  0  0  0
  149.7030  133.1781  188.0956 O   0  0  0  0  0  0  0  0  0  0  0  0
  151.0253  134.9289  188.4186 N   0  0  0  0  0  0  0  0  0  0  0  0
  152.2434  135.4185  188.6645 C   0  0  0  0  0  0  0  0  0  0  0  0
  152.4741  136.6355  188.7710 O   0  0  0  0  0  0  0  0  0  0  0  0
  153.3273  134.5291  188.8329 C   0  0  0  0  0  0  0  0  0  0  0  0
  149.8328  135.7745  188.2135 C   0  0  0  0  0  0  0  0  0  0  0  0
  149.6729  136.3466  186.9438 C   0  0  0  0  0  0  0  0  0  0  0  0
  148.9047  137.5216  186.3975 C   0  0  0  0  0  0  0  0  0  0  0  0
  150.2905  135.8204  185.8768 O   0  0  0  0  0  0  0  0  0  0  0  0
 20 21  1  0  0  0
 21  1  1  0  0  0
  1  2  2  0  0  0
  1  3  1  0  0  0
  3  5  1  0  0  0
  5  6  2  0  0  0
  6  7  1  0  0  0
  7  8  1  0  0  0
  8  9  2  0  0  0
  8 10  1  0  0  0
 10 11  2  0  0  0
 11 12  1  0  0  0
 12 13  2  0  0  0
 13 14  1  0  0  0
 14 15  2  0  0  0
 13 16  1  0  0  0
 16 17  1  0  0  0
 16 18  1  0  0  0
 16 19  1  0  0  0
 21 22  1  0  0  0
 22 23  1  0  0  0
 23 24  2  0  0  0
 24 25  1  0  0  0
 25 26  1  0  0  0
 26 27  1  0  0  0
 26 28  1  0  0  0
 28 29  2  0  0  0
 28 30  1  0  0  0
 30 34  1  0  0  0
 34 35  1  0  0  0
 35 36  1  0  0  0
 35 37  2  0  0  0
 30 31  1  0  0  0
 31 32  2  0  0  0
 31 33  1  0  0  0
  9  5  1  0  0  0
 15 10  1  0  0  0
 33 22  1  0  0  0
 33 25  2  0  0  0
  3  4  1  0  0  0
M  END
> <minimizedAffinity>
-5.24758

> <CNNscore>
0.2618946433

> <CNNaffinity>
5.8511600494

> <CNN_VS>
1.5323874950

> <CNNaffinity_variance>
0.1335952580

$$$$
[H]c1nc(C(F)(F)F)nc([H])c1-c1nc(N([H])C(=O)[C@@]([H])(n2c([H])nc3c2c(=O)n(C([H])([H])C(=O)C([H])([H])[H])c(=O)n3C([H])([H])[H])C([H])([H])[H])c([H])s1


 37 40  0  0  0  0  0  0  0  0999 V2000
  153.4189  137.9201  186.3021 C   0  0  0  0  0  0  0  0  0  0  0  0
  153.1629  139.0048  186.8002 O   0  0  0  0  0  0  0  0  0  0  0  0
  154.2738  137.7287  185.1791 N   0  0  0  0  0  0  0  0  0  0  0  0
  154.4570  136.7796  184.8082 H   0  0  0  0  0  0  0  0  0  0  0  0
  154.9066  138.8812  184.5243 C   0  0  0  0  0  0  0  0  0  0  0  0
  154.2888  139.6566  183.5852 C   0  0  0  0  0  0  0  0  0  0  0  0
  155.4939  140.8219  183.1820 S   0  0  0  0  0  0  0  0  0  0  0  0
  156.7395  140.2074  184.2660 C   0  0  0  0  0  0  0  0  0  0  0  0
  156.1213  139.2105  184.8169 N   0  0  0  0  0  0  0  0  0  0  0  0
  158.0736  140.8037  184.4341 C   0  0  0  0  0  0  0  0  0  0  0  0
  158.4464  141.3174  185.6537 C   0  0  0  0  0  0  0  0  0  0  0  0
  159.6940  141.8695  185.7765 N   0  0  0  0  0  0  0  0  0  0  0  0
  160.5885  141.9370  184.7492 C   0  0  0  0  0  0  0  0  0  0  0  0
  160.1881  141.4342  183.5927 N   0  0  0  0  0  0  0  0  0  0  0  0
  158.9387  140.8518  183.3879 C   0  0  0  0  0  0  0  0  0  0  0  0
  161.9225  142.5600  184.9541 C   0  0  0  0  0  0  0  0  0  0  0  0
  162.2030  142.5227  186.3096 F   0  0  0  0  0  0  0  0  0  0  0  0
  161.8339  143.8902  184.5937 F   0  0  0  0  0  0  0  0  0  0  0  0
  162.9108  141.9251  184.2078 F   0  0  0  0  0  0  0  0  0  0  0  0
  151.3037  136.9593  187.0939 C   0  0  0  0  0  0  0  0  0  0  0  0
  152.7861  136.6994  186.9188 C   0  0  0  0  0  0  0  0  0  0  0  0
  153.3657  136.4656  188.2190 N   0  0  0  0  0  0  0  0  0  0  0  0
  152.8972  136.8666  189.4001 C   0  0  0  0  0  0  0  0  0  0  0  0
  153.7628  136.6253  190.3837 N   0  0  0  0  0  0  0  0  0  0  0  0
  154.8390  136.0182  189.7724 C   0  0  0  0  0  0  0  0  0  0  0  0
  155.9528  135.5293  190.3293 N   0  0  0  0  0  0  0  0  0  0  0  0
  156.1848  135.6440  191.7435 C   0  0  0  0  0  0  0  0  0  0  0  0
  156.8382  134.9153  189.5091 C   0  0  0  0  0  0  0  0  0  0  0  0
  157.8970  134.4298  189.9463 O   0  0  0  0  0  0  0  0  0  0  0  0
  156.6387  134.7803  188.1541 N   0  0  0  0  0  0  0  0  0  0  0  0
  155.5239  135.2786  187.6129 C   0  0  0  0  0  0  0  0  0  0  0  0
  155.2634  135.1909  186.4005 O   0  0  0  0  0  0  0  0  0  0  0  0
  154.5777  135.9205  188.4416 C   0  0  0  0  0  0  0  0  0  0  0  0
  157.6935  134.1055  187.3724 C   0  0  0  0  0  0  0  0  0  0  0  0
  157.4242  132.7994  186.9405 C   0  0  0  0  0  0  0  0  0  0  0  0
  157.0797  132.1683  185.6168 C   0  0  0  0  0  0  0  0  0  0  0  0
  157.4402  131.7779  187.8083 O   0  0  0  0  0  0  0  0  0  0  0  0
 20 21  1  0  0  0
 21  1  1  0  0  0
  1  2  2  0  0  0
  1  3  1  0  0  0
  3  5  1  0  0  0
  5  6  2  0  0  0
  6  7  1  0  0  0
  7  8  1  0  0  0
  8  9  2  0  0  0
  8 10  1  0  0  0
 10 11  2  0  0  0
 11 12  1  0  0  0
 12 13  2  0  0  0
 13 14  1  0  0  0
 14 15  2  0  0  0
 13 16  1  0  0  0
 16 17  1  0  0  0
 16 18  1  0  0  0
 16 19  1  0  0  0
 21 22  1  0  0  0
 22 23  1  0  0  0
 23 24  2  0  0  0
 24 25  1  0  0  0
 25 26  1  0  0  0
 26 27  1  0  0  0
 26 28  1  0  0  0
 28 29  2  0  0  0
 28 30  1  0  0  0
 30 34  1  0  0  0
 34 35  1  0  0  0
 35 36  1  0  0  0
 35 37  2  0  0  0
 30 31  1  0  0  0
 31 32  2  0  0  0
 31 33  1  0  0  0
  9  5  1  0  0  0
 15 10  1  0  0  0
 33 22  1  0  0  0
 33 25  2  0  0  0
  3  4  1  0  0  0
M  END
> <minimizedAffinity>
-7.65242

> <CNNscore>
0.2429945767

> <CNNaffinity>
6.4055352211

> <CNN_VS>
1.5565103292

> <CNNaffinity_variance>
0.1936716288

$$$$
[H]C([H])([H])SC([H])([H])C([H])([H])C([H])([H])C([H])([H])N=C=S


  9  8  0  0  0  0  0  0  0  0999 V2000
  159.7081  142.2113  184.5124 C   0  0  0  0  0  0  0  0  0  0  0  0
  159.3148  141.9099  185.9288 C   0  0  0  0  0  0  0  0  0  0  0  0
  160.1159  142.6368  186.9580 C   0  0  0  0  0  0  0  0  0  0  0  0
  163.0457  142.6589  187.3250 C   0  0  0  0  0  0  0  0  0  0  0  0
  161.7190  143.0596  186.1731 S   0  0  0  0  0  0  0  0  0  0  0  0
  158.6108  142.0042  183.5223 C   0  0  0  0  0  0  0  0  0  0  0  0
  158.8377  142.9534  182.4234 N   0  0  0  0  0  0  0  0  0  0  0  0
  158.8620  142.5438  181.2112 C   0  0  0  0  0  0  0  0  0  0  0  0
  158.3307  142.1130  179.7357 S   0  0  0  0  0  0  0  0  0  0  0  0
  4  5  1  0  0  0
  5  3  1  0  0  0
  3  2  1  0  0  0
  2  1  1  0  0  0
  1  6  1  0  0  0
  6  7  1  0  0  0
  7  8  2  0  0  0
  8  9  2  0  0  0
M  END
> <minimizedAffinity>
-3.84952

> <CNNscore>
0.7867165804

> <CNNaffinity>
4.8785047531

> <CNN_VS>
3.8380005360

> <CNNaffinity_variance>
0.0905128270

$$$$
[H]C([H])([H])SC([H])([H])C([H])([H])C([H])([H])C([H])([H])N=C=S


  9  8  0  0  0  0  0  0  0  0999 V2000
  159.7910  142.3043  183.1652 C   0  0  0  0  0  0  0  0  0  0  0  0
  158.6800  143.2330  182.7717 C   0  0  0  0  0  0  0  0  0  0  0  0
  157.4270  142.5454  182.3400 C   0  0  0  0  0  0  0  0  0  0  0  0
  158.2360  141.9735  179.5584 C   0  0  0  0  0  0  0  0  0  0  0  0
  157.9290  141.2257  181.1691 S   0  0  0  0  0  0  0  0  0  0  0  0
  160.1118  142.3276  184.6225 C   0  0  0  0  0  0  0  0  0  0  0  0
  161.5678  142.1689  184.7454 N   0  0  0  0  0  0  0  0  0  0  0  0
  162.1858  142.6444  185.7602 C   0  0  0  0  0  0  0  0  0  0  0  0
  162.8195  142.7355  187.2551 S   0  0  0  0  0  0  0  0  0  0  0  0
  4  5  1  0  0  0
  5  3  1  0  0  0
  3  2  1  0  0  0
  2  1  1  0  0  0
  1  6  1  0  0  0
  6  7  1  0  0  0
  7  8  2  0  0  0
  8  9  2  0  0  0
M  END
> <minimizedAffinity>
-3.43272

> <CNNscore>
0.7800071239

> <CNNaffinity>
4.7433447838

> <CNN_VS>
3.6998426914

> <CNNaffinity_variance>
0.0560848303

$$$$
[H]C([H])([H])SC([H])([H])C([H])([H])C([H])([H])C([H])([H])N=C=S


  9  8  0  0  0  0  0  0  0  0999 V2000
  159.4757  142.4924  184.0506 C   0  0  0  0  0  0  0  0  0  0  0  0
  159.1655  141.7097  185.2927 C   0  0  0  0  0  0  0  0  0  0  0  0
  159.8327  142.2227  186.5260 C   0  0  0  0  0  0  0  0  0  0  0  0
  162.6565  142.8174  187.1517 C   0  0  0  0  0  0  0  0  0  0  0  0
  161.3282  143.1308  185.9748 S   0  0  0  0  0  0  0  0  0  0  0  0
  158.3403  142.5708  183.0852 C   0  0  0  0  0  0  0  0  0  0  0  0
  157.1582  142.0231  183.7655 N   0  0  0  0  0  0  0  0  0  0  0  0
  156.0043  142.5422  183.5733 C   0  0  0  0  0  0  0  0  0  0  0  0
  154.5555  142.8303  182.8930 S   0  0  0  0  0  0  0  0  0  0  0  0
  4  5  1  0  0  0
  5  3  1  0  0  0
  3  2  1  0  0  0
  2  1  1  0  0  0
  1  6  1  0  0  0
  6  7  1  0  0  0
  7  8  2  0  0  0
  8  9  2  0  0  0
M  END
> <minimizedAffinity>
-3.57926

> <CNNscore>
0.7648985386

> <CNNaffinity>
4.7133688927

> <CNN_VS>
3.6052489281

> <CNNaffinity_variance>
0.0455133542

$$$$
[H]C([H])([H])SC([H])([H])C([H])([H])C([H])([H])C([H])([H])N=C=S


  9  8  0  0  0  0  0  0  0  0999 V2000
  160.0796  141.0771  183.7521 C   0  0  0  0  0  0  0  0  0  0  0  0
  159.5928  142.3669  184.3450 C   0  0  0  0  0  0  0  0  0  0  0  0
  160.6771  143.2579  184.8545 C   0  0  0  0  0  0  0  0  0  0  0  0
  162.6229  142.7794  187.0234 C   0  0  0  0  0  0  0  0  0  0  0  0
  160.8651  142.8872  186.6411 S   0  0  0  0  0  0  0  0  0  0  0  0
  159.1045  139.9530  183.8650 C   0  0  0  0  0  0  0  0  0  0  0  0
  158.8380  139.4756  182.5007 N   0  0  0  0  0  0  0  0  0  0  0  0
  158.3635  140.2725  181.6190 C   0  0  0  0  0  0  0  0  0  0  0  0
  158.3208  141.3883  180.4365 S   0  0  0  0  0  0  0  0  0  0  0  0
  4  5  1  0  0  0
  5  3  1  0  0  0
  3  2  1  0  0  0
  2  1  1  0  0  0
  1  6  1  0  0  0
  6  7  1  0  0  0
  7  8  2  0  0  0
  8  9  2  0  0  0
M  END
> <minimizedAffinity>
-3.97566

> <CNNscore>
0.7326209545

> <CNNaffinity>
4.6335363388

> <CNN_VS>
3.3946259022

> <CNNaffinity_variance>
0.1112510785

$$$$
[H]C([H])([H])SC([H])([H])C([H])([H])C([H])([H])C([H])([H])N=C=S


  9  8  0  0  0  0  0  0  0  0999 V2000
  158.1929  140.4033  184.8433 C   0  0  0  0  0  0  0  0  0  0  0  0
  159.1277  139.8954  183.7850 C   0  0  0  0  0  0  0  0  0  0  0  0
  158.4649  139.5519  182.4920 C   0  0  0  0  0  0  0  0  0  0  0  0
  158.2358  141.4851  180.2718 C   0  0  0  0  0  0  0  0  0  0  0  0
  157.6195  141.0740  181.9146 S   0  0  0  0  0  0  0  0  0  0  0  0
  158.7490  141.5265  185.6537 C   0  0  0  0  0  0  0  0  0  0  0  0
  160.0659  141.8538  185.0892 N   0  0  0  0  0  0  0  0  0  0  0  0
  160.8930  142.5701  185.7530 C   0  0  0  0  0  0  0  0  0  0  0  0
  162.0741  142.9608  186.8004 S   0  0  0  0  0  0  0  0  0  0  0  0
  4  5  1  0  0  0
  5  3  1  0  0  0
  3  2  1  0  0  0
  2  1  1  0  0  0
  1  6  1  0  0  0
  6  7  1  0  0  0
  7  8  2  0  0  0
  8  9  2  0  0  0
M  END
> <minimizedAffinity>
-3.75247

> <CNNscore>
0.7027662396

> <CNNaffinity>
4.3845338821

> <CNN_VS>
3.0813024044

> <CNNaffinity_variance>
0.1186925545

$$$$
[H]C([H])([H])SC([H])([H])C([H])([H])C([H])([H])C([H])([H])N=C=S


  9  8  0  0  0  0  0  0  0  0999 V2000
  158.2787  141.4146  181.0289 C   0  0  0  0  0  0  0  0  0  0  0  0
  156.9826  141.9900  181.5196 C   0  0  0  0  0  0  0  0  0  0  0  0
  157.0908  143.3776  182.0602 C   0  0  0  0  0  0  0  0  0  0  0  0
  159.4435  145.0128  182.7744 C   0  0  0  0  0  0  0  0  0  0  0  0
  158.6823  144.0559  181.4505 S   0  0  0  0  0  0  0  0  0  0  0  0
  158.5548  140.0346  181.5256 C   0  0  0  0  0  0  0  0  0  0  0  0
  158.6416  140.1137  182.9907 N   0  0  0  0  0  0  0  0  0  0  0  0
  159.6777  140.6152  183.5499 C   0  0  0  0  0  0  0  0  0  0  0  0
  160.6855  141.7278  184.1755 S   0  0  0  0  0  0  0  0  0  0  0  0
  4  5  1  0  0  0
  5  3  1  0  0  0
  3  2  1  0  0  0
  2  1  1  0  0  0
  1  6  1  0  0  0
  6  7  1  0  0  0
  7  8  2  0  0  0
  8  9  2  0  0  0
M  END
> <minimizedAffinity>
-3.18103

> <CNNscore>
0.6974241138

> <CNNaffinity>
4.4814348221

> <CNN_VS>
3.1254606247

> <CNNaffinity_variance>
0.0762796998

$$$$
[H]C([H])([H])SC([H])([H])C([H])([H])C([H])([H])C([H])([H])N=C=S


  9  8  0  0  0  0  0  0  0  0999 V2000
  159.7478  142.4469  183.7514 C   0  0  0  0  0  0  0  0  0  0  0  0
  158.4701  142.1710  183.0144 C   0  0  0  0  0  0  0  0  0  0  0  0
  157.3094  141.8459  183.8955 C   0  0  0  0  0  0  0  0  0  0  0  0
  156.4444  144.0476  182.1283 C   0  0  0  0  0  0  0  0  0  0  0  0
  155.8565  142.7178  183.1930 S   0  0  0  0  0  0  0  0  0  0  0  0
  160.6978  141.2960  183.7677 C   0  0  0  0  0  0  0  0  0  0  0  0
  161.9700  141.7956  184.3083 N   0  0  0  0  0  0  0  0  0  0  0  0
  161.9792  142.5653  185.3307 C   0  0  0  0  0  0  0  0  0  0  0  0
  161.9923  143.0319  186.8885 S   0  0  0  0  0  0  0  0  0  0  0  0
  4  5  1  0  0  0
  5  3  1  0  0  0
  3  2  1  0  0  0
  2  1  1  0  0  0
  1  6  1  0  0  0
  6  7  1  0  0  0
  7  8  2  0  0  0
  8  9  2  0  0  0
M  END
> <minimizedAffinity>
-3.47553

> <CNNscore>
0.6739731431

> <CNNaffinity>
4.6171531677

> <CNN_VS>
3.1118371487

> <CNNaffinity_variance>
0.2374521792

$$$$
[H]C([H])([H])SC([H])([H])C([H])([H])C([H])([H])C([H])([H])N=C=S


  9  8  0  0  0  0  0  0  0  0999 V2000
  159.7460  143.7590  183.2720 C   0  0  0  0  0  0  0  0  0  0  0  0
  159.1903  142.5296  183.9289 C   0  0  0  0  0  0  0  0  0  0  0  0
  159.9786  142.0491  185.1023 C   0  0  0  0  0  0  0  0  0  0  0  0
  162.0991  142.9587  186.9450 C   0  0  0  0  0  0  0  0  0  0  0  0
  161.3669  143.2281  185.3204 S   0  0  0  0  0  0  0  0  0  0  0  0
  158.7415  144.5296  182.4817 C   0  0  0  0  0  0  0  0  0  0  0  0
  159.1111  144.3929  181.0658 N   0  0  0  0  0  0  0  0  0  0  0  0
  158.9538  143.2753  180.4624 C   0  0  0  0  0  0  0  0  0  0  0  0
  158.2348  142.0854  179.6185 S   0  0  0  0  0  0  0  0  0  0  0  0
  4  5  1  0  0  0
  5  3  1  0  0  0
  3  2  1  0  0  0
  2  1  1  0  0  0
  1  6  1  0  0  0
  6  7  1  0  0  0
  7  8  2  0  0  0
  8  9  2  0  0  0
M  END
> <minimizedAffinity>
-3.45112

> <CNNscore>
0.6727802753

> <CNNaffinity>
4.7656593323

> <CNN_VS>
3.2062416077

> <CNNaffinity_variance>
0.0756259412

$$$$
[H]C([H])([H])SC([H])([H])C([H])([H])C([H])([H])C([H])([H])N=C=S


  9  8  0  0  0  0  0  0  0  0999 V2000
  159.1707  140.1056  183.5299 C   0  0  0  0  0  0  0  0  0  0  0  0
  159.5461  141.2630  184.4082 C   0  0  0  0  0  0  0  0  0  0  0  0
  160.9482  141.7432  184.2275 C   0  0  0  0  0  0  0  0  0  0  0  0
  162.2489  142.8158  186.6517 C   0  0  0  0  0  0  0  0  0  0  0  0
  161.1375  143.2242  185.2931 S   0  0  0  0  0  0  0  0  0  0  0  0
  157.8543  140.2670  182.8456 C   0  0  0  0  0  0  0  0  0  0  0  0
  158.1134  140.2299  181.3994 N   0  0  0  0  0  0  0  0  0  0  0  0
  158.1705  141.3165  180.7256 C   0  0  0  0  0  0  0  0  0  0  0  0
  158.7867  142.6597  180.0466 S   0  0  0  0  0  0  0  0  0  0  0  0
  4  5  1  0  0  0
  5  3  1  0  0  0
  3  2  1  0  0  0
  2  1  1  0  0  0
  1  6  1  0  0  0
  6  7  1  0  0  0
  7  8  2  0  0  0
  8  9  2  0  0  0
M  END
> <minimizedAffinity>
-3.78183

> <CNNscore>
0.6715615392

> <CNNaffinity>
4.5672454834

> <CNN_VS>
3.0671863556

> <CNNaffinity_variance>
0.0679459199

$$$$
[H]c1nc(C(F)(F)F)c(C([H])([H])[H])c([H])c1-c1nc(N([H])C(=O)C([H])([H])n2c([H])nc3c2c(=O)n(C([H])([H])C(=O)C([H])([H])OC([H])([H])[H])c(=O)n3C([H])([H])[H])c([H])s1


 39 42  0  0  0  0  0  0  0  0999 V2000
  154.8250  138.2468  185.8553 C   0  0  0  0  0  0  0  0  0  0  0  0
  153.7897  138.8826  186.2214 O   0  0  0  0  0  0  0  0  0  0  0  0
  155.6659  137.5828  186.7791 N   0  0  0  0  0  0  0  0  0  0  0  0
  156.4967  137.0799  186.4234 H   0  0  0  0  0  0  0  0  0  0  0  0
  155.3483  137.6204  188.1939 C   0  0  0  0  0  0  0  0  0  0  0  0
  156.1638  138.3044  189.0708 C   0  0  0  0  0  0  0  0  0  0  0  0
  155.3694  138.0433  190.5565 S   0  0  0  0  0  0  0  0  0  0  0  0
  154.0565  137.0875  189.9843 C   0  0  0  0  0  0  0  0  0  0  0  0
  154.3123  137.0304  188.6904 N   0  0  0  0  0  0  0  0  0  0  0  0
  152.9612  136.5061  190.7542 C   0  0  0  0  0  0  0  0  0  0  0  0
  151.8129  136.0928  190.1424 C   0  0  0  0  0  0  0  0  0  0  0  0
  150.8257  135.5589  190.9102 N   0  0  0  0  0  0  0  0  0  0  0  0
  150.9218  135.4163  192.2452 C   0  0  0  0  0  0  0  0  0  0  0  0
  152.0672  135.8239  192.8890 C   0  0  0  0  0  0  0  0  0  0  0  0
  152.1876  135.6734  194.3580 C   0  0  0  0  0  0  0  0  0  0  0  0
  153.0934  136.3765  192.1080 C   0  0  0  0  0  0  0  0  0  0  0  0
  149.8059  134.8236  193.0355 C   0  0  0  0  0  0  0  0  0  0  0  0
  148.7134  134.5373  192.2474 F   0  0  0  0  0  0  0  0  0  0  0  0
  150.2257  133.7247  193.7745 F   0  0  0  0  0  0  0  0  0  0  0  0
  149.4081  135.7706  193.9811 F   0  0  0  0  0  0  0  0  0  0  0  0
  155.1234  138.2267  184.4003 C   0  0  0  0  0  0  0  0  0  0  0  0
  158.2695  141.3858  183.8258 N   0  0  0  0  0  0  0  0  0  0  0  0
  157.8504  142.5455  183.2929 C   0  0  0  0  0  0  0  0  0  0  0  0
  158.6611  143.5082  183.0873 O   0  0  0  0  0  0  0  0  0  0  0  0
  156.5493  142.6672  182.9798 N   0  0  0  0  0  0  0  0  0  0  0  0
  156.1024  143.9181  182.4059 C   0  0  0  0  0  0  0  0  0  0  0  0
  155.7142  141.6356  183.2068 C   0  0  0  0  0  0  0  0  0  0  0  0
  154.3859  141.4790  182.9958 N   0  0  0  0  0  0  0  0  0  0  0  0
  154.0240  140.2487  183.3962 C   0  0  0  0  0  0  0  0  0  0  0  0
  155.0984  139.5960  183.8676 N   0  0  0  0  0  0  0  0  0  0  0  0
  156.1356  140.4358  183.7558 C   0  0  0  0  0  0  0  0  0  0  0  0
  157.4697  140.3356  184.0673 C   0  0  0  0  0  0  0  0  0  0  0  0
  157.8820  139.2641  184.5648 O   0  0  0  0  0  0  0  0  0  0  0  0
  159.6633  141.2498  184.1631 C   0  0  0  0  0  0  0  0  0  0  0  0
  159.9334  141.9335  185.4730 C   0  0  0  0  0  0  0  0  0  0  0  0
  159.1584  141.7760  186.3976 O   0  0  0  0  0  0  0  0  0  0  0  0
  161.1494  142.7653  185.5402 C   0  0  0  0  0  0  0  0  0  0  0  0
  162.8569  142.7391  187.0460 C   0  0  0  0  0  0  0  0  0  0  0  0
  161.5604  143.0968  186.7909 O   0  0  0  0  0  0  0  0  0  0  0  0
 38 39  1  0  0  0
 39 37  1  0  0  0
 37 35  1  0  0  0
 35 36  2  0  0  0
 35 34  1  0  0  0
 34 22  1  0  0  0
 22 23  1  0  0  0
 23 24  2  0  0  0
 23 25  1  0  0  0
 25 26  1  0  0  0
 25 27  1  0  0  0
 27 28  1  0  0  0
 28 29  2  0  0  0
 29 30  1  0  0  0
 30 21  1  0  0  0
 21  1  1  0  0  0
  1  2  2  0  0  0
  1  3  1  0  0  0
  3  5  1  0  0  0
  5  6  2  0  0  0
  6  7  1  0  0  0
  7  8  1  0  0  0
  8  9  2  0  0  0
  8 10  1  0  0  0
 10 11  2  0  0  0
 11 12  1  0  0  0
 12 13  2  0  0  0
 13 14  1  0  0  0
 14 15  1  0  0  0
 14 16  2  0  0  0
 13 17  1  0  0  0
 17 18  1  0  0  0
 17 19  1  0  0  0
 17 20  1  0  0  0
 30 31  1  0  0  0
 31 32  1  0  0  0
 32 33  2  0  0  0
 32 22  1  0  0  0
 31 27  2  0  0  0
  9  5  1  0  0  0
 16 10  1  0  0  0
  3  4  1  0  0  0
M  END
> <minimizedAffinity>
-7.91441

> <CNNscore>
0.6335214376

> <CNNaffinity>
6.6305794716

> <CNN_VS>
4.2006144524

> <CNNaffinity_variance>
0.1468444020

$$$$
[H]c1nc(C(F)(F)F)c(C([H])([H])[H])c([H])c1-c1nc(N([H])C(=O)C([H])([H])n2c([H])nc3c2c(=O)n(C([H])([H])C(=O)C([H])([H])OC([H])([H])[H])c(=O)n3C([H])([H])[H])c([H])s1


 39 42  0  0  0  0  0  0  0  0999 V2000
  154.9982  138.2781  189.2629 C   0  0  0  0  0  0  0  0  0  0  0  0
  153.9937  139.0111  189.0098 O   0  0  0  0  0  0  0  0  0  0  0  0
  155.8064  137.7298  188.2394 N   0  0  0  0  0  0  0  0  0  0  0  0
  156.6129  137.1393  188.5049 H   0  0  0  0  0  0  0  0  0  0  0  0
  155.4902  138.0049  186.8508 C   0  0  0  0  0  0  0  0  0  0  0  0
  154.4191  137.3814  186.2457 C   0  0  0  0  0  0  0  0  0  0  0  0
  154.4854  138.0317  184.6712 S   0  0  0  0  0  0  0  0  0  0  0  0
  155.8590  139.0510  184.8689 C   0  0  0  0  0  0  0  0  0  0  0  0
  156.1781  138.8266  186.1301 N   0  0  0  0  0  0  0  0  0  0  0  0
  156.4841  139.9241  183.8804 C   0  0  0  0  0  0  0  0  0  0  0  0
  155.7453  140.5144  182.8958 C   0  0  0  0  0  0  0  0  0  0  0  0
  156.3813  141.3179  182.0019 N   0  0  0  0  0  0  0  0  0  0  0  0
  157.7045  141.5624  182.0373 C   0  0  0  0  0  0  0  0  0  0  0  0
  158.4744  140.9813  183.0182 C   0  0  0  0  0  0  0  0  0  0  0  0
  159.9322  141.2408  183.0699 C   0  0  0  0  0  0  0  0  0  0  0  0
  157.8301  140.1498  183.9467 C   0  0  0  0  0  0  0  0  0  0  0  0
  158.3471  142.4528  181.0298 C   0  0  0  0  0  0  0  0  0  0  0  0
  157.4213  143.0318  180.1907 F   0  0  0  0  0  0  0  0  0  0  0  0
  159.1768  143.3926  181.6284 F   0  0  0  0  0  0  0  0  0  0  0  0
  159.1921  141.6643  180.2466 F   0  0  0  0  0  0  0  0  0  0  0  0
  155.2959  138.0148  190.6942 C   0  0  0  0  0  0  0  0  0  0  0  0
  156.1086  133.5936  190.6699 N   0  0  0  0  0  0  0  0  0  0  0  0
  155.1480  132.8145  191.1941 C   0  0  0  0  0  0  0  0  0  0  0  0
  155.2773  131.5466  191.2370 O   0  0  0  0  0  0  0  0  0  0  0  0
  154.0418  133.4067  191.6748 N   0  0  0  0  0  0  0  0  0  0  0  0
  153.0097  132.5636  192.2386 C   0  0  0  0  0  0  0  0  0  0  0  0
  153.9301  134.7474  191.6175 C   0  0  0  0  0  0  0  0  0  0  0  0
  152.9521  135.5952  192.0154 N   0  0  0  0  0  0  0  0  0  0  0  0
  153.3261  136.8541  191.7324 C   0  0  0  0  0  0  0  0  0  0  0  0
  154.5375  136.8430  191.1535 N   0  0  0  0  0  0  0  0  0  0  0  0
  154.9142  135.5600  191.0793 C   0  0  0  0  0  0  0  0  0  0  0  0
  156.0353  134.9315  190.5945 C   0  0  0  0  0  0  0  0  0  0  0  0
  156.9429  135.6379  190.1017 O   0  0  0  0  0  0  0  0  0  0  0  0
  157.2969  132.9640  190.1534 C   0  0  0  0  0  0  0  0  0  0  0  0
  157.1701  132.7925  188.6665 C   0  0  0  0  0  0  0  0  0  0  0  0
  156.0702  132.6079  188.1803 O   0  0  0  0  0  0  0  0  0  0  0  0
  158.4214  132.8629  187.8891 C   0  0  0  0  0  0  0  0  0  0  0  0
  159.7620  134.6896  188.1111 C   0  0  0  0  0  0  0  0  0  0  0  0
  158.7449  134.0933  187.4155 O   0  0  0  0  0  0  0  0  0  0  0  0
 38 39  1  0  0  0
 39 37  1  0  0  0
 37 35  1  0  0  0
 35 36  2  0  0  0
 35 34  1  0  0  0
 34 22  1  0  0  0
 22 23  1  0  0  0
 23 24  2  0  0  0
 23 25  1  0  0  0
 25 26  1  0  0  0
 25 27  1  0  0  0
 27 28  1  0  0  0
 28 29  2  0  0  0
 29 30  1  0  0  0
 30 21  1  0  0  0
 21  1  1  0  0  0
  1  2  2  0  0  0
  1  3  1  0  0  0
  3  5  1  0  0  0
  5  6  2  0  0  0
  6  7  1  0  0  0
  7  8  1  0  0  0
  8  9  2  0  0  0
  8 10  1  0  0  0
 10 11  2  0  0  0
 11 12  1  0  0  0
 12 13  2  0  0  0
 13 14  1  0  0  0
 14 15  1  0  0  0
 14 16  2  0  0  0
 13 17  1  0  0  0
 17 18  1  0  0  0
 17 19  1  0  0  0
 17 20  1  0  0  0
 30 31  1  0  0  0
 31 32  1  0  0  0
 32 33  2  0  0  0
 32 22  1  0  0  0
 31 27  2  0  0  0
  9  5  1  0  0  0
 16 10  1  0  0  0
  3  4  1  0  0  0
M  END
> <minimizedAffinity>
-6.83433

> <CNNscore>
0.5730640292

> <CNNaffinity>
6.6227784157

> <CNN_VS>
3.7952761650

> <CNNaffinity_variance>
0.0476223044

$$$$
[H]c1nc(C(F)(F)F)c(C([H])([H])[H])c([H])c1-c1nc(N([H])C(=O)C([H])([H])n2c([H])nc3c2c(=O)n(C([H])([H])C(=O)C([H])([H])OC([H])([H])[H])c(=O)n3C([H])([H])[H])c([H])s1


 39 42  0  0  0  0  0  0  0  0999 V2000
  155.3031  138.0356  187.0252 C   0  0  0  0  0  0  0  0  0  0  0  0
  154.1328  138.4756  187.2420 O   0  0  0  0  0  0  0  0  0  0  0  0
  155.9777  138.2627  185.8026 N   0  0  0  0  0  0  0  0  0  0  0  0
  156.9309  137.8801  185.6817 H   0  0  0  0  0  0  0  0  0  0  0  0
  155.3243  139.0211  184.7529 C   0  0  0  0  0  0  0  0  0  0  0  0
  155.8280  140.2447  184.3638 C   0  0  0  0  0  0  0  0  0  0  0  0
  154.7284  140.6981  183.1424 S   0  0  0  0  0  0  0  0  0  0  0  0
  153.6991  139.3188  183.1946 C   0  0  0  0  0  0  0  0  0  0  0  0
  154.2655  138.5994  184.1457 N   0  0  0  0  0  0  0  0  0  0  0  0
  152.5158  139.0451  182.3851 C   0  0  0  0  0  0  0  0  0  0  0  0
  151.6200  138.0823  182.7514 C   0  0  0  0  0  0  0  0  0  0  0  0
  150.5359  137.8706  181.9585 N   0  0  0  0  0  0  0  0  0  0  0  0
  150.2991  138.5625  180.8284 C   0  0  0  0  0  0  0  0  0  0  0  0
  151.1845  139.5389  180.4343 C   0  0  0  0  0  0  0  0  0  0  0  0
  150.9375  140.3088  179.1927 C   0  0  0  0  0  0  0  0  0  0  0  0
  152.3074  139.7671  181.2439 C   0  0  0  0  0  0  0  0  0  0  0  0
  149.0925  138.2863  179.9985 C   0  0  0  0  0  0  0  0  0  0  0  0
  148.1236  139.2510  180.1630 F   0  0  0  0  0  0  0  0  0  0  0  0
  149.4205  138.0906  178.6627 F   0  0  0  0  0  0  0  0  0  0  0  0
  148.5550  137.0706  180.4255 F   0  0  0  0  0  0  0  0  0  0  0  0
  155.9454  137.2628  188.1193 C   0  0  0  0  0  0  0  0  0  0  0  0
  152.4105  135.3004  190.0844 N   0  0  0  0  0  0  0  0  0  0  0  0
  152.0380  135.8084  191.2708 C   0  0  0  0  0  0  0  0  0  0  0  0
  151.0479  135.3258  191.9135 O   0  0  0  0  0  0  0  0  0  0  0  0
  152.7378  136.8428  191.7667 N   0  0  0  0  0  0  0  0  0  0  0  0
  152.3330  137.3867  193.0451 C   0  0  0  0  0  0  0  0  0  0  0  0
  153.7790  137.3336  191.0681 C   0  0  0  0  0  0  0  0  0  0  0  0
  154.6431  138.3460  191.3168 N   0  0  0  0  0  0  0  0  0  0  0  0
  155.5123  138.4366  190.2964 C   0  0  0  0  0  0  0  0  0  0  0  0
  155.2291  137.4961  189.3810 N   0  0  0  0  0  0  0  0  0  0  0  0
  154.1715  136.8176  189.8442 C   0  0  0  0  0  0  0  0  0  0  0  0
  153.4409  135.7607  189.3582 C   0  0  0  0  0  0  0  0  0  0  0  0
  153.7703  135.2717  188.2546 O   0  0  0  0  0  0  0  0  0  0  0  0
  151.6640  134.1911  189.5482 C   0  0  0  0  0  0  0  0  0  0  0  0
  150.4072  134.6967  188.8992 C   0  0  0  0  0  0  0  0  0  0  0  0
  150.4482  135.7161  188.2363 O   0  0  0  0  0  0  0  0  0  0  0  0
  149.1875  133.8979  189.1208 C   0  0  0  0  0  0  0  0  0  0  0  0
  148.1667  133.5461  191.1253 C   0  0  0  0  0  0  0  0  0  0  0  0
  148.3336  134.3855  190.0569 O   0  0  0  0  0  0  0  0  0  0  0  0
 38 39  1  0  0  0
 39 37  1  0  0  0
 37 35  1  0  0  0
 35 36  2  0  0  0
 35 34  1  0  0  0
 34 22  1  0  0  0
 22 23  1  0  0  0
 23 24  2  0  0  0
 23 25  1  0  0  0
 25 26  1  0  0  0
 25 27  1  0  0  0
 27 28  1  0  0  0
 28 29  2  0  0  0
 29 30  1  0  0  0
 30 21  1  0  0  0
 21  1  1  0  0  0
  1  2  2  0  0  0
  1  3  1  0  0  0
  3  5  1  0  0  0
  5  6  2  0  0  0
  6  7  1  0  0  0
  7  8  1  0  0  0
  8  9  2  0  0  0
  8 10  1  0  0  0
 10 11  2  0  0  0
 11 12  1  0  0  0
 12 13  2  0  0  0
 13 14  1  0  0  0
 14 15  1  0  0  0
 14 16  2  0  0  0
 13 17  1  0  0  0
 17 18  1  0  0  0
 17 19  1  0  0  0
 17 20  1  0  0  0
 30 31  1  0  0  0
 31 32  1  0  0  0
 32 33  2  0  0  0
 32 22  1  0  0  0
 31 27  2  0  0  0
  9  5  1  0  0  0
 16 10  1  0  0  0
  3  4  1  0  0  0
M  END
> <minimizedAffinity>
-6.45298

> <CNNscore>
0.4903200269

> <CNNaffinity>
6.0147204399

> <CNN_VS>
2.9491379261

> <CNNaffinity_variance>
0.2325741351

$$$$
[H]c1nc(C(F)(F)F)c(C([H])([H])[H])c([H])c1-c1nc(N([H])C(=O)C([H])([H])n2c([H])nc3c2c(=O)n(C([H])([H])C(=O)C([H])([H])OC([H])([H])[H])c(=O)n3C([H])([H])[H])c([H])s1


 39 42  0  0  0  0  0  0  0  0999 V2000
  155.4741  137.9960  189.3127 C   0  0  0  0  0  0  0  0  0  0  0  0
  154.5123  138.8199  189.2335 O   0  0  0  0  0  0  0  0  0  0  0  0
  156.1529  137.5196  188.1666 N   0  0  0  0  0  0  0  0  0  0  0  0
  156.9301  136.8486  188.2916 H   0  0  0  0  0  0  0  0  0  0  0  0
  155.7488  137.9780  186.8512 C   0  0  0  0  0  0  0  0  0  0  0  0
  154.5747  137.5238  186.2878 C   0  0  0  0  0  0  0  0  0  0  0  0
  154.5706  138.3414  184.7918 S   0  0  0  0  0  0  0  0  0  0  0  0
  156.0488  139.2073  184.9651 C   0  0  0  0  0  0  0  0  0  0  0  0
  156.4501  138.8132  186.1595 N   0  0  0  0  0  0  0  0  0  0  0  0
  156.6701  140.1295  184.0198 C   0  0  0  0  0  0  0  0  0  0  0  0
  155.9205  140.8067  183.1015 C   0  0  0  0  0  0  0  0  0  0  0  0
  156.5534  141.6527  182.2455 N   0  0  0  0  0  0  0  0  0  0  0  0
  157.8837  141.8578  182.2562 C   0  0  0  0  0  0  0  0  0  0  0  0
  158.6646  141.1892  183.1704 C   0  0  0  0  0  0  0  0  0  0  0  0
  160.1302  141.4044  183.1942 C   0  0  0  0  0  0  0  0  0  0  0  0
  158.0235  140.3132  184.0593 C   0  0  0  0  0  0  0  0  0  0  0  0
  158.5225  142.7982  181.2925 C   0  0  0  0  0  0  0  0  0  0  0  0
  159.1068  143.8697  181.9305 F   0  0  0  0  0  0  0  0  0  0  0  0
  159.4066  142.1436  180.4440 F   0  0  0  0  0  0  0  0  0  0  0  0
  157.5187  143.2979  180.4608 F   0  0  0  0  0  0  0  0  0  0  0  0
  155.8643  137.5453  190.6734 C   0  0  0  0  0  0  0  0  0  0  0  0
  152.6561  135.3426  192.9236 N   0  0  0  0  0  0  0  0  0  0  0  0
  152.6853  134.0027  192.8318 C   0  0  0  0  0  0  0  0  0  0  0  0
  151.8210  133.2814  193.4310 O   0  0  0  0  0  0  0  0  0  0  0  0
  153.6522  133.4379  192.0891 N   0  0  0  0  0  0  0  0  0  0  0  0
  153.6797  131.9943  191.9930 C   0  0  0  0  0  0  0  0  0  0  0  0
  154.5526  134.2221  191.4665 C   0  0  0  0  0  0  0  0  0  0  0  0
  155.6107  133.9357  190.6717 N   0  0  0  0  0  0  0  0  0  0  0  0
  156.1982  135.0850  190.2988 C   0  0  0  0  0  0  0  0  0  0  0  0
  155.5387  136.1220  190.8393 N   0  0  0  0  0  0  0  0  0  0  0  0
  154.5317  135.6042  191.5545 C   0  0  0  0  0  0  0  0  0  0  0  0
  153.5340  136.1580  192.3191 C   0  0  0  0  0  0  0  0  0  0  0  0
  153.4878  137.4044  192.4186 O   0  0  0  0  0  0  0  0  0  0  0  0
  151.6214  135.9535  193.7181 C   0  0  0  0  0  0  0  0  0  0  0  0
  150.3142  135.8847  192.9814 C   0  0  0  0  0  0  0  0  0  0  0  0
  149.3234  135.4842  193.5631 O   0  0  0  0  0  0  0  0  0  0  0  0
  150.3318  136.3194  191.5722 C   0  0  0  0  0  0  0  0  0  0  0  0
  148.9658  135.5066  189.9422 C   0  0  0  0  0  0  0  0  0  0  0  0
  150.1210  135.3390  190.6572 O   0  0  0  0  0  0  0  0  0  0  0  0
 38 39  1  0  0  0
 39 37  1  0  0  0
 37 35  1  0  0  0
 35 36  2  0  0  0
 35 34  1  0  0  0
 34 22  1  0  0  0
 22 23  1  0  0  0
 23 24  2  0  0  0
 23 25  1  0  0  0
 25 26  1  0  0  0
 25 27  1  0  0  0
 27 28  1  0  0  0
 28 29  2  0  0  0
 29 30  1  0  0  0
 30 21  1  0  0  0
 21  1  1  0  0  0
  1  2  2  0  0  0
  1  3  1  0  0  0
  3  5  1  0  0  0
  5  6  2  0  0  0
  6  7  1  0  0  0
  7  8  1  0  0  0
  8  9  2  0  0  0
  8 10  1  0  0  0
 10 11  2  0  0  0
 11 12  1  0  0  0
 12 13  2  0  0  0
 13 14  1  0  0  0
 14 15  1  0  0  0
 14 16  2  0  0  0
 13 17  1  0  0  0
 17 18  1  0  0  0
 17 19  1  0  0  0
 17 20  1  0  0  0
 30 31  1  0  0  0
 31 32  1  0  0  0
 32 33  2  0  0  0
 32 22  1  0  0  0
 31 27  2  0  0  0
  9  5  1  0  0  0
 16 10  1  0  0  0
  3  4  1  0  0  0
M  END
> <minimizedAffinity>
-7.45761

> <CNNscore>
0.4745859504

> <CNNaffinity>
6.4203653336

> <CNN_VS>
3.0470151901

> <CNNaffinity_variance>
0.0453503951

$$$$
[H]c1nc(C(F)(F)F)c(C([H])([H])[H])c([H])c1-c1nc(N([H])C(=O)C([H])([H])n2c([H])nc3c2c(=O)n(C([H])([H])C(=O)C([H])([H])OC([H])([H])[H])c(=O)n3C([H])([H])[H])c([H])s1


 39 42  0  0  0  0  0  0  0  0999 V2000
  155.5680  137.2833  187.4626 C   0  0  0  0  0  0  0  0  0  0  0  0
  156.0312  138.4417  187.6943 O   0  0  0  0  0  0  0  0  0  0  0  0
  154.8786  136.9741  186.2665 N   0  0  0  0  0  0  0  0  0  0  0  0
  154.5229  136.0124  186.1316 H   0  0  0  0  0  0  0  0  0  0  0  0
  154.6868  138.0033  185.2626 C   0  0  0  0  0  0  0  0  0  0  0  0
  153.5052  138.0710  184.5544 C   0  0  0  0  0  0  0  0  0  0  0  0
  153.7873  139.4113  183.5393 S   0  0  0  0  0  0  0  0  0  0  0  0
  155.3777  139.8069  184.0676 C   0  0  0  0  0  0  0  0  0  0  0  0
  155.5895  138.8852  184.9886 N   0  0  0  0  0  0  0  0  0  0  0  0
  156.2412  140.8864  183.5995 C   0  0  0  0  0  0  0  0  0  0  0  0
  155.7293  142.1144  183.2933 C   0  0  0  0  0  0  0  0  0  0  0  0
  156.5813  143.0822  182.8615 N   0  0  0  0  0  0  0  0  0  0  0  0
  157.9063  142.8923  182.7199 C   0  0  0  0  0  0  0  0  0  0  0  0
  158.4505  141.6652  183.0210 C   0  0  0  0  0  0  0  0  0  0  0  0
  159.9072  141.4410  182.8699 C   0  0  0  0  0  0  0  0  0  0  0  0
  157.5819  140.6580  183.4675 C   0  0  0  0  0  0  0  0  0  0  0  0
  158.7919  143.9915  182.2418 C   0  0  0  0  0  0  0  0  0  0  0  0
  159.4522  143.6520  181.0820 F   0  0  0  0  0  0  0  0  0  0  0  0
  158.1037  145.1927  182.1245 F   0  0  0  0  0  0  0  0  0  0  0  0
  159.7558  144.2164  183.2264 F   0  0  0  0  0  0  0  0  0  0  0  0
  155.7806  136.2513  188.5097 C   0  0  0  0  0  0  0  0  0  0  0  0
  151.5764  135.8483  190.0493 N   0  0  0  0  0  0  0  0  0  0  0  0
  151.3433  136.3607  191.2690 C   0  0  0  0  0  0  0  0  0  0  0  0
  150.1854  136.2999  191.7999 O   0  0  0  0  0  0  0  0  0  0  0  0
  152.3653  136.9419  191.9196 N   0  0  0  0  0  0  0  0  0  0  0  0
  152.1096  137.4925  193.2332 C   0  0  0  0  0  0  0  0  0  0  0  0
  153.5781  136.9930  191.3368 C   0  0  0  0  0  0  0  0  0  0  0  0
  154.7623  137.5051  191.7477 N   0  0  0  0  0  0  0  0  0  0  0  0
  155.6810  137.2998  190.7891 C   0  0  0  0  0  0  0  0  0  0  0  0
  155.1141  136.6595  189.7541 N   0  0  0  0  0  0  0  0  0  0  0  0
  153.8293  136.4679  190.0800 C   0  0  0  0  0  0  0  0  0  0  0  0
  152.7691  135.8790  189.4350 C   0  0  0  0  0  0  0  0  0  0  0  0
  152.9636  135.3950  188.2977 O   0  0  0  0  0  0  0  0  0  0  0  0
  150.4844  135.2237  189.3474 C   0  0  0  0  0  0  0  0  0  0  0  0
  150.2618  133.8411  189.8907 C   0  0  0  0  0  0  0  0  0  0  0  0
  151.2131  133.0949  190.0275 O   0  0  0  0  0  0  0  0  0  0  0  0
  148.8707  133.4841  190.2258 C   0  0  0  0  0  0  0  0  0  0  0  0
  146.8337  132.9897  189.3371 C   0  0  0  0  0  0  0  0  0  0  0  0
  148.1897  132.8204  189.2570 O   0  0  0  0  0  0  0  0  0  0  0  0
 38 39  1  0  0  0
 39 37  1  0  0  0
 37 35  1  0  0  0
 35 36  2  0  0  0
 35 34  1  0  0  0
 34 22  1  0  0  0
 22 23  1  0  0  0
 23 24  2  0  0  0
 23 25  1  0  0  0
 25 26  1  0  0  0
 25 27  1  0  0  0
 27 28  1  0  0  0
 28 29  2  0  0  0
 29 30  1  0  0  0
 30 21  1  0  0  0
 21  1  1  0  0  0
  1  2  2  0  0  0
  1  3  1  0  0  0
  3  5  1  0  0  0
  5  6  2  0  0  0
  6  7  1  0  0  0
  7  8  1  0  0  0
  8  9  2  0  0  0
  8 10  1  0  0  0
 10 11  2  0  0  0
 11 12  1  0  0  0
 12 13  2  0  0  0
 13 14  1  0  0  0
 14 15  1  0  0  0
 14 16  2  0  0  0
 13 17  1  0  0  0
 17 18  1  0  0  0
 17 19  1  0  0  0
 17 20  1  0  0  0
 30 31  1  0  0  0
 31 32  1  0  0  0
 32 33  2  0  0  0
 32 22  1  0  0  0
 31 27  2  0  0  0
  9  5  1  0  0  0
 16 10  1  0  0  0
  3  4  1  0  0  0
M  END
> <minimizedAffinity>
-6.75851

> <CNNscore>
0.4465630949

> <CNNaffinity>
6.5830216408

> <CNN_VS>
2.9397344589

> <CNNaffinity_variance>
0.1093552336

$$$$
[H]c1nc(C(F)(F)F)c(C([H])([H])[H])c([H])c1-c1nc(N([H])C(=O)C([H])([H])n2c([H])nc3c2c(=O)n(C([H])([H])C(=O)C([H])([H])OC([H])([H])[H])c(=O)n3C([H])([H])[H])c([H])s1


 39 42  0  0  0  0  0  0  0  0999 V2000
  153.8628  136.1346  185.0748 C   0  0  0  0  0  0  0  0  0  0  0  0
  154.3425  135.7389  183.9687 O   0  0  0  0  0  0  0  0  0  0  0  0
  153.4324  137.4674  185.2743 N   0  0  0  0  0  0  0  0  0  0  0  0
  153.0494  137.7337  186.1974 H   0  0  0  0  0  0  0  0  0  0  0  0
  153.5361  138.4247  184.1896 C   0  0  0  0  0  0  0  0  0  0  0  0
  152.5940  138.4379  183.1824 C   0  0  0  0  0  0  0  0  0  0  0  0
  153.1609  139.7073  182.1958 S   0  0  0  0  0  0  0  0  0  0  0  0
  154.5518  140.1463  183.1111 C   0  0  0  0  0  0  0  0  0  0  0  0
  154.4914  139.2906  184.1145 N   0  0  0  0  0  0  0  0  0  0  0  0
  155.5250  141.1959  182.8258 C   0  0  0  0  0  0  0  0  0  0  0  0
  155.1525  142.5086  182.7851 C   0  0  0  0  0  0  0  0  0  0  0  0
  156.1020  143.4435  182.5142 N   0  0  0  0  0  0  0  0  0  0  0  0
  157.3933  143.1415  182.2834 C   0  0  0  0  0  0  0  0  0  0  0  0
  157.7978  141.8270  182.3179 C   0  0  0  0  0  0  0  0  0  0  0  0
  159.2157  141.4791  182.0657 C   0  0  0  0  0  0  0  0  0  0  0  0
  156.8275  140.8527  182.5963 C   0  0  0  0  0  0  0  0  0  0  0  0
  158.3904  144.2098  181.9912 C   0  0  0  0  0  0  0  0  0  0  0  0
  159.4508  144.1773  182.8693 F   0  0  0  0  0  0  0  0  0  0  0  0
  158.8029  144.1800  180.6649 F   0  0  0  0  0  0  0  0  0  0  0  0
  157.7498  145.4404  182.1479 F   0  0  0  0  0  0  0  0  0  0  0  0
  153.7696  135.1309  186.1659 C   0  0  0  0  0  0  0  0  0  0  0  0
  152.8387  136.2307  190.4241 N   0  0  0  0  0  0  0  0  0  0  0  0
  153.8890  136.5755  191.1873 C   0  0  0  0  0  0  0  0  0  0  0  0
  153.7363  136.9049  192.4097 O   0  0  0  0  0  0  0  0  0  0  0  0
  155.1109  136.5647  190.6284 N   0  0  0  0  0  0  0  0  0  0  0  0
  156.2394  136.9367  191.4543 C   0  0  0  0  0  0  0  0  0  0  0  0
  155.2448  136.2128  189.3356 C   0  0  0  0  0  0  0  0  0  0  0  0
  156.3276  136.1148  188.5285 N   0  0  0  0  0  0  0  0  0  0  0  0
  155.9267  135.7188  187.3089 C   0  0  0  0  0  0  0  0  0  0  0  0
  154.5940  135.5560  187.3057 N   0  0  0  0  0  0  0  0  0  0  0  0
  154.1689  135.8557  188.5398 C   0  0  0  0  0  0  0  0  0  0  0  0
  152.9304  135.8743  189.1335 C   0  0  0  0  0  0  0  0  0  0  0  0
  151.9377  135.5567  188.4411 O   0  0  0  0  0  0  0  0  0  0  0  0
  151.5264  136.2402  191.0182 C   0  0  0  0  0  0  0  0  0  0  0  0
  151.3533  135.0196  191.8763 C   0  0  0  0  0  0  0  0  0  0  0  0
  151.6773  133.9322  191.4370 O   0  0  0  0  0  0  0  0  0  0  0  0
  150.7892  135.2380  193.2214 C   0  0  0  0  0  0  0  0  0  0  0  0
  148.7522  134.2327  193.0674 C   0  0  0  0  0  0  0  0  0  0  0  0
  149.4419  135.3978  193.2694 O   0  0  0  0  0  0  0  0  0  0  0  0
 38 39  1  0  0  0
 39 37  1  0  0  0
 37 35  1  0  0  0
 35 36  2  0  0  0
 35 34  1  0  0  0
 34 22  1  0  0  0
 22 23  1  0  0  0
 23 24  2  0  0  0
 23 25  1  0  0  0
 25 26  1  0  0  0
 25 27  1  0  0  0
 27 28  1  0  0  0
 28 29  2  0  0  0
 29 30  1  0  0  0
 30 21  1  0  0  0
 21  1  1  0  0  0
  1  2  2  0  0  0
  1  3  1  0  0  0
  3  5  1  0  0  0
  5  6  2  0  0  0
  6  7  1  0  0  0
  7  8  1  0  0  0
  8  9  2  0  0  0
  8 10  1  0  0  0
 10 11  2  0  0  0
 11 12  1  0  0  0
 12 13  2  0  0  0
 13 14  1  0  0  0
 14 15  1  0  0  0
 14 16  2  0  0  0
 13 17  1  0  0  0
 17 18  1  0  0  0
 17 19  1  0  0  0
 17 20  1  0  0  0
 30 31  1  0  0  0
 31 32  1  0  0  0
 32 33  2  0  0  0
 32 22  1  0  0  0
 31 27  2  0  0  0
  9  5  1  0  0  0
 16 10  1  0  0  0
  3  4  1  0  0  0
M  END
> <minimizedAffinity>
-6.84069

> <CNNscore>
0.3864631653

> <CNNaffinity>
6.4424657822

> <CNN_VS>
2.4897756577

> <CNNaffinity_variance>
0.2164886296

$$$$
[H]c1nc(C(F)(F)F)c(C([H])([H])[H])c([H])c1-c1nc(N([H])C(=O)C([H])([H])n2c([H])nc3c2c(=O)n(C([H])([H])C(=O)C([H])([H])OC([H])([H])[H])c(=O)n3C([H])([H])[H])c([H])s1


 39 42  0  0  0  0  0  0  0  0999 V2000
  153.4360  137.5471  185.7515 C   0  0  0  0  0  0  0  0  0  0  0  0
  153.1776  138.5998  186.4113 O   0  0  0  0  0  0  0  0  0  0  0  0
  154.2996  137.5547  184.6310 N   0  0  0  0  0  0  0  0  0  0  0  0
  154.4739  136.6662  184.1311 H   0  0  0  0  0  0  0  0  0  0  0  0
  154.9176  138.7975  184.2100 C   0  0  0  0  0  0  0  0  0  0  0  0
  154.2008  139.7134  183.4687 C   0  0  0  0  0  0  0  0  0  0  0  0
  155.3504  140.9523  183.2453 S   0  0  0  0  0  0  0  0  0  0  0  0
  156.6663  140.2426  184.0994 C   0  0  0  0  0  0  0  0  0  0  0  0
  156.1387  139.1009  184.5008 N   0  0  0  0  0  0  0  0  0  0  0  0
  158.0046  140.7864  184.3078 C   0  0  0  0  0  0  0  0  0  0  0  0
  158.9717  140.6609  183.3524 C   0  0  0  0  0  0  0  0  0  0  0  0
  160.2006  141.1869  183.6015 N   0  0  0  0  0  0  0  0  0  0  0  0
  160.5143  141.8265  184.7437 C   0  0  0  0  0  0  0  0  0  0  0  0
  159.5599  141.9681  185.7244 C   0  0  0  0  0  0  0  0  0  0  0  0
  159.8902  142.6694  186.9870 C   0  0  0  0  0  0  0  0  0  0  0  0
  158.2877  141.4296  185.4796 C   0  0  0  0  0  0  0  0  0  0  0  0
  161.8796  142.3829  184.9611 C   0  0  0  0  0  0  0  0  0  0  0  0
  162.2868  142.2489  186.2698 F   0  0  0  0  0  0  0  0  0  0  0  0
  162.8000  141.8530  184.0654 F   0  0  0  0  0  0  0  0  0  0  0  0
  161.8308  143.7479  184.6715 F   0  0  0  0  0  0  0  0  0  0  0  0
  152.7879  136.2906  186.2073 C   0  0  0  0  0  0  0  0  0  0  0  0
  155.7734  135.9316  189.5488 N   0  0  0  0  0  0  0  0  0  0  0  0
  155.2728  135.9783  190.7946 C   0  0  0  0  0  0  0  0  0  0  0  0
  156.0324  135.8859  191.8147 O   0  0  0  0  0  0  0  0  0  0  0  0
  153.9452  136.1258  190.9404 N   0  0  0  0  0  0  0  0  0  0  0  0
  153.4104  136.1757  192.2841 C   0  0  0  0  0  0  0  0  0  0  0  0
  153.1653  136.2210  189.8469 C   0  0  0  0  0  0  0  0  0  0  0  0
  151.8282  136.3714  189.6953 N   0  0  0  0  0  0  0  0  0  0  0  0
  151.5412  136.4133  188.3835 C   0  0  0  0  0  0  0  0  0  0  0  0
  152.6734  136.2920  187.6723 N   0  0  0  0  0  0  0  0  0  0  0  0
  153.6709  136.1740  188.5583 C   0  0  0  0  0  0  0  0  0  0  0  0
  155.0306  136.0229  188.4349 C   0  0  0  0  0  0  0  0  0  0  0  0
  155.5185  135.9769  187.2837 O   0  0  0  0  0  0  0  0  0  0  0  0
  157.1961  135.7740  189.3866 C   0  0  0  0  0  0  0  0  0  0  0  0
  157.5175  134.3277  189.1397 C   0  0  0  0  0  0  0  0  0  0  0  0
  157.2343  133.5018  189.9872 O   0  0  0  0  0  0  0  0  0  0  0  0
  158.1690  134.0105  187.8552 C   0  0  0  0  0  0  0  0  0  0  0  0
  160.3029  134.7956  187.7377 C   0  0  0  0  0  0  0  0  0  0  0  0
  158.9964  134.9706  187.3686 O   0  0  0  0  0  0  0  0  0  0  0  0
 38 39  1  0  0  0
 39 37  1  0  0  0
 37 35  1  0  0  0
 35 36  2  0  0  0
 35 34  1  0  0  0
 34 22  1  0  0  0
 22 23  1  0  0  0
 23 24  2  0  0  0
 23 25  1  0  0  0
 25 26  1  0  0  0
 25 27  1  0  0  0
 27 28  1  0  0  0
 28 29  2  0  0  0
 29 30  1  0  0  0
 30 21  1  0  0  0
 21  1  1  0  0  0
  1  2  2  0  0  0
  1  3  1  0  0  0
  3  5  1  0  0  0
  5  6  2  0  0  0
  6  7  1  0  0  0
  7  8  1  0  0  0
  8  9  2  0  0  0
  8 10  1  0  0  0
 10 11  2  0  0  0
 11 12  1  0  0  0
 12 13  2  0  0  0
 13 14  1  0  0  0
 14 15  1  0  0  0
 14 16  2  0  0  0
 13 17  1  0  0  0
 17 18  1  0  0  0
 17 19  1  0  0  0
 17 20  1  0  0  0
 30 31  1  0  0  0
 31 32  1  0  0  0
 32 33  2  0  0  0
 32 22  1  0  0  0
 31 27  2  0  0  0
  9  5  1  0  0  0
 16 10  1  0  0  0
  3  4  1  0  0  0
M  END
> <minimizedAffinity>
-8.00786

> <CNNscore>
0.3763739765

> <CNNaffinity>
6.6755571365

> <CNN_VS>
2.5125060081

> <CNNaffinity_variance>
0.2744967639

$$$$
[H]c1nc(C(F)(F)F)c(C([H])([H])[H])c([H])c1-c1nc(N([H])C(=O)C([H])([H])n2c([H])nc3c2c(=O)n(C([H])([H])C(=O)C([H])([H])OC([H])([H])[H])c(=O)n3C([H])([H])[H])c([H])s1


 39 42  0  0  0  0  0  0  0  0999 V2000
  153.9639  137.1418  185.8433 C   0  0  0  0  0  0  0  0  0  0  0  0
  154.0176  137.9913  186.7843 O   0  0  0  0  0  0  0  0  0  0  0  0
  154.4179  137.4373  184.5363 N   0  0  0  0  0  0  0  0  0  0  0  0
  154.3496  136.7055  183.8086 H   0  0  0  0  0  0  0  0  0  0  0  0
  154.9650  138.7489  184.2464 C   0  0  0  0  0  0  0  0  0  0  0  0
  154.1612  139.7343  183.7125 C   0  0  0  0  0  0  0  0  0  0  0  0
  155.2560  141.0332  183.5692 S   0  0  0  0  0  0  0  0  0  0  0  0
  156.6620  140.2574  184.1907 C   0  0  0  0  0  0  0  0  0  0  0  0
  156.2007  139.0520  184.4680 N   0  0  0  0  0  0  0  0  0  0  0  0
  158.0011  140.8142  184.3555 C   0  0  0  0  0  0  0  0  0  0  0  0
  158.9373  140.6992  183.3686 C   0  0  0  0  0  0  0  0  0  0  0  0
  160.1685  141.2370  183.5777 N   0  0  0  0  0  0  0  0  0  0  0  0
  160.5134  141.8786  184.7096 C   0  0  0  0  0  0  0  0  0  0  0  0
  159.5906  142.0099  185.7215 C   0  0  0  0  0  0  0  0  0  0  0  0
  159.9555  142.7133  186.9734 C   0  0  0  0  0  0  0  0  0  0  0  0
  158.3163  141.4591  185.5182 C   0  0  0  0  0  0  0  0  0  0  0  0
  161.8796  142.4483  184.8826 C   0  0  0  0  0  0  0  0  0  0  0  0
  161.9139  143.7960  184.6012 F   0  0  0  0  0  0  0  0  0  0  0  0
  162.4034  142.1578  186.1361 F   0  0  0  0  0  0  0  0  0  0  0  0
  162.7236  141.8057  183.9749 F   0  0  0  0  0  0  0  0  0  0  0  0
  153.3985  135.8080  186.1716 C   0  0  0  0  0  0  0  0  0  0  0  0
  154.5282  135.3049  190.4935 N   0  0  0  0  0  0  0  0  0  0  0  0
  153.5334  135.4525  191.3842 C   0  0  0  0  0  0  0  0  0  0  0  0
  153.7451  135.3306  192.6358 O   0  0  0  0  0  0  0  0  0  0  0  0
  152.3034  135.7334  190.9218 N   0  0  0  0  0  0  0  0  0  0  0  0
  151.2350  135.8916  191.8848 C   0  0  0  0  0  0  0  0  0  0  0  0
  152.1067  135.8569  189.5955 C   0  0  0  0  0  0  0  0  0  0  0  0
  151.0010  136.1290  188.8628 N   0  0  0  0  0  0  0  0  0  0  0  0
  151.3341  136.1426  187.5613 C   0  0  0  0  0  0  0  0  0  0  0  0
  152.6448  135.8827  187.4309 N   0  0  0  0  0  0  0  0  0  0  0  0
  153.1249  135.7067  188.6687 C   0  0  0  0  0  0  0  0  0  0  0  0
  154.3731  135.4201  189.1655 C   0  0  0  0  0  0  0  0  0  0  0  0
  155.3146  135.2784  188.3537 O   0  0  0  0  0  0  0  0  0  0  0  0
  155.8489  135.0041  190.9837 C   0  0  0  0  0  0  0  0  0  0  0  0
  156.4666  136.2457  191.5610 C   0  0  0  0  0  0  0  0  0  0  0  0
  156.8682  136.2322  192.7094 O   0  0  0  0  0  0  0  0  0  0  0  0
  156.5412  137.4172  190.6682 C   0  0  0  0  0  0  0  0  0  0  0  0
  154.8038  138.8423  190.3019 C   0  0  0  0  0  0  0  0  0  0  0  0
  155.8718  138.5186  191.0947 O   0  0  0  0  0  0  0  0  0  0  0  0
 38 39  1  0  0  0
 39 37  1  0  0  0
 37 35  1  0  0  0
 35 36  2  0  0  0
 35 34  1  0  0  0
 34 22  1  0  0  0
 22 23  1  0  0  0
 23 24  2  0  0  0
 23 25  1  0  0  0
 25 26  1  0  0  0
 25 27  1  0  0  0
 27 28  1  0  0  0
 28 29  2  0  0  0
 29 30  1  0  0  0
 30 21  1  0  0  0
 21  1  1  0  0  0
  1  2  2  0  0  0
  1  3  1  0  0  0
  3  5  1  0  0  0
  5  6  2  0  0  0
  6  7  1  0  0  0
  7  8  1  0  0  0
  8  9  2  0  0  0
  8 10  1  0  0  0
 10 11  2  0  0  0
 11 12  1  0  0  0
 12 13  2  0  0  0
 13 14  1  0  0  0
 14 15  1  0  0  0
 14 16  2  0  0  0
 13 17  1  0  0  0
 17 18  1  0  0  0
 17 19  1  0  0  0
 17 20  1  0  0  0
 30 31  1  0  0  0
 31 32  1  0  0  0
 32 33  2  0  0  0
 32 22  1  0  0  0
 31 27  2  0  0  0
  9  5  1  0  0  0
 16 10  1  0  0  0
  3  4  1  0  0  0
M  END
> <minimizedAffinity>
-8.11760

> <CNNscore>
0.3627821207

> <CNNaffinity>
6.4517302513

> <CNN_VS>
2.3405723572

> <CNNaffinity_variance>
0.3230832815

$$$$
[H]c1nc(C(F)(F)F)c(C([H])([H])[H])c([H])c1-c1nc(N([H])C(=O)C([H])([H])n2c([H])nc3c2c(=O)n(C([H])([H])C(=O)C([H])([H])OC([H])([H])[H])c(=O)n3C([H])([H])[H])c([H])s1


 39 42  0  0  0  0  0  0  0  0999 V2000
  153.4926  137.8064  185.6297 C   0  0  0  0  0  0  0  0  0  0  0  0
  153.3923  138.8555  186.3365 O   0  0  0  0  0  0  0  0  0  0  0  0
  154.2388  137.7773  184.4282 N   0  0  0  0  0  0  0  0  0  0  0  0
  154.2857  136.8936  183.8929 H   0  0  0  0  0  0  0  0  0  0  0  0
  154.9171  138.9769  183.9758 C   0  0  0  0  0  0  0  0  0  0  0  0
  154.2727  139.8664  183.1417 C   0  0  0  0  0  0  0  0  0  0  0  0
  155.4696  141.0598  182.9186 S   0  0  0  0  0  0  0  0  0  0  0  0
  156.7112  140.3669  183.8898 C   0  0  0  0  0  0  0  0  0  0  0  0
  156.1273  139.2648  184.3225 N   0  0  0  0  0  0  0  0  0  0  0  0
  158.0503  140.8868  184.1480 C   0  0  0  0  0  0  0  0  0  0  0  0
  159.0366  140.7879  183.2092 C   0  0  0  0  0  0  0  0  0  0  0  0
  160.2653  141.2897  183.5049 N   0  0  0  0  0  0  0  0  0  0  0  0
  160.5607  141.8804  184.6778 C   0  0  0  0  0  0  0  0  0  0  0  0
  159.5869  141.9944  185.6428 C   0  0  0  0  0  0  0  0  0  0  0  0
  159.8970  142.6419  186.9388 C   0  0  0  0  0  0  0  0  0  0  0  0
  158.3146  141.4804  185.3499 C   0  0  0  0  0  0  0  0  0  0  0  0
  161.9268  142.4124  184.9460 C   0  0  0  0  0  0  0  0  0  0  0  0
  162.2966  142.2396  186.2613 F   0  0  0  0  0  0  0  0  0  0  0  0
  162.8641  141.8928  184.0620 F   0  0  0  0  0  0  0  0  0  0  0  0
  161.9038  143.7847  184.6905 F   0  0  0  0  0  0  0  0  0  0  0  0
  152.7868  136.5945  186.1195 C   0  0  0  0  0  0  0  0  0  0  0  0
  156.5172  135.0846  188.1227 N   0  0  0  0  0  0  0  0  0  0  0  0
  157.0142  133.9295  187.6501 C   0  0  0  0  0  0  0  0  0  0  0  0
  158.0688  133.4128  188.1470 O   0  0  0  0  0  0  0  0  0  0  0  0
  156.3696  133.3286  186.6358 N   0  0  0  0  0  0  0  0  0  0  0  0
  156.9084  132.0845  186.1299 C   0  0  0  0  0  0  0  0  0  0  0  0
  155.2580  133.8951  186.1291 C   0  0  0  0  0  0  0  0  0  0  0  0
  154.4235  133.5227  185.1300 N   0  0  0  0  0  0  0  0  0  0  0  0
  153.4492  134.4403  185.0123 C   0  0  0  0  0  0  0  0  0  0  0  0
  153.6342  135.4103  185.9219 N   0  0  0  0  0  0  0  0  0  0  0  0
  154.7372  135.0855  186.6087 C   0  0  0  0  0  0  0  0  0  0  0  0
  155.4135  135.6806  187.6456 C   0  0  0  0  0  0  0  0  0  0  0  0
  154.9682  136.7574  188.1015 O   0  0  0  0  0  0  0  0  0  0  0  0
  157.2040  135.7331  189.2103 C   0  0  0  0  0  0  0  0  0  0  0  0
  156.5025  135.4269  190.5027 C   0  0  0  0  0  0  0  0  0  0  0  0
  156.1312  134.2896  190.7236 O   0  0  0  0  0  0  0  0  0  0  0  0
  156.3122  136.5581  191.4297 C   0  0  0  0  0  0  0  0  0  0  0  0
  155.3225  138.5862  191.1281 C   0  0  0  0  0  0  0  0  0  0  0  0
  155.1459  137.2381  191.2878 O   0  0  0  0  0  0  0  0  0  0  0  0
 38 39  1  0  0  0
 39 37  1  0  0  0
 37 35  1  0  0  0
 35 36  2  0  0  0
 35 34  1  0  0  0
 34 22  1  0  0  0
 22 23  1  0  0  0
 23 24  2  0  0  0
 23 25  1  0  0  0
 25 26  1  0  0  0
 25 27  1  0  0  0
 27 28  1  0  0  0
 28 29  2  0  0  0
 29 30  1  0  0  0
 30 21  1  0  0  0
 21  1  1  0  0  0
  1  2  2  0  0  0
  1  3  1  0  0  0
  3  5  1  0  0  0
  5  6  2  0  0  0
  6  7  1  0  0  0
  7  8  1  0  0  0
  8  9  2  0  0  0
  8 10  1  0  0  0
 10 11  2  0  0  0
 11 12  1  0  0  0
 12 13  2  0  0  0
 13 14  1  0  0  0
 14 15  1  0  0  0
 14 16  2  0  0  0
 13 17  1  0  0  0
 17 18  1  0  0  0
 17 19  1  0  0  0
 17 20  1  0  0  0
 30 31  1  0  0  0
 31 32  1  0  0  0
 32 33  2  0  0  0
 32 22  1  0  0  0
 31 27  2  0  0  0
  9  5  1  0  0  0
 16 10  1  0  0  0
  3  4  1  0  0  0
M  END
> <minimizedAffinity>
-7.81685

> <CNNscore>
0.3521033227

> <CNNaffinity>
6.6489806175

> <CNN_VS>
2.3411281109

> <CNNaffinity_variance>
0.2861275673

$$$$
[H]c1nc(N2C([H])([H])C3([H])C([H])([H])C3([H])C2([H])[H])c([H])c([H])c1-c1nc(N([H])C(=O)[C@@]([H])(n2c([H])nc3c2c(=O)n(C([H])([H])C(=O)C([H])([H])[H])c(=O)n3C([H])([H])[H])C([H])([H])[H])c([H])s1


 39 44  0  0  0  0  0  0  0  0999 V2000
  156.0115  136.3925  189.4734 C   0  0  0  0  0  0  0  0  0  0  0  0
  156.3056  137.5828  189.6431 O   0  0  0  0  0  0  0  0  0  0  0  0
  155.1883  136.0303  188.3847 N   0  0  0  0  0  0  0  0  0  0  0  0
  154.9565  135.0445  188.2608 H   0  0  0  0  0  0  0  0  0  0  0  0
  154.6804  137.0269  187.4574 C   0  0  0  0  0  0  0  0  0  0  0  0
  153.3444  137.3534  187.4397 C   0  0  0  0  0  0  0  0  0  0  0  0
  153.2912  138.5317  186.2056 S   0  0  0  0  0  0  0  0  0  0  0  0
  154.9461  138.5396  185.7911 C   0  0  0  0  0  0  0  0  0  0  0  0
  155.4520  137.6419  186.6173 N   0  0  0  0  0  0  0  0  0  0  0  0
  155.6552  139.3413  184.7652 C   0  0  0  0  0  0  0  0  0  0  0  0
  156.9709  139.6379  184.9862 C   0  0  0  0  0  0  0  0  0  0  0  0
  157.6691  140.3766  184.0621 C   0  0  0  0  0  0  0  0  0  0  0  0
  157.0101  140.8116  182.9064 C   0  0  0  0  0  0  0  0  0  0  0  0
  155.7123  140.4816  182.7553 N   0  0  0  0  0  0  0  0  0  0  0  0
  155.0064  139.7605  183.6433 C   0  0  0  0  0  0  0  0  0  0  0  0
  157.6659  141.5708  181.9168 N   0  0  0  0  0  0  0  0  0  0  0  0
  158.4195  140.9736  180.8058 C   0  0  0  0  0  0  0  0  0  0  0  0
  158.3635  142.0276  179.7163 C   0  0  0  0  0  0  0  0  0  0  0  0
  159.3548  143.1242  179.8344 C   0  0  0  0  0  0  0  0  0  0  0  0
  157.9765  143.3067  180.3636 C   0  0  0  0  0  0  0  0  0  0  0  0
  157.7090  142.9955  181.8241 C   0  0  0  0  0  0  0  0  0  0  0  0
  156.5879  136.0140  191.6657 C   0  0  0  0  0  0  0  0  0  0  0  0
  156.5308  135.3286  190.4275 C   0  0  0  0  0  0  0  0  0  0  0  0
  157.4008  134.5672  189.7060 N   0  0  0  0  0  0  0  0  0  0  0  0
  157.7993  135.0064  188.4597 C   0  0  0  0  0  0  0  0  0  0  0  0
  158.6296  134.1655  187.8990 N   0  0  0  0  0  0  0  0  0  0  0  0
  158.8251  133.1493  188.7161 C   0  0  0  0  0  0  0  0  0  0  0  0
  159.5395  132.0117  188.7120 N   0  0  0  0  0  0  0  0  0  0  0  0
  160.3630  131.7009  187.5502 C   0  0  0  0  0  0  0  0  0  0  0  0
  159.5225  131.1477  189.7427 C   0  0  0  0  0  0  0  0  0  0  0  0
  160.2193  130.0854  189.6836 O   0  0  0  0  0  0  0  0  0  0  0  0
  158.7956  131.3586  190.8421 N   0  0  0  0  0  0  0  0  0  0  0  0
  158.0526  132.5052  190.8890 C   0  0  0  0  0  0  0  0  0  0  0  0
  157.3764  132.7136  191.8975 O   0  0  0  0  0  0  0  0  0  0  0  0
  158.0464  133.4099  189.8542 C   0  0  0  0  0  0  0  0  0  0  0  0
  158.7252  130.4894  191.9719 C   0  0  0  0  0  0  0  0  0  0  0  0
  159.7239  130.7354  193.0045 C   0  0  0  0  0  0  0  0  0  0  0  0
  159.3344  131.3658  194.2867 C   0  0  0  0  0  0  0  0  0  0  0  0
  160.8829  130.4305  192.8331 O   0  0  0  0  0  0  0  0  0  0  0  0
 22 23  1  0  0  0
 23  1  1  0  0  0
  1  2  2  0  0  0
  1  3  1  0  0  0
  3  5  1  0  0  0
  5  6  2  0  0  0
  6  7  1  0  0  0
  7  8  1  0  0  0
  8  9  2  0  0  0
  8 10  1  0  0  0
 10 11  2  0  0  0
 11 12  1  0  0  0
 12 13  2  0  0  0
 13 14  1  0  0  0
 14 15  2  0  0  0
 13 16  1  0  0  0
 16 17  1  0  0  0
 17 18  1  0  0  0
 18 19  1  0  0  0
 19 20  1  0  0  0
 20 21  1  0  0  0
 23 24  1  0  0  0
 24 25  1  0  0  0
 25 26  2  0  0  0
 26 27  1  0  0  0
 27 28  1  0  0  0
 28 29  1  0  0  0
 28 30  1  0  0  0
 30 31  2  0  0  0
 30 32  1  0  0  0
 32 36  1  0  0  0
 36 37  1  0  0  0
 37 38  1  0  0  0
 37 39  2  0  0  0
 32 33  1  0  0  0
 33 34  2  0  0  0
 33 35  1  0  0  0
  9  5  1  0  0  0
 15 10  1  0  0  0
 21 16  1  0  0  0
 35 24  1  0  0  0
 20 18  1  0  0  0
 35 27  2  0  0  0
  3  4  1  0  0  0
M  END
> <minimizedAffinity>
-8.00872

> <CNNscore>
0.3614004254

> <CNNaffinity>
6.3577871323

> <CNN_VS>
2.2977070808

> <CNNaffinity_variance>
0.0314547643

$$$$
[H]c1nc(N2C([H])([H])C3([H])C([H])([H])C3([H])C2([H])[H])c([H])c([H])c1-c1nc(N([H])C(=O)[C@@]([H])(n2c([H])nc3c2c(=O)n(C([H])([H])C(=O)C([H])([H])[H])c(=O)n3C([H])([H])[H])C([H])([H])[H])c([H])s1


 39 44  0  0  0  0  0  0  0  0999 V2000
  155.4785  137.8917  187.5877 C   0  0  0  0  0  0  0  0  0  0  0  0
  154.4222  138.5191  187.7389 O   0  0  0  0  0  0  0  0  0  0  0  0
  156.1412  137.9403  186.3417 N   0  0  0  0  0  0  0  0  0  0  0  0
  157.0105  137.4169  186.2356 H   0  0  0  0  0  0  0  0  0  0  0  0
  155.6092  138.7138  185.2328 C   0  0  0  0  0  0  0  0  0  0  0  0
  156.2782  139.8200  184.7632 C   0  0  0  0  0  0  0  0  0  0  0  0
  155.2511  140.3375  183.5016 S   0  0  0  0  0  0  0  0  0  0  0  0
  154.0495  139.1348  183.6436 C   0  0  0  0  0  0  0  0  0  0  0  0
  154.4962  138.4013  184.6470 N   0  0  0  0  0  0  0  0  0  0  0  0
  152.8098  138.9455  182.8527 C   0  0  0  0  0  0  0  0  0  0  0  0
  152.0160  137.8761  183.1594 C   0  0  0  0  0  0  0  0  0  0  0  0
  150.8564  137.6618  182.4546 C   0  0  0  0  0  0  0  0  0  0  0  0
  150.5132  138.5519  181.4304 C   0  0  0  0  0  0  0  0  0  0  0  0
  151.3436  139.5841  181.1837 N   0  0  0  0  0  0  0  0  0  0  0  0
  152.4831  139.8165  181.8577 C   0  0  0  0  0  0  0  0  0  0  0  0
  149.3378  138.3932  180.6692 N   0  0  0  0  0  0  0  0  0  0  0  0
  149.1329  137.2931  179.7170 C   0  0  0  0  0  0  0  0  0  0  0  0
  147.6254  137.1351  179.6582 C   0  0  0  0  0  0  0  0  0  0  0  0
  146.9169  138.0795  178.7606 C   0  0  0  0  0  0  0  0  0  0  0  0
  147.0325  138.3782  180.2134 C   0  0  0  0  0  0  0  0  0  0  0  0
  148.1869  139.2388  180.6913 C   0  0  0  0  0  0  0  0  0  0  0  0
  156.6450  135.9706  188.0676 C   0  0  0  0  0  0  0  0  0  0  0  0
  156.0587  137.0757  188.7319 C   0  0  0  0  0  0  0  0  0  0  0  0
  155.1973  137.2260  189.7771 N   0  0  0  0  0  0  0  0  0  0  0  0
  155.5182  138.1107  190.7865 C   0  0  0  0  0  0  0  0  0  0  0  0
  154.5938  138.1372  191.7116 N   0  0  0  0  0  0  0  0  0  0  0  0
  153.6336  137.2964  191.3800 C   0  0  0  0  0  0  0  0  0  0  0  0
  152.4631  136.8910  191.8996 N   0  0  0  0  0  0  0  0  0  0  0  0
  152.0207  137.4583  193.1673 C   0  0  0  0  0  0  0  0  0  0  0  0
  151.6834  135.9792  191.2918 C   0  0  0  0  0  0  0  0  0  0  0  0
  150.5846  135.6328  191.8306 O   0  0  0  0  0  0  0  0  0  0  0  0
  152.0162  135.4126  190.1299 N   0  0  0  0  0  0  0  0  0  0  0  0
  153.2003  135.7964  189.5647 C   0  0  0  0  0  0  0  0  0  0  0  0
  153.5210  135.2821  188.4922 O   0  0  0  0  0  0  0  0  0  0  0  0
  154.0215  136.7253  190.1581 C   0  0  0  0  0  0  0  0  0  0  0  0
  151.2439  134.4392  189.4280 C   0  0  0  0  0  0  0  0  0  0  0  0
  150.0717  134.9611  188.7367 C   0  0  0  0  0  0  0  0  0  0  0  0
  150.2289  135.7998  187.5264 C   0  0  0  0  0  0  0  0  0  0  0  0
  148.9552  134.7195  189.1377 O   0  0  0  0  0  0  0  0  0  0  0  0
 22 23  1  0  0  0
 23  1  1  0  0  0
  1  2  2  0  0  0
  1  3  1  0  0  0
  3  5  1  0  0  0
  5  6  2  0  0  0
  6  7  1  0  0  0
  7  8  1  0  0  0
  8  9  2  0  0  0
  8 10  1  0  0  0
 10 11  2  0  0  0
 11 12  1  0  0  0
 12 13  2  0  0  0
 13 14  1  0  0  0
 14 15  2  0  0  0
 13 16  1  0  0  0
 16 17  1  0  0  0
 17 18  1  0  0  0
 18 19  1  0  0  0
 19 20  1  0  0  0
 20 21  1  0  0  0
 23 24  1  0  0  0
 24 25  1  0  0  0
 25 26  2  0  0  0
 26 27  1  0  0  0
 27 28  1  0  0  0
 28 29  1  0  0  0
 28 30  1  0  0  0
 30 31  2  0  0  0
 30 32  1  0  0  0
 32 36  1  0  0  0
 36 37  1  0  0  0
 37 38  1  0  0  0
 37 39  2  0  0  0
 32 33  1  0  0  0
 33 34  2  0  0  0
 33 35  1  0  0  0
  9  5  1  0  0  0
 15 10  1  0  0  0
 21 16  1  0  0  0
 35 24  1  0  0  0
 20 18  1  0  0  0
 35 27  2  0  0  0
  3  4  1  0  0  0
M  END
> <minimizedAffinity>
-6.52192

> <CNNscore>
0.3159610927

> <CNNaffinity>
6.1005063057

> <CNN_VS>
1.9275226593

> <CNNaffinity_variance>
0.2811600268

$$$$
[H]c1nc(N2C([H])([H])C3([H])C([H])([H])C3([H])C2([H])[H])c([H])c([H])c1-c1nc(N([H])C(=O)[C@@]([H])(n2c([H])nc3c2c(=O)n(C([H])([H])C(=O)C([H])([H])[H])c(=O)n3C([H])([H])[H])C([H])([H])[H])c([H])s1


 39 44  0  0  0  0  0  0  0  0999 V2000
  154.4024  137.7227  189.1417 C   0  0  0  0  0  0  0  0  0  0  0  0
  155.5096  137.7658  188.5898 O   0  0  0  0  0  0  0  0  0  0  0  0
  153.2324  137.7636  188.3522 N   0  0  0  0  0  0  0  0  0  0  0  0
  152.3288  137.7271  188.8245 H   0  0  0  0  0  0  0  0  0  0  0  0
  153.3013  137.8534  186.9037 C   0  0  0  0  0  0  0  0  0  0  0  0
  152.4605  137.1056  186.1129 C   0  0  0  0  0  0  0  0  0  0  0  0
  152.9489  137.5747  184.5458 S   0  0  0  0  0  0  0  0  0  0  0  0
  154.1752  138.6776  184.9821 C   0  0  0  0  0  0  0  0  0  0  0  0
  154.1468  138.6295  186.3017 N   0  0  0  0  0  0  0  0  0  0  0  0
  155.0608  139.4912  184.1150 C   0  0  0  0  0  0  0  0  0  0  0  0
  156.3801  139.5828  184.4597 C   0  0  0  0  0  0  0  0  0  0  0  0
  157.2388  140.3241  183.6849 C   0  0  0  0  0  0  0  0  0  0  0  0
  156.7369  140.9735  182.5511 C   0  0  0  0  0  0  0  0  0  0  0  0
  155.4254  140.8385  182.2725 N   0  0  0  0  0  0  0  0  0  0  0  0
  154.5643  140.1199  183.0134 C   0  0  0  0  0  0  0  0  0  0  0  0
  157.5616  141.7482  181.7109 N   0  0  0  0  0  0  0  0  0  0  0  0
  158.0734  141.2733  180.4181 C   0  0  0  0  0  0  0  0  0  0  0  0
  158.3035  142.5458  179.6251 C   0  0  0  0  0  0  0  0  0  0  0  0
  159.5786  143.2509  179.9011 C   0  0  0  0  0  0  0  0  0  0  0  0
  158.3315  143.6685  180.5965 C   0  0  0  0  0  0  0  0  0  0  0  0
  158.0233  143.0769  181.9590 C   0  0  0  0  0  0  0  0  0  0  0  0
  155.2104  138.6188  191.0977 C   0  0  0  0  0  0  0  0  0  0  0  0
  154.3012  137.6267  190.6558 C   0  0  0  0  0  0  0  0  0  0  0  0
  154.1008  136.3085  190.9375 N   0  0  0  0  0  0  0  0  0  0  0  0
  152.8286  135.8785  191.2558 C   0  0  0  0  0  0  0  0  0  0  0  0
  152.8048  134.5937  191.5003 N   0  0  0  0  0  0  0  0  0  0  0  0
  154.0238  134.1101  191.3624 C   0  0  0  0  0  0  0  0  0  0  0  0
  154.6217  132.9126  191.4751 N   0  0  0  0  0  0  0  0  0  0  0  0
  153.8162  131.7545  191.8417 C   0  0  0  0  0  0  0  0  0  0  0  0
  155.9388  132.7430  191.2614 C   0  0  0  0  0  0  0  0  0  0  0  0
  156.4510  131.5852  191.3827 O   0  0  0  0  0  0  0  0  0  0  0  0
  156.7450  133.7513  190.9225 N   0  0  0  0  0  0  0  0  0  0  0  0
  156.1781  134.9889  190.7964 C   0  0  0  0  0  0  0  0  0  0  0  0
  156.9097  135.9294  190.4840 O   0  0  0  0  0  0  0  0  0  0  0  0
  154.8360  135.1982  191.0072 C   0  0  0  0  0  0  0  0  0  0  0  0
  158.1482  133.6494  190.6825 C   0  0  0  0  0  0  0  0  0  0  0  0
  158.5201  133.3569  189.3040 C   0  0  0  0  0  0  0  0  0  0  0  0
  159.2096  134.3781  188.4825 C   0  0  0  0  0  0  0  0  0  0  0  0
  158.2733  132.2800  188.8090 O   0  0  0  0  0  0  0  0  0  0  0  0
 22 23  1  0  0  0
 23  1  1  0  0  0
  1  2  2  0  0  0
  1  3  1  0  0  0
  3  5  1  0  0  0
  5  6  2  0  0  0
  6  7  1  0  0  0
  7  8  1  0  0  0
  8  9  2  0  0  0
  8 10  1  0  0  0
 10 11  2  0  0  0
 11 12  1  0  0  0
 12 13  2  0  0  0
 13 14  1  0  0  0
 14 15  2  0  0  0
 13 16  1  0  0  0
 16 17  1  0  0  0
 17 18  1  0  0  0
 18 19  1  0  0  0
 19 20  1  0  0  0
 20 21  1  0  0  0
 23 24  1  0  0  0
 24 25  1  0  0  0
 25 26  2  0  0  0
 26 27  1  0  0  0
 27 28  1  0  0  0
 28 29  1  0  0  0
 28 30  1  0  0  0
 30 31  2  0  0  0
 30 32  1  0  0  0
 32 36  1  0  0  0
 36 37  1  0  0  0
 37 38  1  0  0  0
 37 39  2  0  0  0
 32 33  1  0  0  0
 33 34  2  0  0  0
 33 35  1  0  0  0
  9  5  1  0  0  0
 15 10  1  0  0  0
 21 16  1  0  0  0
 35 24  1  0  0  0
 20 18  1  0  0  0
 35 27  2  0  0  0
  3  4  1  0  0  0
M  END
> <minimizedAffinity>
-8.35523

> <CNNscore>
0.2690527737

> <CNNaffinity>
6.3747367859

> <CNN_VS>
1.7151405811

> <CNNaffinity_variance>
0.1685575396

$$$$
[H]c1nc(N2C([H])([H])C3([H])C([H])([H])C3([H])C2([H])[H])c([H])c([H])c1-c1nc(N([H])C(=O)[C@@]([H])(n2c([H])nc3c2c(=O)n(C([H])([H])C(=O)C([H])([H])[H])c(=O)n3C([H])([H])[H])C([H])([H])[H])c([H])s1


 39 44  0  0  0  0  0  0  0  0999 V2000
  155.0956  137.9235  188.4751 C   0  0  0  0  0  0  0  0  0  0  0  0
  154.0976  138.6467  188.3607 O   0  0  0  0  0  0  0  0  0  0  0  0
  155.9366  137.7212  187.3589 N   0  0  0  0  0  0  0  0  0  0  0  0
  156.7545  137.1219  187.4720 H   0  0  0  0  0  0  0  0  0  0  0  0
  155.6553  138.3465  186.0780 C   0  0  0  0  0  0  0  0  0  0  0  0
  156.5167  139.2781  185.5470 C   0  0  0  0  0  0  0  0  0  0  0  0
  155.7349  139.6797  184.0836 S   0  0  0  0  0  0  0  0  0  0  0  0
  154.3791  138.6547  184.2309 C   0  0  0  0  0  0  0  0  0  0  0  0
  154.5951  138.0597  185.3901 N   0  0  0  0  0  0  0  0  0  0  0  0
  153.2364  138.4672  183.3050 C   0  0  0  0  0  0  0  0  0  0  0  0
  153.0356  139.4152  182.3413 C   0  0  0  0  0  0  0  0  0  0  0  0
  151.9905  139.2824  181.4597 C   0  0  0  0  0  0  0  0  0  0  0  0
  151.1491  138.1694  181.5710 C   0  0  0  0  0  0  0  0  0  0  0  0
  151.4075  137.2751  182.5454 N   0  0  0  0  0  0  0  0  0  0  0  0
  152.4224  137.3811  183.4203 C   0  0  0  0  0  0  0  0  0  0  0  0
  150.0601  137.9694  180.6991 N   0  0  0  0  0  0  0  0  0  0  0  0
  148.9878  136.9976  180.9536 C   0  0  0  0  0  0  0  0  0  0  0  0
  147.7977  137.5590  180.1989 C   0  0  0  0  0  0  0  0  0  0  0  0
  147.7608  137.2598  178.7468 C   0  0  0  0  0  0  0  0  0  0  0  0
  148.3233  138.5506  179.2267 C   0  0  0  0  0  0  0  0  0  0  0  0
  149.8179  138.6503  179.4671 C   0  0  0  0  0  0  0  0  0  0  0  0
  156.7300  137.7082  190.0764 C   0  0  0  0  0  0  0  0  0  0  0  0
  155.4148  137.2582  189.8045 C   0  0  0  0  0  0  0  0  0  0  0  0
  154.7982  136.0432  189.7758 N   0  0  0  0  0  0  0  0  0  0  0  0
  155.4312  134.9864  189.1536 C   0  0  0  0  0  0  0  0  0  0  0  0
  154.7107  133.8961  189.2109 N   0  0  0  0  0  0  0  0  0  0  0  0
  153.5906  134.1579  189.8556 C   0  0  0  0  0  0  0  0  0  0  0  0
  152.4900  133.4809  190.2229 N   0  0  0  0  0  0  0  0  0  0  0  0
  152.3829  132.0690  189.8770 C   0  0  0  0  0  0  0  0  0  0  0  0
  151.4817  134.0595  190.8992 C   0  0  0  0  0  0  0  0  0  0  0  0
  150.4631  133.3692  191.2208 O   0  0  0  0  0  0  0  0  0  0  0  0
  151.5024  135.3462  191.2536 N   0  0  0  0  0  0  0  0  0  0  0  0
  152.6046  136.0736  190.9000 C   0  0  0  0  0  0  0  0  0  0  0  0
  152.6381  137.2627  191.2203 O   0  0  0  0  0  0  0  0  0  0  0  0
  153.6531  135.5146  190.2089 C   0  0  0  0  0  0  0  0  0  0  0  0
  150.4724  136.0288  191.9678 C   0  0  0  0  0  0  0  0  0  0  0  0
  150.4559  135.7923  193.4058 C   0  0  0  0  0  0  0  0  0  0  0  0
  151.7250  135.6334  194.1523 C   0  0  0  0  0  0  0  0  0  0  0  0
  149.4102  135.7219  194.0119 O   0  0  0  0  0  0  0  0  0  0  0  0
 22 23  1  0  0  0
 23  1  1  0  0  0
  1  2  2  0  0  0
  1  3  1  0  0  0
  3  5  1  0  0  0
  5  6  2  0  0  0
  6  7  1  0  0  0
  7  8  1  0  0  0
  8  9  2  0  0  0
  8 10  1  0  0  0
 10 11  2  0  0  0
 11 12  1  0  0  0
 12 13  2  0  0  0
 13 14  1  0  0  0
 14 15  2  0  0  0
 13 16  1  0  0  0
 16 17  1  0  0  0
 17 18  1  0  0  0
 18 19  1  0  0  0
 19 20  1  0  0  0
 20 21  1  0  0  0
 23 24  1  0  0  0
 24 25  1  0  0  0
 25 26  2  0  0  0
 26 27  1  0  0  0
 27 28  1  0  0  0
 28 29  1  0  0  0
 28 30  1  0  0  0
 30 31  2  0  0  0
 30 32  1  0  0  0
 32 36  1  0  0  0
 36 37  1  0  0  0
 37 38  1  0  0  0
 37 39  2  0  0  0
 32 33  1  0  0  0
 33 34  2  0  0  0
 33 35  1  0  0  0
  9  5  1  0  0  0
 15 10  1  0  0  0
 21 16  1  0  0  0
 35 24  1  0  0  0
 20 18  1  0  0  0
 35 27  2  0  0  0
  3  4  1  0  0  0
M  END
> <minimizedAffinity>
-6.91407

> <CNNscore>
0.2494688928

> <CNNaffinity>
5.9073762894

> <CNN_VS>
1.4737066031

> <CNNaffinity_variance>
0.1517110765

$$$$
[H]c1nc(N2C([H])([H])C3([H])C([H])([H])C3([H])C2([H])[H])c([H])c([H])c1-c1nc(N([H])C(=O)[C@@]([H])(n2c([H])nc3c2c(=O)n(C([H])([H])C(=O)C([H])([H])[H])c(=O)n3C([H])([H])[H])C([H])([H])[H])c([H])s1


 39 44  0  0  0  0  0  0  0  0999 V2000
  154.4468  137.9079  189.2455 C   0  0  0  0  0  0  0  0  0  0  0  0
  155.5272  138.0931  188.6706 O   0  0  0  0  0  0  0  0  0  0  0  0
  153.2663  137.7866  188.4801 N   0  0  0  0  0  0  0  0  0  0  0  0
  152.3852  137.6342  188.9713 H   0  0  0  0  0  0  0  0  0  0  0  0
  153.2940  137.8730  187.0301 C   0  0  0  0  0  0  0  0  0  0  0  0
  152.4143  137.1421  186.2661 C   0  0  0  0  0  0  0  0  0  0  0  0
  152.8658  137.5986  184.6843 S   0  0  0  0  0  0  0  0  0  0  0  0
  154.1276  138.6758  185.0818 C   0  0  0  0  0  0  0  0  0  0  0  0
  154.1374  138.6301  186.4017 N   0  0  0  0  0  0  0  0  0  0  0  0
  155.0040  139.4693  184.1871 C   0  0  0  0  0  0  0  0  0  0  0  0
  156.3454  139.4727  184.4490 C   0  0  0  0  0  0  0  0  0  0  0  0
  157.1964  140.1922  183.6456 C   0  0  0  0  0  0  0  0  0  0  0  0
  156.6641  140.9107  182.5689 C   0  0  0  0  0  0  0  0  0  0  0  0
  155.3321  140.8611  182.3710 N   0  0  0  0  0  0  0  0  0  0  0  0
  154.4779  140.1657  183.1414 C   0  0  0  0  0  0  0  0  0  0  0  0
  157.4793  141.6678  181.7038 N   0  0  0  0  0  0  0  0  0  0  0  0
  158.2330  141.0846  180.5854 C   0  0  0  0  0  0  0  0  0  0  0  0
  158.3872  142.2344  179.6080 C   0  0  0  0  0  0  0  0  0  0  0  0
  159.4947  143.1772  179.8977 C   0  0  0  0  0  0  0  0  0  0  0  0
  158.1143  143.4866  180.3580 C   0  0  0  0  0  0  0  0  0  0  0  0
  157.7041  143.0772  181.7600 C   0  0  0  0  0  0  0  0  0  0  0  0
  155.1350  138.9409  191.1796 C   0  0  0  0  0  0  0  0  0  0  0  0
  154.3893  137.8115  190.7618 C   0  0  0  0  0  0  0  0  0  0  0  0
  154.4082  136.4811  191.0562 N   0  0  0  0  0  0  0  0  0  0  0  0
  155.6246  135.8441  191.1958 C   0  0  0  0  0  0  0  0  0  0  0  0
  155.4712  134.5754  191.4746 N   0  0  0  0  0  0  0  0  0  0  0  0
  154.1822  134.3042  191.5349 C   0  0  0  0  0  0  0  0  0  0  0  0
  153.4176  133.2253  191.7714 N   0  0  0  0  0  0  0  0  0  0  0  0
  154.0656  131.9502  192.0517 C   0  0  0  0  0  0  0  0  0  0  0  0
  152.0738  133.2791  191.7590 C   0  0  0  0  0  0  0  0  0  0  0  0
  151.4006  132.2251  191.9900 O   0  0  0  0  0  0  0  0  0  0  0  0
  151.4044  134.4070  191.5111 N   0  0  0  0  0  0  0  0  0  0  0  0
  152.1434  135.5305  191.2649 C   0  0  0  0  0  0  0  0  0  0  0  0
  151.5395  136.5791  191.0345 O   0  0  0  0  0  0  0  0  0  0  0  0
  153.5178  135.5116  191.2697 C   0  0  0  0  0  0  0  0  0  0  0  0
  149.9839  134.5409  191.4787 C   0  0  0  0  0  0  0  0  0  0  0  0
  149.3396  134.6131  192.7840 C   0  0  0  0  0  0  0  0  0  0  0  0
  148.5206  133.4824  193.2775 C   0  0  0  0  0  0  0  0  0  0  0  0
  149.4621  135.5935  193.4839 O   0  0  0  0  0  0  0  0  0  0  0  0
 22 23  1  0  0  0
 23  1  1  0  0  0
  1  2  2  0  0  0
  1  3  1  0  0  0
  3  5  1  0  0  0
  5  6  2  0  0  0
  6  7  1  0  0  0
  7  8  1  0  0  0
  8  9  2  0  0  0
  8 10  1  0  0  0
 10 11  2  0  0  0
 11 12  1  0  0  0
 12 13  2  0  0  0
 13 14  1  0  0  0
 14 15  2  0  0  0
 13 16  1  0  0  0
 16 17  1  0  0  0
 17 18  1  0  0  0
 18 19  1  0  0  0
 19 20  1  0  0  0
 20 21  1  0  0  0
 23 24  1  0  0  0
 24 25  1  0  0  0
 25 26  2  0  0  0
 26 27  1  0  0  0
 27 28  1  0  0  0
 28 29  1  0  0  0
 28 30  1  0  0  0
 30 31  2  0  0  0
 30 32  1  0  0  0
 32 36  1  0  0  0
 36 37  1  0  0  0
 37 38  1  0  0  0
 37 39  2  0  0  0
 32 33  1  0  0  0
 33 34  2  0  0  0
 33 35  1  0  0  0
  9  5  1  0  0  0
 15 10  1  0  0  0
 21 16  1  0  0  0
 35 24  1  0  0  0
 20 18  1  0  0  0
 35 27  2  0  0  0
  3  4  1  0  0  0
M  END
> <minimizedAffinity>
-8.52237

> <CNNscore>
0.2098970115

> <CNNaffinity>
6.1408357620

> <CNN_VS>
1.2889430523

> <CNNaffinity_variance>
0.0924652070

$$$$
[H]c1nc(N2C([H])([H])C3([H])C([H])([H])C3([H])C2([H])[H])c([H])c([H])c1-c1nc(N([H])C(=O)[C@@]([H])(n2c([H])nc3c2c(=O)n(C([H])([H])C(=O)C([H])([H])[H])c(=O)n3C([H])([H])[H])C([H])([H])[H])c([H])s1


 39 44  0  0  0  0  0  0  0  0999 V2000
  155.1030  137.9957  188.3551 C   0  0  0  0  0  0  0  0  0  0  0  0
  154.0168  138.5523  188.1489 O   0  0  0  0  0  0  0  0  0  0  0  0
  156.0608  137.9396  187.3190 N   0  0  0  0  0  0  0  0  0  0  0  0
  156.9503  137.4768  187.5073 H   0  0  0  0  0  0  0  0  0  0  0  0
  155.7980  138.5240  186.0150 C   0  0  0  0  0  0  0  0  0  0  0  0
  156.7161  139.3587  185.4216 C   0  0  0  0  0  0  0  0  0  0  0  0
  155.9328  139.7512  183.9565 S   0  0  0  0  0  0  0  0  0  0  0  0
  154.5053  138.8444  184.1815 C   0  0  0  0  0  0  0  0  0  0  0  0
  154.7024  138.2895  185.3638 N   0  0  0  0  0  0  0  0  0  0  0  0
  153.3294  138.7040  183.2894 C   0  0  0  0  0  0  0  0  0  0  0  0
  153.0919  139.7027  182.3872 C   0  0  0  0  0  0  0  0  0  0  0  0
  152.0151  139.6148  181.5387 C   0  0  0  0  0  0  0  0  0  0  0  0
  151.1799  138.4946  181.6197 C   0  0  0  0  0  0  0  0  0  0  0  0
  151.4753  137.5491  182.5334 N   0  0  0  0  0  0  0  0  0  0  0  0
  152.5217  137.6105  183.3748 C   0  0  0  0  0  0  0  0  0  0  0  0
  150.0597  138.3390  180.7789 N   0  0  0  0  0  0  0  0  0  0  0  0
  149.7300  139.2688  179.6900 C   0  0  0  0  0  0  0  0  0  0  0  0
  148.9373  138.4222  178.7124 C   0  0  0  0  0  0  0  0  0  0  0  0
  147.5002  138.2479  179.0346 C   0  0  0  0  0  0  0  0  0  0  0  0
  148.4861  137.2125  179.4459 C   0  0  0  0  0  0  0  0  0  0  0  0
  149.0901  137.2918  180.8353 C   0  0  0  0  0  0  0  0  0  0  0  0
  156.6106  138.0172  190.0895 C   0  0  0  0  0  0  0  0  0  0  0  0
  155.4050  137.3774  189.7110 C   0  0  0  0  0  0  0  0  0  0  0  0
  154.9813  136.0842  189.6385 N   0  0  0  0  0  0  0  0  0  0  0  0
  153.7866  135.7372  190.2360 C   0  0  0  0  0  0  0  0  0  0  0  0
  153.5245  134.4653  190.0789 N   0  0  0  0  0  0  0  0  0  0  0  0
  154.5011  133.9103  189.3881 C   0  0  0  0  0  0  0  0  0  0  0  0
  154.7999  132.6858  188.9236 N   0  0  0  0  0  0  0  0  0  0  0  0
  153.8770  131.5884  189.1848 C   0  0  0  0  0  0  0  0  0  0  0  0
  155.9216  132.4353  188.2249 C   0  0  0  0  0  0  0  0  0  0  0  0
  156.1529  131.2557  187.8097 O   0  0  0  0  0  0  0  0  0  0  0  0
  156.8170  133.3844  187.9434 N   0  0  0  0  0  0  0  0  0  0  0  0
  156.5527  134.6466  188.3973 C   0  0  0  0  0  0  0  0  0  0  0  0
  157.3700  135.5331  188.1452 O   0  0  0  0  0  0  0  0  0  0  0  0
  155.4165  134.9380  189.1139 C   0  0  0  0  0  0  0  0  0  0  0  0
  158.0275  133.1948  187.2116 C   0  0  0  0  0  0  0  0  0  0  0  0
  159.1997  132.8923  188.0230 C   0  0  0  0  0  0  0  0  0  0  0  0
  159.0681  132.7017  189.4857 C   0  0  0  0  0  0  0  0  0  0  0  0
  160.2957  132.7922  187.5183 O   0  0  0  0  0  0  0  0  0  0  0  0
 22 23  1  0  0  0
 23  1  1  0  0  0
  1  2  2  0  0  0
  1  3  1  0  0  0
  3  5  1  0  0  0
  5  6  2  0  0  0
  6  7  1  0  0  0
  7  8  1  0  0  0
  8  9  2  0  0  0
  8 10  1  0  0  0
 10 11  2  0  0  0
 11 12  1  0  0  0
 12 13  2  0  0  0
 13 14  1  0  0  0
 14 15  2  0  0  0
 13 16  1  0  0  0
 16 17  1  0  0  0
 17 18  1  0  0  0
 18 19  1  0  0  0
 19 20  1  0  0  0
 20 21  1  0  0  0
 23 24  1  0  0  0
 24 25  1  0  0  0
 25 26  2  0  0  0
 26 27  1  0  0  0
 27 28  1  0  0  0
 28 29  1  0  0  0
 28 30  1  0  0  0
 30 31  2  0  0  0
 30 32  1  0  0  0
 32 36  1  0  0  0
 36 37  1  0  0  0
 37 38  1  0  0  0
 37 39  2  0  0  0
 32 33  1  0  0  0
 33 34  2  0  0  0
 33 35  1  0  0  0
  9  5  1  0  0  0
 15 10  1  0  0  0
 21 16  1  0  0  0
 35 24  1  0  0  0
 20 18  1  0  0  0
 35 27  2  0  0  0
  3  4  1  0  0  0
M  END
> <minimizedAffinity>
-6.81423

> <CNNscore>
0.1922855228

> <CNNaffinity>
5.9123392105

> <CNN_VS>
1.1368572712

> <CNNaffinity_variance>
0.1303306669

$$$$
[H]c1nc(N2C([H])([H])C3([H])C([H])([H])C3([H])C2([H])[H])c([H])c([H])c1-c1nc(N([H])C(=O)[C@@]([H])(n2c([H])nc3c2c(=O)n(C([H])([H])C(=O)C([H])([H])[H])c(=O)n3C([H])([H])[H])C([H])([H])[H])c([H])s1


 39 44  0  0  0  0  0  0  0  0999 V2000
  151.2313  136.3594  185.6362 C   0  0  0  0  0  0  0  0  0  0  0  0
  150.8052  137.4687  185.9827 O   0  0  0  0  0  0  0  0  0  0  0  0
  152.2339  136.2807  184.6450 N   0  0  0  0  0  0  0  0  0  0  0  0
  152.5729  135.3579  184.3722 H   0  0  0  0  0  0  0  0  0  0  0  0
  152.7777  137.4764  184.0240 C   0  0  0  0  0  0  0  0  0  0  0  0
  152.1335  138.0730  182.9654 C   0  0  0  0  0  0  0  0  0  0  0  0
  153.1647  139.3914  182.6296 S   0  0  0  0  0  0  0  0  0  0  0  0
  154.3368  139.1104  183.8370 C   0  0  0  0  0  0  0  0  0  0  0  0
  153.8786  138.0245  184.4331 N   0  0  0  0  0  0  0  0  0  0  0  0
  155.5660  139.8773  184.1516 C   0  0  0  0  0  0  0  0  0  0  0  0
  156.5311  139.2567  184.8941 C   0  0  0  0  0  0  0  0  0  0  0  0
  157.6880  139.9276  185.2084 C   0  0  0  0  0  0  0  0  0  0  0  0
  157.8515  141.2422  184.7566 C   0  0  0  0  0  0  0  0  0  0  0  0
  156.8581  141.7901  184.0293 N   0  0  0  0  0  0  0  0  0  0  0  0
  155.7171  141.1563  183.7080 C   0  0  0  0  0  0  0  0  0  0  0  0
  159.0132  141.9878  185.0405 N   0  0  0  0  0  0  0  0  0  0  0  0
  159.5544  142.1577  186.3959 C   0  0  0  0  0  0  0  0  0  0  0  0
  161.0335  142.4090  186.1712 C   0  0  0  0  0  0  0  0  0  0  0  0
  161.4006  143.8025  185.8210 C   0  0  0  0  0  0  0  0  0  0  0  0
  161.2013  142.7930  184.7467 C   0  0  0  0  0  0  0  0  0  0  0  0
  159.8346  142.6785  184.0980 C   0  0  0  0  0  0  0  0  0  0  0  0
  149.8166  134.5857  185.2698 C   0  0  0  0  0  0  0  0  0  0  0  0
  150.6813  135.0919  186.2709 C   0  0  0  0  0  0  0  0  0  0  0  0
  150.5636  135.3573  187.6024 N   0  0  0  0  0  0  0  0  0  0  0  0
  149.3090  135.3509  188.1773 C   0  0  0  0  0  0  0  0  0  0  0  0
  149.3667  135.6248  189.4551 N   0  0  0  0  0  0  0  0  0  0  0  0
  150.6259  135.8229  189.7929 C   0  0  0  0  0  0  0  0  0  0  0  0
  151.3043  136.1270  190.9117 N   0  0  0  0  0  0  0  0  0  0  0  0
  150.5663  136.3128  192.1548 C   0  0  0  0  0  0  0  0  0  0  0  0
  152.6419  136.2665  190.9265 C   0  0  0  0  0  0  0  0  0  0  0  0
  153.2315  136.5555  192.0158 O   0  0  0  0  0  0  0  0  0  0  0  0
  153.3902  136.1129  189.8320 N   0  0  0  0  0  0  0  0  0  0  0  0
  152.7405  135.8024  188.6699 C   0  0  0  0  0  0  0  0  0  0  0  0
  153.4179  135.6575  187.6512 O   0  0  0  0  0  0  0  0  0  0  0  0
  151.3751  135.6523  188.6185 C   0  0  0  0  0  0  0  0  0  0  0  0
  154.8097  136.2469  189.7695 C   0  0  0  0  0  0  0  0  0  0  0  0
  155.3021  137.6186  189.7724 C   0  0  0  0  0  0  0  0  0  0  0  0
  156.2046  138.0871  190.8489 C   0  0  0  0  0  0  0  0  0  0  0  0
  154.9836  138.3948  188.8995 O   0  0  0  0  0  0  0  0  0  0  0  0
 22 23  1  0  0  0
 23  1  1  0  0  0
  1  2  2  0  0  0
  1  3  1  0  0  0
  3  5  1  0  0  0
  5  6  2  0  0  0
  6  7  1  0  0  0
  7  8  1  0  0  0
  8  9  2  0  0  0
  8 10  1  0  0  0
 10 11  2  0  0  0
 11 12  1  0  0  0
 12 13  2  0  0  0
 13 14  1  0  0  0
 14 15  2  0  0  0
 13 16  1  0  0  0
 16 17  1  0  0  0
 17 18  1  0  0  0
 18 19  1  0  0  0
 19 20  1  0  0  0
 20 21  1  0  0  0
 23 24  1  0  0  0
 24 25  1  0  0  0
 25 26  2  0  0  0
 26 27  1  0  0  0
 27 28  1  0  0  0
 28 29  1  0  0  0
 28 30  1  0  0  0
 30 31  2  0  0  0
 30 32  1  0  0  0
 32 36  1  0  0  0
 36 37  1  0  0  0
 37 38  1  0  0  0
 37 39  2  0  0  0
 32 33  1  0  0  0
 33 34  2  0  0  0
 33 35  1  0  0  0
  9  5  1  0  0  0
 15 10  1  0  0  0
 21 16  1  0  0  0
 35 24  1  0  0  0
 20 18  1  0  0  0
 35 27  2  0  0  0
  3  4  1  0  0  0
M  END
> <minimizedAffinity>
-7.82934

> <CNNscore>
0.1729932874

> <CNNaffinity>
6.1359376907

> <CNN_VS>
1.0614759922

> <CNNaffinity_variance>
0.3646944463

$$$$
[H]c1nc(N2C([H])([H])C3([H])C([H])([H])C3([H])C2([H])[H])c([H])c([H])c1-c1nc(N([H])C(=O)[C@@]([H])(n2c([H])nc3c2c(=O)n(C([H])([H])C(=O)C([H])([H])[H])c(=O)n3C([H])([H])[H])C([H])([H])[H])c([H])s1


 39 44  0  0  0  0  0  0  0  0999 V2000
  156.5146  135.1150  188.5661 C   0  0  0  0  0  0  0  0  0  0  0  0
  156.5121  134.6560  187.4165 O   0  0  0  0  0  0  0  0  0  0  0  0
  155.9308  136.3775  188.8096 N   0  0  0  0  0  0  0  0  0  0  0  0
  155.9422  136.7397  189.7633 H   0  0  0  0  0  0  0  0  0  0  0  0
  155.3249  137.1489  187.7378 C   0  0  0  0  0  0  0  0  0  0  0  0
  153.9588  137.1818  187.5817 C   0  0  0  0  0  0  0  0  0  0  0  0
  153.7891  138.1964  186.2193 S   0  0  0  0  0  0  0  0  0  0  0  0
  155.4407  138.5141  185.9328 C   0  0  0  0  0  0  0  0  0  0  0  0
  156.0345  137.8286  186.8929 N   0  0  0  0  0  0  0  0  0  0  0  0
  156.0697  139.3441  184.8775 C   0  0  0  0  0  0  0  0  0  0  0  0
  157.3896  139.6671  185.0238 C   0  0  0  0  0  0  0  0  0  0  0  0
  158.0153  140.4326  184.0700 C   0  0  0  0  0  0  0  0  0  0  0  0
  157.2791  140.8672  182.9618 C   0  0  0  0  0  0  0  0  0  0  0  0
  155.9819  140.5104  182.8837 N   0  0  0  0  0  0  0  0  0  0  0  0
  155.3460  139.7629  183.8022 C   0  0  0  0  0  0  0  0  0  0  0  0
  157.8581  141.6532  181.9453 N   0  0  0  0  0  0  0  0  0  0  0  0
  158.3803  141.0959  180.6901 C   0  0  0  0  0  0  0  0  0  0  0  0
  158.2735  142.2454  179.7061 C   0  0  0  0  0  0  0  0  0  0  0  0
  159.3761  143.2360  179.7562 C   0  0  0  0  0  0  0  0  0  0  0  0
  158.1135  143.4893  180.5012 C   0  0  0  0  0  0  0  0  0  0  0  0
  158.0294  143.0711  181.9571 C   0  0  0  0  0  0  0  0  0  0  0  0
  158.4835  134.1728  189.2854 C   0  0  0  0  0  0  0  0  0  0  0  0
  157.1402  134.3281  189.7068 C   0  0  0  0  0  0  0  0  0  0  0  0
  156.1692  133.4872  190.1619 N   0  0  0  0  0  0  0  0  0  0  0  0
  156.1745  132.1715  189.7449 C   0  0  0  0  0  0  0  0  0  0  0  0
  155.1809  131.4999  190.2673 N   0  0  0  0  0  0  0  0  0  0  0  0
  154.4790  132.3067  191.0388 C   0  0  0  0  0  0  0  0  0  0  0  0
  153.3867  132.2157  191.8153 N   0  0  0  0  0  0  0  0  0  0  0  0
  152.7009  130.9337  191.9194 C   0  0  0  0  0  0  0  0  0  0  0  0
  152.9021  133.2661  192.5015 C   0  0  0  0  0  0  0  0  0  0  0  0
  151.8637  133.1214  193.2213 O   0  0  0  0  0  0  0  0  0  0  0  0
  153.4713  134.4727  192.4601 N   0  0  0  0  0  0  0  0  0  0  0  0
  154.5865  134.6107  191.6815 C   0  0  0  0  0  0  0  0  0  0  0  0
  155.1229  135.7187  191.6333 O   0  0  0  0  0  0  0  0  0  0  0  0
  155.1088  133.5588  190.9672 C   0  0  0  0  0  0  0  0  0  0  0  0
  153.0149  135.6318  193.1565 C   0  0  0  0  0  0  0  0  0  0  0  0
  151.9452  136.3690  192.4958 C   0  0  0  0  0  0  0  0  0  0  0  0
  150.5568  136.2896  193.0049 C   0  0  0  0  0  0  0  0  0  0  0  0
  152.1717  137.0555  191.5246 O   0  0  0  0  0  0  0  0  0  0  0  0
 22 23  1  0  0  0
 23  1  1  0  0  0
  1  2  2  0  0  0
  1  3  1  0  0  0
  3  5  1  0  0  0
  5  6  2  0  0  0
  6  7  1  0  0  0
  7  8  1  0  0  0
  8  9  2  0  0  0
  8 10  1  0  0  0
 10 11  2  0  0  0
 11 12  1  0  0  0
 12 13  2  0  0  0
 13 14  1  0  0  0
 14 15  2  0  0  0
 13 16  1  0  0  0
 16 17  1  0  0  0
 17 18  1  0  0  0
 18 19  1  0  0  0
 19 20  1  0  0  0
 20 21  1  0  0  0
 23 24  1  0  0  0
 24 25  1  0  0  0
 25 26  2  0  0  0
 26 27  1  0  0  0
 27 28  1  0  0  0
 28 29  1  0  0  0
 28 30  1  0  0  0
 30 31  2  0  0  0
 30 32  1  0  0  0
 32 36  1  0  0  0
 36 37  1  0  0  0
 37 38  1  0  0  0
 37 39  2  0  0  0
 32 33  1  0  0  0
 33 34  2  0  0  0
 33 35  1  0  0  0
  9  5  1  0  0  0
 15 10  1  0  0  0
 21 16  1  0  0  0
 35 24  1  0  0  0
 20 18  1  0  0  0
 35 27  2  0  0  0
  3  4  1  0  0  0
M  END
> <minimizedAffinity>
-7.67472

> <CNNscore>
0.1708914340

> <CNNaffinity>
6.0407485962

> <CNN_VS>
1.0323121548

> <CNNaffinity_variance>
0.1076033115

$$$$
[H]c1nc(N2C([H])([H])C3([H])C([H])([H])C3([H])C2([H])[H])c([H])c([H])c1-c1nc(N([H])C(=O)[C@@]([H])(n2c([H])nc3c2c(=O)n(C([H])([H])C(=O)C([H])([H])[H])c(=O)n3C([H])([H])[H])C([H])([H])[H])c([H])s1


 39 44  0  0  0  0  0  0  0  0999 V2000
  154.6856  137.8865  189.7737 C   0  0  0  0  0  0  0  0  0  0  0  0
  154.1864  138.9969  189.5506 O   0  0  0  0  0  0  0  0  0  0  0  0
  154.9520  137.0166  188.6937 N   0  0  0  0  0  0  0  0  0  0  0  0
  155.3636  136.1055  188.8969 H   0  0  0  0  0  0  0  0  0  0  0  0
  154.6535  137.3993  187.3243 C   0  0  0  0  0  0  0  0  0  0  0  0
  153.5277  136.9254  186.6921 C   0  0  0  0  0  0  0  0  0  0  0  0
  153.6579  137.6576  185.1555 S   0  0  0  0  0  0  0  0  0  0  0  0
  155.1145  138.5104  185.4038 C   0  0  0  0  0  0  0  0  0  0  0  0
  155.4245  138.1909  186.6473 N   0  0  0  0  0  0  0  0  0  0  0  0
  155.8604  139.3898  184.4718 C   0  0  0  0  0  0  0  0  0  0  0  0
  157.1394  139.7347  184.8081 C   0  0  0  0  0  0  0  0  0  0  0  0
  157.8697  140.5461  183.9741 C   0  0  0  0  0  0  0  0  0  0  0  0
  157.2808  141.0040  182.7898 C   0  0  0  0  0  0  0  0  0  0  0  0
  156.0159  140.6233  182.5232 N   0  0  0  0  0  0  0  0  0  0  0  0
  155.2798  139.8309  183.3214 C   0  0  0  0  0  0  0  0  0  0  0  0
  157.9729  141.8370  181.8880 N   0  0  0  0  0  0  0  0  0  0  0  0
  158.0412  141.5839  180.4423 C   0  0  0  0  0  0  0  0  0  0  0  0
  158.2631  142.9582  179.8397 C   0  0  0  0  0  0  0  0  0  0  0  0
  159.6647  143.4427  179.8481 C   0  0  0  0  0  0  0  0  0  0  0  0
  158.7312  143.8461  180.9339 C   0  0  0  0  0  0  0  0  0  0  0  0
  158.6976  143.0251  182.2092 C   0  0  0  0  0  0  0  0  0  0  0  0
  156.3217  136.9400  191.0810 C   0  0  0  0  0  0  0  0  0  0  0  0
  155.0098  137.4611  191.1971 C   0  0  0  0  0  0  0  0  0  0  0  0
  153.8391  137.0149  191.7332 N   0  0  0  0  0  0  0  0  0  0  0  0
  153.1200  137.8532  192.5609 C   0  0  0  0  0  0  0  0  0  0  0  0
  152.0275  137.2778  192.9925 N   0  0  0  0  0  0  0  0  0  0  0  0
  151.9596  136.0600  192.4913 C   0  0  0  0  0  0  0  0  0  0  0  0
  151.1148  135.0178  192.5594 N   0  0  0  0  0  0  0  0  0  0  0  0
  149.9107  135.1386  193.3719 C   0  0  0  0  0  0  0  0  0  0  0  0
  151.3399  133.8651  191.9040 C   0  0  0  0  0  0  0  0  0  0  0  0
  150.5049  132.9112  192.0054 O   0  0  0  0  0  0  0  0  0  0  0  0
  152.4176  133.6744  191.1398 N   0  0  0  0  0  0  0  0  0  0  0  0
  153.3048  134.7099  191.0419 C   0  0  0  0  0  0  0  0  0  0  0  0
  154.3043  134.5487  190.3401 O   0  0  0  0  0  0  0  0  0  0  0  0
  153.1062  135.9015  191.6977 C   0  0  0  0  0  0  0  0  0  0  0  0
  152.7248  132.4822  190.4180 C   0  0  0  0  0  0  0  0  0  0  0  0
  153.2235  131.3791  191.2295 C   0  0  0  0  0  0  0  0  0  0  0  0
  154.6020  131.4115  191.7696 C   0  0  0  0  0  0  0  0  0  0  0  0
  152.5235  130.4223  191.4749 O   0  0  0  0  0  0  0  0  0  0  0  0
 22 23  1  0  0  0
 23  1  1  0  0  0
  1  2  2  0  0  0
  1  3  1  0  0  0
  3  5  1  0  0  0
  5  6  2  0  0  0
  6  7  1  0  0  0
  7  8  1  0  0  0
  8  9  2  0  0  0
  8 10  1  0  0  0
 10 11  2  0  0  0
 11 12  1  0  0  0
 12 13  2  0  0  0
 13 14  1  0  0  0
 14 15  2  0  0  0
 13 16  1  0  0  0
 16 17  1  0  0  0
 17 18  1  0  0  0
 18 19  1  0  0  0
 19 20  1  0  0  0
 20 21  1  0  0  0
 23 24  1  0  0  0
 24 25  1  0  0  0
 25 26  2  0  0  0
 26 27  1  0  0  0
 27 28  1  0  0  0
 28 29  1  0  0  0
 28 30  1  0  0  0
 30 31  2  0  0  0
 30 32  1  0  0  0
 32 36  1  0  0  0
 36 37  1  0  0  0
 37 38  1  0  0  0
 37 39  2  0  0  0
 32 33  1  0  0  0
 33 34  2  0  0  0
 33 35  1  0  0  0
  9  5  1  0  0  0
 15 10  1  0  0  0
 21 16  1  0  0  0
 35 24  1  0  0  0
 20 18  1  0  0  0
 35 27  2  0  0  0
  3  4  1  0  0  0
M  END
> <minimizedAffinity>
-7.63139

> <CNNscore>
0.1683969349

> <CNNaffinity>
6.1850771904

> <CNN_VS>
1.0415480137

> <CNNaffinity_variance>
0.0780955404

$$$$
[H]c1c([H])c(N([H])c2nn([H])c3c([H])c(C(F)(F)F)c([H])c([H])c23)c([H])c(F)c1F


 24 26  0  0  0  0  0  0  0  0999 V2000
  159.1643  140.7834  182.8577 C   0  0  0  0  0  0  0  0  0  0  0  0
  158.7776  139.4785  182.9074 N   0  0  0  0  0  0  0  0  0  0  0  0
  157.4327  139.4121  182.8482 N   0  0  0  0  0  0  0  0  0  0  0  0
  156.9433  140.6506  182.7446 C   0  0  0  0  0  0  0  0  0  0  0  0
  155.6562  141.1615  182.7012 C   0  0  0  0  0  0  0  0  0  0  0  0
  155.4826  142.5103  182.6688 C   0  0  0  0  0  0  0  0  0  0  0  0
  156.5363  143.4010  182.6791 C   0  0  0  0  0  0  0  0  0  0  0  0
  157.8219  142.8954  182.7222 C   0  0  0  0  0  0  0  0  0  0  0  0
  158.0198  141.5105  182.7533 C   0  0  0  0  0  0  0  0  0  0  0  0
  156.8480  138.5688  182.8878 H   0  0  0  0  0  0  0  0  0  0  0  0
  154.0604  143.0082  182.7420 C   0  0  0  0  0  0  0  0  0  0  0  0
  153.8578  144.1656  182.0368 F   0  0  0  0  0  0  0  0  0  0  0  0
  153.2231  142.0143  182.3125 F   0  0  0  0  0  0  0  0  0  0  0  0
  153.7797  143.2558  184.0909 F   0  0  0  0  0  0  0  0  0  0  0  0
  160.5090  141.3206  182.9300 N   0  0  0  0  0  0  0  0  0  0  0  0
  161.0969  141.3477  182.0619 H   0  0  0  0  0  0  0  0  0  0  0  0
  162.7594  143.2804  187.6431 F   0  0  0  0  0  0  0  0  0  0  0  0
  162.2167  142.7612  186.5037 C   0  0  0  0  0  0  0  0  0  0  0  0
  162.9961  142.4049  185.4162 C   0  0  0  0  0  0  0  0  0  0  0  0
  162.4032  141.9003  184.2738 C   0  0  0  0  0  0  0  0  0  0  0  0
  161.0165  141.7410  184.1774 C   0  0  0  0  0  0  0  0  0  0  0  0
  160.2885  142.0903  185.2400 C   0  0  0  0  0  0  0  0  0  0  0  0
  160.8692  142.6096  186.4220 C   0  0  0  0  0  0  0  0  0  0  0  0
  160.1064  142.9603  187.4564 F   0  0  0  0  0  0  0  0  0  0  0  0
 17 18  1  0  0  0
 18 19  2  0  0  0
 19 20  1  0  0  0
 20 21  2  0  0  0
 21 15  1  0  0  0
 15  1  1  0  0  0
  1  2  2  0  0  0
  2  3  1  0  0  0
  3  4  1  0  0  0
  4  5  2  0  0  0
  5  6  1  0  0  0
  6  7  2  0  0  0
  7  8  1  0  0  0
  8  9  2  0  0  0
  6 11  1  0  0  0
 11 12  1  0  0  0
 11 13  1  0  0  0
 11 14  1  0  0  0
 21 22  1  0  0  0
 22 23  2  0  0  0
 23 24  1  0  0  0
 23 18  1  0  0  0
  9  1  1  0  0  0
  9  4  1  0  0  0
 15 16  1  0  0  0
  3 10  1  0  0  0
M  END
> <minimizedAffinity>
-9.57650

> <CNNscore>
0.5843980908

> <CNNaffinity>
6.3566536903

> <CNN_VS>
3.7148163319

> <CNNaffinity_variance>
0.0842819139

$$$$
[H]c1c([H])c(N([H])c2nn([H])c3c([H])c(C(F)(F)F)c([H])c([H])c23)c([H])c(F)c1F


 24 26  0  0  0  0  0  0  0  0999 V2000
  153.5343  138.6312  183.4950 C   0  0  0  0  0  0  0  0  0  0  0  0
  152.8496  137.8780  184.3998 N   0  0  0  0  0  0  0  0  0  0  0  0
  151.6539  137.5376  183.8788 N   0  0  0  0  0  0  0  0  0  0  0  0
  151.5601  138.0437  182.6462 C   0  0  0  0  0  0  0  0  0  0  0  0
  150.5521  138.0458  181.6958 C   0  0  0  0  0  0  0  0  0  0  0  0
  150.7407  138.7307  180.5357 C   0  0  0  0  0  0  0  0  0  0  0  0
  151.8970  139.4308  180.2593 C   0  0  0  0  0  0  0  0  0  0  0  0
  152.9050  139.4312  181.2049 C   0  0  0  0  0  0  0  0  0  0  0  0
  152.7298  138.7300  182.4030 C   0  0  0  0  0  0  0  0  0  0  0  0
  150.9095  136.9933  184.3305 H   0  0  0  0  0  0  0  0  0  0  0  0
  149.5649  138.7945  179.5926 C   0  0  0  0  0  0  0  0  0  0  0  0
  148.4397  139.3231  180.1693 F   0  0  0  0  0  0  0  0  0  0  0  0
  149.9304  139.5036  178.4804 F   0  0  0  0  0  0  0  0  0  0  0  0
  149.2845  137.4821  179.1946 F   0  0  0  0  0  0  0  0  0  0  0  0
  154.8406  139.2418  183.6466 N   0  0  0  0  0  0  0  0  0  0  0  0
  155.6269  138.6759  184.0482 H   0  0  0  0  0  0  0  0  0  0  0  0
  155.5851  144.4797  181.8777 F   0  0  0  0  0  0  0  0  0  0  0  0
  155.4287  143.2066  182.3435 C   0  0  0  0  0  0  0  0  0  0  0  0
  156.3369  142.2025  182.0535 C   0  0  0  0  0  0  0  0  0  0  0  0
  156.1299  140.9214  182.5301 C   0  0  0  0  0  0  0  0  0  0  0  0
  155.0096  140.6000  183.3044 C   0  0  0  0  0  0  0  0  0  0  0  0
  154.1508  141.5862  183.5709 C   0  0  0  0  0  0  0  0  0  0  0  0
  154.3380  142.9064  183.0957 C   0  0  0  0  0  0  0  0  0  0  0  0
  153.4496  143.8602  183.3717 F   0  0  0  0  0  0  0  0  0  0  0  0
 17 18  1  0  0  0
 18 19  2  0  0  0
 19 20  1  0  0  0
 20 21  2  0  0  0
 21 15  1  0  0  0
 15  1  1  0  0  0
  1  2  2  0  0  0
  2  3  1  0  0  0
  3  4  1  0  0  0
  4  5  2  0  0  0
  5  6  1  0  0  0
  6  7  2  0  0  0
  7  8  1  0  0  0
  8  9  2  0  0  0
  6 11  1  0  0  0
 11 12  1  0  0  0
 11 13  1  0  0  0
 11 14  1  0  0  0
 21 22  1  0  0  0
 22 23  2  0  0  0
 23 24  1  0  0  0
 23 18  1  0  0  0
  9  1  1  0  0  0
  9  4  1  0  0  0
 15 16  1  0  0  0
  3 10  1  0  0  0
M  END
> <minimizedAffinity>
-7.12334

> <CNNscore>
0.4555385709

> <CNNaffinity>
5.4359779358

> <CNN_VS>
2.4762976170

> <CNNaffinity_variance>
0.1040320843

$$$$
[H]c1c([H])c(N([H])c2nn([H])c3c([H])c(C(F)(F)F)c([H])c([H])c23)c([H])c(F)c1F


 24 26  0  0  0  0  0  0  0  0999 V2000
  156.0459  140.9163  183.8500 C   0  0  0  0  0  0  0  0  0  0  0  0
  156.2594  139.7776  184.5659 N   0  0  0  0  0  0  0  0  0  0  0  0
  155.2890  138.8865  184.2811 N   0  0  0  0  0  0  0  0  0  0  0  0
  154.4607  139.4229  183.3810 C   0  0  0  0  0  0  0  0  0  0  0  0
  153.2906  138.9799  182.7861 C   0  0  0  0  0  0  0  0  0  0  0  0
  152.6228  139.8129  181.9431 C   0  0  0  0  0  0  0  0  0  0  0  0
  153.0580  141.0893  181.6517 C   0  0  0  0  0  0  0  0  0  0  0  0
  154.2250  141.5351  182.2431 C   0  0  0  0  0  0  0  0  0  0  0  0
  154.9268  140.6911  183.1109 C   0  0  0  0  0  0  0  0  0  0  0  0
  155.1675  137.9483  184.6808 H   0  0  0  0  0  0  0  0  0  0  0  0
  151.2965  139.3198  181.4198 C   0  0  0  0  0  0  0  0  0  0  0  0
  150.4176  138.9795  182.4147 F   0  0  0  0  0  0  0  0  0  0  0  0
  150.7653  140.2752  180.5961 F   0  0  0  0  0  0  0  0  0  0  0  0
  151.5558  138.1809  180.6484 F   0  0  0  0  0  0  0  0  0  0  0  0
  156.8172  142.1438  183.8723 N   0  0  0  0  0  0  0  0  0  0  0  0
  156.7496  142.7760  184.7064 H   0  0  0  0  0  0  0  0  0  0  0  0
  159.5756  143.3342  179.1720 F   0  0  0  0  0  0  0  0  0  0  0  0
  158.9369  143.0268  180.3381 C   0  0  0  0  0  0  0  0  0  0  0  0
  158.4145  141.7672  180.5784 C   0  0  0  0  0  0  0  0  0  0  0  0
  157.7578  141.5040  181.7661 C   0  0  0  0  0  0  0  0  0  0  0  0
  157.5960  142.4882  182.7474 C   0  0  0  0  0  0  0  0  0  0  0  0
  158.1102  143.6929  182.4917 C   0  0  0  0  0  0  0  0  0  0  0  0
  158.7870  143.9899  181.2843 C   0  0  0  0  0  0  0  0  0  0  0  0
  159.2738  145.2098  181.0607 F   0  0  0  0  0  0  0  0  0  0  0  0
 17 18  1  0  0  0
 18 19  2  0  0  0
 19 20  1  0  0  0
 20 21  2  0  0  0
 21 15  1  0  0  0
 15  1  1  0  0  0
  1  2  2  0  0  0
  2  3  1  0  0  0
  3  4  1  0  0  0
  4  5  2  0  0  0
  5  6  1  0  0  0
  6  7  2  0  0  0
  7  8  1  0  0  0
  8  9  2  0  0  0
  6 11  1  0  0  0
 11 12  1  0  0  0
 11 13  1  0  0  0
 11 14  1  0  0  0
 21 22  1  0  0  0
 22 23  2  0  0  0
 23 24  1  0  0  0
 23 18  1  0  0  0
  9  1  1  0  0  0
  9  4  1  0  0  0
 15 16  1  0  0  0
  3 10  1  0  0  0
M  END
> <minimizedAffinity>
-8.41702

> <CNNscore>
0.4499144256

> <CNNaffinity>
5.8840885162

> <CNN_VS>
2.6473362446

> <CNNaffinity_variance>
0.1227058172

$$$$
[H]c1c([H])c(N([H])c2nn([H])c3c([H])c(C(F)(F)F)c([H])c([H])c23)c([H])c(F)c1F


 24 26  0  0  0  0  0  0  0  0999 V2000
  155.6533  141.0854  182.7679 C   0  0  0  0  0  0  0  0  0  0  0  0
  154.8935  141.4613  181.7020 N   0  0  0  0  0  0  0  0  0  0  0  0
  153.7793  140.7039  181.6628 N   0  0  0  0  0  0  0  0  0  0  0  0
  153.7971  139.8556  182.6944 C   0  0  0  0  0  0  0  0  0  0  0  0
  152.9484  138.8390  183.1014 C   0  0  0  0  0  0  0  0  0  0  0  0
  153.2910  138.0865  184.1816 C   0  0  0  0  0  0  0  0  0  0  0  0
  154.4542  138.2881  184.8957 C   0  0  0  0  0  0  0  0  0  0  0  0
  155.3037  139.3012  184.4929 C   0  0  0  0  0  0  0  0  0  0  0  0
  154.9663  140.0873  183.3855 C   0  0  0  0  0  0  0  0  0  0  0  0
  153.0278  140.7365  180.9635 H   0  0  0  0  0  0  0  0  0  0  0  0
  152.3884  136.9216  184.5045 C   0  0  0  0  0  0  0  0  0  0  0  0
  151.3227  136.8127  183.6498 F   0  0  0  0  0  0  0  0  0  0  0  0
  153.1353  135.7746  184.5123 F   0  0  0  0  0  0  0  0  0  0  0  0
  151.8990  137.1265  185.7999 F   0  0  0  0  0  0  0  0  0  0  0  0
  156.9468  141.6023  183.1702 N   0  0  0  0  0  0  0  0  0  0  0  0
  157.2337  141.5372  184.1769 H   0  0  0  0  0  0  0  0  0  0  0  0
  159.8984  143.9559  179.0632 F   0  0  0  0  0  0  0  0  0  0  0  0
  159.2125  143.3637  180.0836 C   0  0  0  0  0  0  0  0  0  0  0  0
  158.7948  142.0452  180.0188 C   0  0  0  0  0  0  0  0  0  0  0  0
  158.0855  141.4903  181.0677 C   0  0  0  0  0  0  0  0  0  0  0  0
  157.7655  142.2327  182.2096 C   0  0  0  0  0  0  0  0  0  0  0  0
  158.1812  143.5003  182.2476 C   0  0  0  0  0  0  0  0  0  0  0  0
  158.9087  144.0939  181.1882 C   0  0  0  0  0  0  0  0  0  0  0  0
  159.2937  145.3674  181.2582 F   0  0  0  0  0  0  0  0  0  0  0  0
 17 18  1  0  0  0
 18 19  2  0  0  0
 19 20  1  0  0  0
 20 21  2  0  0  0
 21 15  1  0  0  0
 15  1  1  0  0  0
  1  2  2  0  0  0
  2  3  1  0  0  0
  3  4  1  0  0  0
  4  5  2  0  0  0
  5  6  1  0  0  0
  6  7  2  0  0  0
  7  8  1  0  0  0
  8  9  2  0  0  0
  6 11  1  0  0  0
 11 12  1  0  0  0
 11 13  1  0  0  0
 11 14  1  0  0  0
 21 22  1  0  0  0
 22 23  2  0  0  0
 23 24  1  0  0  0
 23 18  1  0  0  0
  9  1  1  0  0  0
  9  4  1  0  0  0
 15 16  1  0  0  0
  3 10  1  0  0  0
M  END
> <minimizedAffinity>
-8.04916

> <CNNscore>
0.4457857311

> <CNNaffinity>
5.8272385597

> <CNN_VS>
2.5976998806

> <CNNaffinity_variance>
0.0767895579

$$$$
[H]c1c([H])c(N([H])c2nn([H])c3c([H])c(C(F)(F)F)c([H])c([H])c23)c([H])c(F)c1F


 24 26  0  0  0  0  0  0  0  0999 V2000
  154.3577  138.2121  184.9579 C   0  0  0  0  0  0  0  0  0  0  0  0
  155.2622  139.2285  184.8976 N   0  0  0  0  0  0  0  0  0  0  0  0
  154.9764  140.0140  183.8402 N   0  0  0  0  0  0  0  0  0  0  0  0
  153.8928  139.5329  183.2250 C   0  0  0  0  0  0  0  0  0  0  0  0
  153.2063  139.9075  182.0815 C   0  0  0  0  0  0  0  0  0  0  0  0
  152.1571  139.1491  181.6637 C   0  0  0  0  0  0  0  0  0  0  0  0
  151.7422  138.0139  182.3292 C   0  0  0  0  0  0  0  0  0  0  0  0
  152.4245  137.6367  183.4705 C   0  0  0  0  0  0  0  0  0  0  0  0
  153.5045  138.4063  183.9168 C   0  0  0  0  0  0  0  0  0  0  0  0
  155.4919  140.8435  183.5226 H   0  0  0  0  0  0  0  0  0  0  0  0
  151.5251  139.5389  180.3505 C   0  0  0  0  0  0  0  0  0  0  0  0
  150.6994  138.5708  179.8416 F   0  0  0  0  0  0  0  0  0  0  0  0
  150.8567  140.7216  180.5172 F   0  0  0  0  0  0  0  0  0  0  0  0
  152.5666  139.7566  179.4408 F   0  0  0  0  0  0  0  0  0  0  0  0
  154.3063  137.1165  185.9061 N   0  0  0  0  0  0  0  0  0  0  0  0
  153.8358  136.2211  185.6289 H   0  0  0  0  0  0  0  0  0  0  0  0
  156.8090  137.8975  190.8300 F   0  0  0  0  0  0  0  0  0  0  0  0
  156.1769  137.6723  189.6417 C   0  0  0  0  0  0  0  0  0  0  0  0
  156.6705  136.7791  188.7059 C   0  0  0  0  0  0  0  0  0  0  0  0
  156.0086  136.5954  187.5062 C   0  0  0  0  0  0  0  0  0  0  0  0
  154.8391  137.2996  187.1995 C   0  0  0  0  0  0  0  0  0  0  0  0
  154.3837  138.1528  188.1191 C   0  0  0  0  0  0  0  0  0  0  0  0
  155.0413  138.3606  189.3553 C   0  0  0  0  0  0  0  0  0  0  0  0
  154.5623  139.2325  190.2416 F   0  0  0  0  0  0  0  0  0  0  0  0
 17 18  1  0  0  0
 18 19  2  0  0  0
 19 20  1  0  0  0
 20 21  2  0  0  0
 21 15  1  0  0  0
 15  1  1  0  0  0
  1  2  2  0  0  0
  2  3  1  0  0  0
  3  4  1  0  0  0
  4  5  2  0  0  0
  5  6  1  0  0  0
  6  7  2  0  0  0
  7  8  1  0  0  0
  8  9  2  0  0  0
  6 11  1  0  0  0
 11 12  1  0  0  0
 11 13  1  0  0  0
 11 14  1  0  0  0
 21 22  1  0  0  0
 22 23  2  0  0  0
 23 24  1  0  0  0
 23 18  1  0  0  0
  9  1  1  0  0  0
  9  4  1  0  0  0
 15 16  1  0  0  0
  3 10  1  0  0  0
M  END
> <minimizedAffinity>
-7.17028

> <CNNscore>
0.4390671253

> <CNNaffinity>
5.1518592834

> <CNN_VS>
2.2620120049

> <CNNaffinity_variance>
0.1085632294

$$$$
[H]c1c([H])c(N([H])c2nn([H])c3c([H])c(C(F)(F)F)c([H])c([H])c23)c([H])c(F)c1F


 24 26  0  0  0  0  0  0  0  0999 V2000
  158.8818  143.4998  182.2159 C   0  0  0  0  0  0  0  0  0  0  0  0
  158.9630  144.8535  182.0898 N   0  0  0  0  0  0  0  0  0  0  0  0
  159.7716  145.3406  183.0518 N   0  0  0  0  0  0  0  0  0  0  0  0
  160.2281  144.3239  183.7881 C   0  0  0  0  0  0  0  0  0  0  0  0
  161.0343  144.2539  184.9126 C   0  0  0  0  0  0  0  0  0  0  0  0
  161.2611  143.0420  185.4872 C   0  0  0  0  0  0  0  0  0  0  0  0
  160.7202  141.8698  185.0004 C   0  0  0  0  0  0  0  0  0  0  0  0
  159.9155  141.9353  183.8786 C   0  0  0  0  0  0  0  0  0  0  0  0
  159.6732  143.1730  183.2725 C   0  0  0  0  0  0  0  0  0  0  0  0
  160.0084  146.3243  183.2279 H   0  0  0  0  0  0  0  0  0  0  0  0
  162.0477  143.0437  186.7746 C   0  0  0  0  0  0  0  0  0  0  0  0
  163.3371  142.6064  186.6187 F   0  0  0  0  0  0  0  0  0  0  0  0
  162.0138  144.3030  187.3098 F   0  0  0  0  0  0  0  0  0  0  0  0
  161.3906  142.1810  187.6598 F   0  0  0  0  0  0  0  0  0  0  0  0
  158.0980  142.5736  181.4223 N   0  0  0  0  0  0  0  0  0  0  0  0
  158.4161  142.3343  180.4520 H   0  0  0  0  0  0  0  0  0  0  0  0
  153.5758  140.4037  183.8633 F   0  0  0  0  0  0  0  0  0  0  0  0
  154.6703  140.9159  183.2296 C   0  0  0  0  0  0  0  0  0  0  0  0
  155.8383  140.1877  183.0786 C   0  0  0  0  0  0  0  0  0  0  0  0
  156.9306  140.7522  182.4465 C   0  0  0  0  0  0  0  0  0  0  0  0
  156.8952  142.0603  181.9514 C   0  0  0  0  0  0  0  0  0  0  0  0
  155.7573  142.7398  182.1083 C   0  0  0  0  0  0  0  0  0  0  0  0
  154.6240  142.1866  182.7515 C   0  0  0  0  0  0  0  0  0  0  0  0
  153.5107  142.9030  182.9013 F   0  0  0  0  0  0  0  0  0  0  0  0
 17 18  1  0  0  0
 18 19  2  0  0  0
 19 20  1  0  0  0
 20 21  2  0  0  0
 21 15  1  0  0  0
 15  1  1  0  0  0
  1  2  2  0  0  0
  2  3  1  0  0  0
  3  4  1  0  0  0
  4  5  2  0  0  0
  5  6  1  0  0  0
  6  7  2  0  0  0
  7  8  1  0  0  0
  8  9  2  0  0  0
  6 11  1  0  0  0
 11 12  1  0  0  0
 11 13  1  0  0  0
 11 14  1  0  0  0
 21 22  1  0  0  0
 22 23  2  0  0  0
 23 24  1  0  0  0
 23 18  1  0  0  0
  9  1  1  0  0  0
  9  4  1  0  0  0
 15 16  1  0  0  0
  3 10  1  0  0  0
M  END
> <minimizedAffinity>
-8.94706

> <CNNscore>
0.4231918454

> <CNNaffinity>
6.3480229378

> <CNN_VS>
2.6864316463

> <CNNaffinity_variance>
0.0831556544

$$$$
[H]c1c([H])c(N([H])c2nn([H])c3c([H])c(C(F)(F)F)c([H])c([H])c23)c([H])c(F)c1F


 24 26  0  0  0  0  0  0  0  0999 V2000
  151.6256  136.7081  187.1302 C   0  0  0  0  0  0  0  0  0  0  0  0
  151.1560  135.6225  187.8053 N   0  0  0  0  0  0  0  0  0  0  0  0
  151.7828  135.5352  188.9953 N   0  0  0  0  0  0  0  0  0  0  0  0
  152.6379  136.5550  189.1089 C   0  0  0  0  0  0  0  0  0  0  0  0
  153.5565  136.9192  190.0800 C   0  0  0  0  0  0  0  0  0  0  0  0
  154.3534  137.9998  189.8620 C   0  0  0  0  0  0  0  0  0  0  0  0
  154.2911  138.7555  188.7093 C   0  0  0  0  0  0  0  0  0  0  0  0
  153.3760  138.3956  187.7380 C   0  0  0  0  0  0  0  0  0  0  0  0
  152.5461  137.2884  187.9461 C   0  0  0  0  0  0  0  0  0  0  0  0
  151.6590  134.8115  189.7133 H   0  0  0  0  0  0  0  0  0  0  0  0
  155.4125  138.2759  190.9003 C   0  0  0  0  0  0  0  0  0  0  0  0
  156.6763  138.3475  190.3750 F   0  0  0  0  0  0  0  0  0  0  0  0
  155.0875  139.4270  191.5658 F   0  0  0  0  0  0  0  0  0  0  0  0
  155.3733  137.2207  191.8193 F   0  0  0  0  0  0  0  0  0  0  0  0
  151.2615  137.1609  185.8019 N   0  0  0  0  0  0  0  0  0  0  0  0
  150.5324  137.9075  185.6973 H   0  0  0  0  0  0  0  0  0  0  0  0
  153.5474  135.1141  181.1432 F   0  0  0  0  0  0  0  0  0  0  0  0
  152.9647  135.5793  182.2860 C   0  0  0  0  0  0  0  0  0  0  0  0
  151.7443  136.2335  182.2735 C   0  0  0  0  0  0  0  0  0  0  0  0
  151.1987  136.7058  183.4527 C   0  0  0  0  0  0  0  0  0  0  0  0
  151.8542  136.5468  184.6785 C   0  0  0  0  0  0  0  0  0  0  0  0
  153.0277  135.9115  184.6632 C   0  0  0  0  0  0  0  0  0  0  0  0
  153.6095  135.4179  183.4708 C   0  0  0  0  0  0  0  0  0  0  0  0
  154.7904  134.8014  183.4955 F   0  0  0  0  0  0  0  0  0  0  0  0
 17 18  1  0  0  0
 18 19  2  0  0  0
 19 20  1  0  0  0
 20 21  2  0  0  0
 21 15  1  0  0  0
 15  1  1  0  0  0
  1  2  2  0  0  0
  2  3  1  0  0  0
  3  4  1  0  0  0
  4  5  2  0  0  0
  5  6  1  0  0  0
  6  7  2  0  0  0
  7  8  1  0  0  0
  8  9  2  0  0  0
  6 11  1  0  0  0
 11 12  1  0  0  0
 11 13  1  0  0  0
 11 14  1  0  0  0
 21 22  1  0  0  0
 22 23  2  0  0  0
 23 24  1  0  0  0
 23 18  1  0  0  0
  9  1  1  0  0  0
  9  4  1  0  0  0
 15 16  1  0  0  0
  3 10  1  0  0  0
M  END
> <minimizedAffinity>
-5.82038

> <CNNscore>
0.4173040390

> <CNNaffinity>
5.0602512360

> <CNN_VS>
2.1116633415

> <CNNaffinity_variance>
0.1336003840

$$$$
[H]c1c([H])c(N([H])c2nn([H])c3c([H])c(C(F)(F)F)c([H])c([H])c23)c([H])c(F)c1F


 24 26  0  0  0  0  0  0  0  0999 V2000
  159.1335  142.0270  182.3772 C   0  0  0  0  0  0  0  0  0  0  0  0
  159.1318  143.1329  181.5824 N   0  0  0  0  0  0  0  0  0  0  0  0
  157.8617  143.4376  181.2496 N   0  0  0  0  0  0  0  0  0  0  0  0
  157.0405  142.5577  181.8287 C   0  0  0  0  0  0  0  0  0  0  0  0
  155.6684  142.3707  181.7870 C   0  0  0  0  0  0  0  0  0  0  0  0
  155.1268  141.3101  182.4444 C   0  0  0  0  0  0  0  0  0  0  0  0
  155.8857  140.4031  183.1551 C   0  0  0  0  0  0  0  0  0  0  0  0
  157.2550  140.5861  183.1993 C   0  0  0  0  0  0  0  0  0  0  0  0
  157.8295  141.6731  182.5312 C   0  0  0  0  0  0  0  0  0  0  0  0
  157.5428  144.2024  180.6429 H   0  0  0  0  0  0  0  0  0  0  0  0
  153.6449  141.0918  182.2649 C   0  0  0  0  0  0  0  0  0  0  0  0
  153.3185  140.6019  181.0273 F   0  0  0  0  0  0  0  0  0  0  0  0
  153.1982  140.2630  183.2584 F   0  0  0  0  0  0  0  0  0  0  0  0
  153.0227  142.3351  182.4280 F   0  0  0  0  0  0  0  0  0  0  0  0
  160.2753  141.3289  182.9351 N   0  0  0  0  0  0  0  0  0  0  0  0
  160.6652  140.4978  182.4279 H   0  0  0  0  0  0  0  0  0  0  0  0
  162.5956  143.2785  187.6184 F   0  0  0  0  0  0  0  0  0  0  0  0
  162.0353  142.7618  186.4865 C   0  0  0  0  0  0  0  0  0  0  0  0
  162.7999  142.3869  185.3947 C   0  0  0  0  0  0  0  0  0  0  0  0
  162.1895  141.8855  184.2601 C   0  0  0  0  0  0  0  0  0  0  0  0
  160.7997  141.7481  184.1759 C   0  0  0  0  0  0  0  0  0  0  0  0
  160.0862  142.1150  185.2424 C   0  0  0  0  0  0  0  0  0  0  0  0
  160.6848  142.6315  186.4166 C   0  0  0  0  0  0  0  0  0  0  0  0
  159.9362  143.0002  187.4552 F   0  0  0  0  0  0  0  0  0  0  0  0
 17 18  1  0  0  0
 18 19  2  0  0  0
 19 20  1  0  0  0
 20 21  2  0  0  0
 21 15  1  0  0  0
 15  1  1  0  0  0
  1  2  2  0  0  0
  2  3  1  0  0  0
  3  4  1  0  0  0
  4  5  2  0  0  0
  5  6  1  0  0  0
  6  7  2  0  0  0
  7  8  1  0  0  0
  8  9  2  0  0  0
  6 11  1  0  0  0
 11 12  1  0  0  0
 11 13  1  0  0  0
 11 14  1  0  0  0
 21 22  1  0  0  0
 22 23  2  0  0  0
 23 24  1  0  0  0
 23 18  1  0  0  0
  9  1  1  0  0  0
  9  4  1  0  0  0
 15 16  1  0  0  0
  3 10  1  0  0  0
M  END
> <minimizedAffinity>
-9.26955

> <CNNscore>
0.4045117199

> <CNNaffinity>
6.2737665176

> <CNN_VS>
2.5378119946

> <CNNaffinity_variance>
0.0619995892

$$$$
[H]c1c([H])c(N([H])c2nn([H])c3c([H])c(C(F)(F)F)c([H])c([H])c23)c([H])c(F)c1F


 24 26  0  0  0  0  0  0  0  0999 V2000
  154.8327  138.0550  185.4026 C   0  0  0  0  0  0  0  0  0  0  0  0
  155.7545  139.0519  185.2967 N   0  0  0  0  0  0  0  0  0  0  0  0
  155.4128  139.8651  184.2775 N   0  0  0  0  0  0  0  0  0  0  0  0
  154.2769  139.4210  183.7328 C   0  0  0  0  0  0  0  0  0  0  0  0
  153.5196  139.8344  182.6488 C   0  0  0  0  0  0  0  0  0  0  0  0
  152.4256  139.1084  182.2933 C   0  0  0  0  0  0  0  0  0  0  0  0
  152.0322  137.9695  182.9654 C   0  0  0  0  0  0  0  0  0  0  0  0
  152.7850  137.5537  184.0474 C   0  0  0  0  0  0  0  0  0  0  0  0
  153.9123  138.2895  184.4293 C   0  0  0  0  0  0  0  0  0  0  0  0
  155.9240  140.6891  183.9394 H   0  0  0  0  0  0  0  0  0  0  0  0
  151.7109  139.5391  181.0364 C   0  0  0  0  0  0  0  0  0  0  0  0
  151.9351  140.8515  180.7119 F   0  0  0  0  0  0  0  0  0  0  0  0
  152.0784  138.7070  180.0136 F   0  0  0  0  0  0  0  0  0  0  0  0
  150.3403  139.3658  181.2621 F   0  0  0  0  0  0  0  0  0  0  0  0
  154.8230  136.9416  186.3313 N   0  0  0  0  0  0  0  0  0  0  0  0
  154.4996  136.0008  185.9994 H   0  0  0  0  0  0  0  0  0  0  0  0
  156.7090  137.8393  191.5038 F   0  0  0  0  0  0  0  0  0  0  0  0
  156.2238  137.5875  190.2535 C   0  0  0  0  0  0  0  0  0  0  0  0
  156.7806  136.6228  189.4310 C   0  0  0  0  0  0  0  0  0  0  0  0
  156.2699  136.4134  188.1636 C   0  0  0  0  0  0  0  0  0  0  0  0
  155.1938  137.1621  187.6745 C   0  0  0  0  0  0  0  0  0  0  0  0
  154.6745  138.0841  188.4877 C   0  0  0  0  0  0  0  0  0  0  0  0
  155.1777  138.3196  189.7897 C   0  0  0  0  0  0  0  0  0  0  0  0
  154.6405  139.2598  190.5659 F   0  0  0  0  0  0  0  0  0  0  0  0
 17 18  1  0  0  0
 18 19  2  0  0  0
 19 20  1  0  0  0
 20 21  2  0  0  0
 21 15  1  0  0  0
 15  1  1  0  0  0
  1  2  2  0  0  0
  2  3  1  0  0  0
  3  4  1  0  0  0
  4  5  2  0  0  0
  5  6  1  0  0  0
  6  7  2  0  0  0
  7  8  1  0  0  0
  8  9  2  0  0  0
  6 11  1  0  0  0
 11 12  1  0  0  0
 11 13  1  0  0  0
 11 14  1  0  0  0
 21 22  1  0  0  0
 22 23  2  0  0  0
 23 24  1  0  0  0
 23 18  1  0  0  0
  9  1  1  0  0  0
  9  4  1  0  0  0
 15 16  1  0  0  0
  3 10  1  0  0  0
M  END
> <minimizedAffinity>
-6.97815

> <CNNscore>
0.3934307694

> <CNNaffinity>
5.1818475723

> <CNN_VS>
2.0386981964

> <CNNaffinity_variance>
0.0924442559

$$$$
[H]c1nc([H])c(N([H])C(=O)[C@@]([H])(n2c([H])nc3c2c(=O)n(C([H])([H])C#N)c(=O)n3C([H])([H])[H])C([H])([H])[H])nc1-c1c([H])nc(N2C([H])([H])C3([H])C(F)(F)C3([H])C2([H])[H])c([H])c1[H]


 41 46  0  0  0  0  0  0  0  0999 V2000
  147.9141  137.5357  182.6404 C   0  0  0  0  0  0  0  0  0  0  0  0
  146.6745  137.8253  183.1550 O   0  0  0  0  0  0  0  0  0  0  0  0
  148.3991  138.6091  181.9540 N   0  0  0  0  0  0  0  0  0  0  0  0
  147.6447  139.4698  181.9945 H   0  0  0  0  0  0  0  0  0  0  0  0
  149.4785  139.0122  181.1907 C   0  0  0  0  0  0  0  0  0  0  0  0
  149.5169  139.1288  179.8538 C   0  0  0  0  0  0  0  0  0  0  0  0
  150.6435  139.4829  179.2073 N   0  0  0  0  0  0  0  0  0  0  0  0
  151.7700  139.7325  179.8938 C   0  0  0  0  0  0  0  0  0  0  0  0
  151.8016  139.6336  181.2630 C   0  0  0  0  0  0  0  0  0  0  0  0
  150.6518  139.2775  181.8484 N   0  0  0  0  0  0  0  0  0  0  0  0
  153.0140  139.9020  182.0150 C   0  0  0  0  0  0  0  0  0  0  0  0
  153.3838  139.1076  183.0955 C   0  0  0  0  0  0  0  0  0  0  0  0
  154.5486  139.4309  183.7538 C   0  0  0  0  0  0  0  0  0  0  0  0
  155.3445  140.4890  183.3904 C   0  0  0  0  0  0  0  0  0  0  0  0
  154.9566  141.2255  182.3511 N   0  0  0  0  0  0  0  0  0  0  0  0
  153.8204  140.9486  181.6715 C   0  0  0  0  0  0  0  0  0  0  0  0
  156.5445  140.8248  184.0659 N   0  0  0  0  0  0  0  0  0  0  0  0
  157.1899  142.1213  184.1121 C   0  0  0  0  0  0  0  0  0  0  0  0
  158.6283  141.7623  183.8437 C   0  0  0  0  0  0  0  0  0  0  0  0
  158.7664  140.2854  184.2774 C   0  0  0  0  0  0  0  0  0  0  0  0
  157.4014  139.9515  184.8646 C   0  0  0  0  0  0  0  0  0  0  0  0
  159.5386  141.3516  184.9359 C   0  0  0  0  0  0  0  0  0  0  0  0
  160.8914  141.4273  184.6686 F   0  0  0  0  0  0  0  0  0  0  0  0
  159.2100  141.7121  186.2227 F   0  0  0  0  0  0  0  0  0  0  0  0
  147.4403  135.4193  184.0044 C   0  0  0  0  0  0  0  0  0  0  0  0
  148.2332  136.1857  183.0289 C   0  0  0  0  0  0  0  0  0  0  0  0
  149.6100  135.7540  182.8447 N   0  0  0  0  0  0  0  0  0  0  0  0
  150.1580  135.0296  181.8233 C   0  0  0  0  0  0  0  0  0  0  0  0
  151.4501  134.8210  181.9893 N   0  0  0  0  0  0  0  0  0  0  0  0
  151.8190  135.4017  183.1359 C   0  0  0  0  0  0  0  0  0  0  0  0
  152.9576  135.5294  183.8179 N   0  0  0  0  0  0  0  0  0  0  0  0
  154.1592  134.9291  183.2746 C   0  0  0  0  0  0  0  0  0  0  0  0
  153.0233  136.1929  184.9849 C   0  0  0  0  0  0  0  0  0  0  0  0
  154.1317  136.2924  185.6061 O   0  0  0  0  0  0  0  0  0  0  0  0
  151.9527  136.7686  185.5393 N   0  0  0  0  0  0  0  0  0  0  0  0
  150.7721  136.6555  184.8653 C   0  0  0  0  0  0  0  0  0  0  0  0
  149.7452  137.1712  185.3347 O   0  0  0  0  0  0  0  0  0  0  0  0
  150.6604  135.9801  183.6590 C   0  0  0  0  0  0  0  0  0  0  0  0
  151.9405  137.4898  186.7738 C   0  0  0  0  0  0  0  0  0  0  0  0
  151.8611  136.5857  187.9127 C   0  0  0  0  0  0  0  0  0  0  0  0
  151.7878  135.8722  188.8180 N   0  0  0  0  0  0  0  0  0  0  0  0
 25 26  1  0  0  0
 26  1  1  0  0  0
  1  2  2  0  0  0
  1  3  1  0  0  0
  3  5  1  0  0  0
  5  6  2  0  0  0
  6  7  1  0  0  0
  7  8  2  0  0  0
  8  9  1  0  0  0
  9 10  2  0  0  0
  9 11  1  0  0  0
 11 12  2  0  0  0
 12 13  1  0  0  0
 13 14  2  0  0  0
 14 15  1  0  0  0
 15 16  2  0  0  0
 14 17  1  0  0  0
 17 18  1  0  0  0
 18 19  1  0  0  0
 19 20  1  0  0  0
 20 21  1  0  0  0
 20 22  1  0  0  0
 22 23  1  0  0  0
 22 24  1  0  0  0
 26 27  1  0  0  0
 27 28  1  0  0  0
 28 29  2  0  0  0
 29 30  1  0  0  0
 30 31  1  0  0  0
 31 32  1  0  0  0
 31 33  1  0  0  0
 33 34  2  0  0  0
 33 35  1  0  0  0
 35 39  1  0  0  0
 39 40  1  0  0  0
 40 41  3  0  0  0
 35 36  1  0  0  0
 36 37  2  0  0  0
 36 38  1  0  0  0
 10  5  1  0  0  0
 16 11  1  0  0  0
 21 17  1  0  0  0
 38 27  1  0  0  0
 22 19  1  0  0  0
 38 30  2  0  0  0
  3  4  1  0  0  0
M  END
> <minimizedAffinity>
-7.48213

> <CNNscore>
0.2164556533

> <CNNaffinity>
6.4192214012

> <CNN_VS>
1.3894767761

> <CNNaffinity_variance>
0.4610978961

$$$$
[H]c1nc([H])c(N([H])C(=O)[C@@]([H])(n2c([H])nc3c2c(=O)n(C([H])([H])C#N)c(=O)n3C([H])([H])[H])C([H])([H])[H])nc1-c1c([H])nc(N2C([H])([H])C3([H])C(F)(F)C3([H])C2([H])[H])c([H])c1[H]


 41 46  0  0  0  0  0  0  0  0999 V2000
  154.0448  137.2349  189.9076 C   0  0  0  0  0  0  0  0  0  0  0  0
  153.4092  137.2730  191.1240 O   0  0  0  0  0  0  0  0  0  0  0  0
  153.1392  137.3900  188.9004 N   0  0  0  0  0  0  0  0  0  0  0  0
  152.0885  137.5167  189.3382 H   0  0  0  0  0  0  0  0  0  0  0  0
  153.0419  137.4134  187.5219 C   0  0  0  0  0  0  0  0  0  0  0  0
  152.2590  136.6335  186.7595 C   0  0  0  0  0  0  0  0  0  0  0  0
  152.2822  136.7075  185.4154 N   0  0  0  0  0  0  0  0  0  0  0  0
  153.0989  137.5758  184.7976 C   0  0  0  0  0  0  0  0  0  0  0  0
  153.9254  138.4045  185.5156 C   0  0  0  0  0  0  0  0  0  0  0  0
  153.8578  138.2842  186.8470 N   0  0  0  0  0  0  0  0  0  0  0  0
  154.8117  139.3474  184.8576 C   0  0  0  0  0  0  0  0  0  0  0  0
  156.1935  139.2474  184.9834 C   0  0  0  0  0  0  0  0  0  0  0  0
  156.9615  140.1820  184.3266 C   0  0  0  0  0  0  0  0  0  0  0  0
  156.4242  141.1909  183.5658 C   0  0  0  0  0  0  0  0  0  0  0  0
  155.0976  141.2530  183.4700 N   0  0  0  0  0  0  0  0  0  0  0  0
  154.2996  140.3583  184.0963 C   0  0  0  0  0  0  0  0  0  0  0  0
  157.2119  142.1548  182.8882 N   0  0  0  0  0  0  0  0  0  0  0  0
  156.7549  143.1449  181.9339 C   0  0  0  0  0  0  0  0  0  0  0  0
  157.7783  143.0142  180.8359 C   0  0  0  0  0  0  0  0  0  0  0  0
  159.0349  142.4290  181.5193 C   0  0  0  0  0  0  0  0  0  0  0  0
  158.6529  142.3729  182.9925 C   0  0  0  0  0  0  0  0  0  0  0  0
  159.0585  143.7553  180.8811 C   0  0  0  0  0  0  0  0  0  0  0  0
  159.7361  143.8835  179.6847 F   0  0  0  0  0  0  0  0  0  0  0  0
  159.1307  144.8748  181.6783 F   0  0  0  0  0  0  0  0  0  0  0  0
  156.2724  138.0116  190.9072 C   0  0  0  0  0  0  0  0  0  0  0  0
  155.4490  137.0424  190.1651 C   0  0  0  0  0  0  0  0  0  0  0  0
  156.1667  136.1455  189.2729 N   0  0  0  0  0  0  0  0  0  0  0  0
  156.7241  136.4060  188.0524 C   0  0  0  0  0  0  0  0  0  0  0  0
  157.3001  135.3433  187.5236 N   0  0  0  0  0  0  0  0  0  0  0  0
  157.1492  134.3239  188.3756 C   0  0  0  0  0  0  0  0  0  0  0  0
  157.5029  133.0385  188.3979 N   0  0  0  0  0  0  0  0  0  0  0  0
  158.2387  132.5047  187.2696 C   0  0  0  0  0  0  0  0  0  0  0  0
  157.1996  132.2296  189.4277 C   0  0  0  0  0  0  0  0  0  0  0  0
  157.5561  131.0061  189.4106 O   0  0  0  0  0  0  0  0  0  0  0  0
  156.5238  132.6594  190.4971 N   0  0  0  0  0  0  0  0  0  0  0  0
  156.1476  133.9706  190.5042 C   0  0  0  0  0  0  0  0  0  0  0  0
  155.5172  134.4234  191.4728 O   0  0  0  0  0  0  0  0  0  0  0  0
  156.4401  134.8390  189.4628 C   0  0  0  0  0  0  0  0  0  0  0  0
  156.1635  131.8642  191.6293 C   0  0  0  0  0  0  0  0  0  0  0  0
  154.8647  131.2334  191.4397 C   0  0  0  0  0  0  0  0  0  0  0  0
  153.8299  130.7430  191.2887 N   0  0  0  0  0  0  0  0  0  0  0  0
 25 26  1  0  0  0
 26  1  1  0  0  0
  1  2  2  0  0  0
  1  3  1  0  0  0
  3  5  1  0  0  0
  5  6  2  0  0  0
  6  7  1  0  0  0
  7  8  2  0  0  0
  8  9  1  0  0  0
  9 10  2  0  0  0
  9 11  1  0  0  0
 11 12  2  0  0  0
 12 13  1  0  0  0
 13 14  2  0  0  0
 14 15  1  0  0  0
 15 16  2  0  0  0
 14 17  1  0  0  0
 17 18  1  0  0  0
 18 19  1  0  0  0
 19 20  1  0  0  0
 20 21  1  0  0  0
 20 22  1  0  0  0
 22 23  1  0  0  0
 22 24  1  0  0  0
 26 27  1  0  0  0
 27 28  1  0  0  0
 28 29  2  0  0  0
 29 30  1  0  0  0
 30 31  1  0  0  0
 31 32  1  0  0  0
 31 33  1  0  0  0
 33 34  2  0  0  0
 33 35  1  0  0  0
 35 39  1  0  0  0
 39 40  1  0  0  0
 40 41  3  0  0  0
 35 36  1  0  0  0
 36 37  2  0  0  0
 36 38  1  0  0  0
 10  5  1  0  0  0
 16 11  1  0  0  0
 21 17  1  0  0  0
 38 27  1  0  0  0
 22 19  1  0  0  0
 38 30  2  0  0  0
  3  4  1  0  0  0
M  END
> <minimizedAffinity>
-7.93927

> <CNNscore>
0.2064115703

> <CNNaffinity>
6.6193895340

> <CNN_VS>
1.3663185835

> <CNNaffinity_variance>
0.1296255887

$$$$
[H]c1nc([H])c(N([H])C(=O)[C@@]([H])(n2c([H])nc3c2c(=O)n(C([H])([H])C#N)c(=O)n3C([H])([H])[H])C([H])([H])[H])nc1-c1c([H])nc(N2C([H])([H])C3([H])C(F)(F)C3([H])C2([H])[H])c([H])c1[H]


 41 46  0  0  0  0  0  0  0  0999 V2000
  154.3937  137.0049  189.6567 C   0  0  0  0  0  0  0  0  0  0  0  0
  153.7638  136.8494  190.8668 O   0  0  0  0  0  0  0  0  0  0  0  0
  153.4745  137.0385  188.6505 N   0  0  0  0  0  0  0  0  0  0  0  0
  152.4195  136.9336  189.0839 H   0  0  0  0  0  0  0  0  0  0  0  0
  153.3734  137.1212  187.2746 C   0  0  0  0  0  0  0  0  0  0  0  0
  152.6170  136.3495  186.4779 C   0  0  0  0  0  0  0  0  0  0  0  0
  152.6346  136.4853  185.1386 N   0  0  0  0  0  0  0  0  0  0  0  0
  153.4187  137.4093  184.5605 C   0  0  0  0  0  0  0  0  0  0  0  0
  154.2169  138.2333  185.3150 C   0  0  0  0  0  0  0  0  0  0  0  0
  154.1564  138.0501  186.6396 N   0  0  0  0  0  0  0  0  0  0  0  0
  155.0678  139.2360  184.7002 C   0  0  0  0  0  0  0  0  0  0  0  0
  156.3967  139.3875  185.0825 C   0  0  0  0  0  0  0  0  0  0  0  0
  157.1339  140.3620  184.4489 C   0  0  0  0  0  0  0  0  0  0  0  0
  156.6158  141.1753  183.4715 C   0  0  0  0  0  0  0  0  0  0  0  0
  155.3400  140.9994  183.1334 N   0  0  0  0  0  0  0  0  0  0  0  0
  154.5739  140.0555  183.7265 C   0  0  0  0  0  0  0  0  0  0  0  0
  157.3719  142.1797  182.8170 N   0  0  0  0  0  0  0  0  0  0  0  0
  156.8703  143.2327  181.9572 C   0  0  0  0  0  0  0  0  0  0  0  0
  157.8312  143.1721  180.7983 C   0  0  0  0  0  0  0  0  0  0  0  0
  159.1192  142.5385  181.3710 C   0  0  0  0  0  0  0  0  0  0  0  0
  158.8180  142.3856  182.8560 C   0  0  0  0  0  0  0  0  0  0  0  0
  159.1170  143.9044  180.8221 C   0  0  0  0  0  0  0  0  0  0  0  0
  159.7290  144.1098  179.6012 F   0  0  0  0  0  0  0  0  0  0  0  0
  159.2406  144.9680  181.6866 F   0  0  0  0  0  0  0  0  0  0  0  0
  156.6884  138.0949  189.3240 C   0  0  0  0  0  0  0  0  0  0  0  0
  155.8088  137.0742  189.9176 C   0  0  0  0  0  0  0  0  0  0  0  0
  156.4586  135.8511  190.3619 N   0  0  0  0  0  0  0  0  0  0  0  0
  156.8597  135.4944  191.6189 C   0  0  0  0  0  0  0  0  0  0  0  0
  157.4195  134.3001  191.6500 N   0  0  0  0  0  0  0  0  0  0  0  0
  157.4146  133.8084  190.4066 C   0  0  0  0  0  0  0  0  0  0  0  0
  157.8281  132.6825  189.8240 N   0  0  0  0  0  0  0  0  0  0  0  0
  158.4531  131.6676  190.6478 C   0  0  0  0  0  0  0  0  0  0  0  0
  157.6835  132.4630  188.5058 C   0  0  0  0  0  0  0  0  0  0  0  0
  158.0924  131.3730  187.9872 O   0  0  0  0  0  0  0  0  0  0  0  0
  157.1161  133.3577  187.6918 N   0  0  0  0  0  0  0  0  0  0  0  0
  156.6824  134.5204  188.2582 C   0  0  0  0  0  0  0  0  0  0  0  0
  156.1478  135.3871  187.5485 O   0  0  0  0  0  0  0  0  0  0  0  0
  156.8120  134.7870  189.6132 C   0  0  0  0  0  0  0  0  0  0  0  0
  156.9262  133.1994  186.2836 C   0  0  0  0  0  0  0  0  0  0  0  0
  155.7203  132.4354  185.9960 C   0  0  0  0  0  0  0  0  0  0  0  0
  154.7620  131.8357  185.7592 N   0  0  0  0  0  0  0  0  0  0  0  0
 25 26  1  0  0  0
 26  1  1  0  0  0
  1  2  2  0  0  0
  1  3  1  0  0  0
  3  5  1  0  0  0
  5  6  2  0  0  0
  6  7  1  0  0  0
  7  8  2  0  0  0
  8  9  1  0  0  0
  9 10  2  0  0  0
  9 11  1  0  0  0
 11 12  2  0  0  0
 12 13  1  0  0  0
 13 14  2  0  0  0
 14 15  1  0  0  0
 15 16  2  0  0  0
 14 17  1  0  0  0
 17 18  1  0  0  0
 18 19  1  0  0  0
 19 20  1  0  0  0
 20 21  1  0  0  0
 20 22  1  0  0  0
 22 23  1  0  0  0
 22 24  1  0  0  0
 26 27  1  0  0  0
 27 28  1  0  0  0
 28 29  2  0  0  0
 29 30  1  0  0  0
 30 31  1  0  0  0
 31 32  1  0  0  0
 31 33  1  0  0  0
 33 34  2  0  0  0
 33 35  1  0  0  0
 35 39  1  0  0  0
 39 40  1  0  0  0
 40 41  3  0  0  0
 35 36  1  0  0  0
 36 37  2  0  0  0
 36 38  1  0  0  0
 10  5  1  0  0  0
 16 11  1  0  0  0
 21 17  1  0  0  0
 38 27  1  0  0  0
 22 19  1  0  0  0
 38 30  2  0  0  0
  3  4  1  0  0  0
M  END
> <minimizedAffinity>
-7.92398

> <CNNscore>
0.1695585102

> <CNNaffinity>
6.4675188065

> <CNN_VS>
1.0966228247

> <CNNaffinity_variance>
0.2836504281

$$$$
[H]c1nc([H])c(N([H])C(=O)[C@@]([H])(n2c([H])nc3c2c(=O)n(C([H])([H])C#N)c(=O)n3C([H])([H])[H])C([H])([H])[H])nc1-c1c([H])nc(N2C([H])([H])C3([H])C(F)(F)C3([H])C2([H])[H])c([H])c1[H]


 41 46  0  0  0  0  0  0  0  0999 V2000
  148.3175  137.5507  185.8775 C   0  0  0  0  0  0  0  0  0  0  0  0
  147.3140  138.3211  186.4112 O   0  0  0  0  0  0  0  0  0  0  0  0
  149.3378  137.4241  186.7728 N   0  0  0  0  0  0  0  0  0  0  0  0
  149.0831  137.9902  187.7353 H   0  0  0  0  0  0  0  0  0  0  0  0
  150.5982  136.8744  186.9120 C   0  0  0  0  0  0  0  0  0  0  0  0
  150.9126  135.7424  187.5617 C   0  0  0  0  0  0  0  0  0  0  0  0
  152.1872  135.3252  187.6786 N   0  0  0  0  0  0  0  0  0  0  0  0
  153.1875  136.0405  187.1396 C   0  0  0  0  0  0  0  0  0  0  0  0
  152.9377  137.2074  186.4603 C   0  0  0  0  0  0  0  0  0  0  0  0
  151.6519  137.5702  186.3781 N   0  0  0  0  0  0  0  0  0  0  0  0
  154.0116  137.9880  185.8731 C   0  0  0  0  0  0  0  0  0  0  0  0
  153.7934  138.7925  184.7594 C   0  0  0  0  0  0  0  0  0  0  0  0
  154.8659  139.5001  184.2657 C   0  0  0  0  0  0  0  0  0  0  0  0
  156.1201  139.4424  184.8213 C   0  0  0  0  0  0  0  0  0  0  0  0
  156.2888  138.6610  185.8862 N   0  0  0  0  0  0  0  0  0  0  0  0
  155.2666  137.9459  186.4089 C   0  0  0  0  0  0  0  0  0  0  0  0
  157.2267  140.1695  184.3156 N   0  0  0  0  0  0  0  0  0  0  0  0
  158.1626  139.7424  183.2951 C   0  0  0  0  0  0  0  0  0  0  0  0
  159.4860  140.1154  183.9110 C   0  0  0  0  0  0  0  0  0  0  0  0
  159.1638  141.2494  184.9105 C   0  0  0  0  0  0  0  0  0  0  0  0
  157.6771  141.5050  184.7010 C   0  0  0  0  0  0  0  0  0  0  0  0
  160.0530  141.4739  183.7590 C   0  0  0  0  0  0  0  0  0  0  0  0
  161.4056  141.6055  184.0047 F   0  0  0  0  0  0  0  0  0  0  0  0
  159.6045  142.2497  182.7146 F   0  0  0  0  0  0  0  0  0  0  0  0
  147.5223  135.7870  184.1978 C   0  0  0  0  0  0  0  0  0  0  0  0
  147.9015  137.1645  184.5535 C   0  0  0  0  0  0  0  0  0  0  0  0
  148.3309  138.0132  183.4530 N   0  0  0  0  0  0  0  0  0  0  0  0
  147.6683  139.0453  182.8497 C   0  0  0  0  0  0  0  0  0  0  0  0
  148.3687  139.5935  181.8752 N   0  0  0  0  0  0  0  0  0  0  0  0
  149.5348  138.9450  181.7884 C   0  0  0  0  0  0  0  0  0  0  0  0
  150.6226  139.0357  181.0226 N   0  0  0  0  0  0  0  0  0  0  0  0
  150.6608  140.0565  179.9950 C   0  0  0  0  0  0  0  0  0  0  0  0
  151.6761  138.2150  181.1742 C   0  0  0  0  0  0  0  0  0  0  0  0
  152.6975  138.3345  180.4214 O   0  0  0  0  0  0  0  0  0  0  0  0
  151.7039  137.2539  182.1020 N   0  0  0  0  0  0  0  0  0  0  0  0
  150.6052  137.1356  182.9018 C   0  0  0  0  0  0  0  0  0  0  0  0
  150.5768  136.2596  183.7806 O   0  0  0  0  0  0  0  0  0  0  0  0
  149.4974  137.9613  182.7791 C   0  0  0  0  0  0  0  0  0  0  0  0
  152.7832  136.3435  182.3258 C   0  0  0  0  0  0  0  0  0  0  0  0
  152.5412  135.0662  181.6695 C   0  0  0  0  0  0  0  0  0  0  0  0
  152.3388  134.0559  181.1476 N   0  0  0  0  0  0  0  0  0  0  0  0
 25 26  1  0  0  0
 26  1  1  0  0  0
  1  2  2  0  0  0
  1  3  1  0  0  0
  3  5  1  0  0  0
  5  6  2  0  0  0
  6  7  1  0  0  0
  7  8  2  0  0  0
  8  9  1  0  0  0
  9 10  2  0  0  0
  9 11  1  0  0  0
 11 12  2  0  0  0
 12 13  1  0  0  0
 13 14  2  0  0  0
 14 15  1  0  0  0
 15 16  2  0  0  0
 14 17  1  0  0  0
 17 18  1  0  0  0
 18 19  1  0  0  0
 19 20  1  0  0  0
 20 21  1  0  0  0
 20 22  1  0  0  0
 22 23  1  0  0  0
 22 24  1  0  0  0
 26 27  1  0  0  0
 27 28  1  0  0  0
 28 29  2  0  0  0
 29 30  1  0  0  0
 30 31  1  0  0  0
 31 32  1  0  0  0
 31 33  1  0  0  0
 33 34  2  0  0  0
 33 35  1  0  0  0
 35 39  1  0  0  0
 39 40  1  0  0  0
 40 41  3  0  0  0
 35 36  1  0  0  0
 36 37  2  0  0  0
 36 38  1  0  0  0
 10  5  1  0  0  0
 16 11  1  0  0  0
 21 17  1  0  0  0
 38 27  1  0  0  0
 22 19  1  0  0  0
 38 30  2  0  0  0
  3  4  1  0  0  0
M  END
> <minimizedAffinity>
-7.72073

> <CNNscore>
0.1518797874

> <CNNaffinity>
6.1924486160

> <CNN_VS>
0.9405077696

> <CNNaffinity_variance>
0.5387681127

$$$$
[H]c1nc([H])c(N([H])C(=O)[C@@]([H])(n2c([H])nc3c2c(=O)n(C([H])([H])C#N)c(=O)n3C([H])([H])[H])C([H])([H])[H])nc1-c1c([H])nc(N2C([H])([H])C3([H])C(F)(F)C3([H])C2([H])[H])c([H])c1[H]


 41 46  0  0  0  0  0  0  0  0999 V2000
  156.2958  136.3150  189.9114 C   0  0  0  0  0  0  0  0  0  0  0  0
  156.5637  136.5444  191.2383 O   0  0  0  0  0  0  0  0  0  0  0  0
  155.3248  137.1667  189.4751 N   0  0  0  0  0  0  0  0  0  0  0  0
  154.9948  137.8517  190.3316 H   0  0  0  0  0  0  0  0  0  0  0  0
  154.5690  137.4711  188.3587 C   0  0  0  0  0  0  0  0  0  0  0  0
  153.2790  137.1605  188.1540 C   0  0  0  0  0  0  0  0  0  0  0  0
  152.6533  137.4637  187.0012 N   0  0  0  0  0  0  0  0  0  0  0  0
  153.3134  138.0936  186.0162 C   0  0  0  0  0  0  0  0  0  0  0  0
  154.6339  138.4421  186.1584 C   0  0  0  0  0  0  0  0  0  0  0  0
  155.2008  138.1138  187.3257 N   0  0  0  0  0  0  0  0  0  0  0  0
  155.3567  139.1240  185.1001 C   0  0  0  0  0  0  0  0  0  0  0  0
  156.7374  139.2841  185.1563 C   0  0  0  0  0  0  0  0  0  0  0  0
  157.3447  139.9424  184.1111 C   0  0  0  0  0  0  0  0  0  0  0  0
  156.6510  140.4378  183.0347 C   0  0  0  0  0  0  0  0  0  0  0  0
  155.3309  140.2646  183.0176 N   0  0  0  0  0  0  0  0  0  0  0  0
  154.6875  139.6245  184.0205 C   0  0  0  0  0  0  0  0  0  0  0  0
  157.2730  141.1161  181.9568 N   0  0  0  0  0  0  0  0  0  0  0  0
  158.5782  140.8458  181.3885 C   0  0  0  0  0  0  0  0  0  0  0  0
  159.1608  142.2306  181.2748 C   0  0  0  0  0  0  0  0  0  0  0  0
  157.9429  143.1793  181.2037 C   0  0  0  0  0  0  0  0  0  0  0  0
  156.7490  142.2341  181.1755 C   0  0  0  0  0  0  0  0  0  0  0  0
  158.9032  143.0822  180.0922 C   0  0  0  0  0  0  0  0  0  0  0  0
  159.7710  144.1383  179.8956 F   0  0  0  0  0  0  0  0  0  0  0  0
  158.5090  142.4680  178.9255 F   0  0  0  0  0  0  0  0  0  0  0  0
  157.5857  135.0670  188.0830 C   0  0  0  0  0  0  0  0  0  0  0  0
  157.1575  135.2440  189.4805 C   0  0  0  0  0  0  0  0  0  0  0  0
  157.2019  134.0553  190.3176 N   0  0  0  0  0  0  0  0  0  0  0  0
  158.2489  133.5387  191.0283 C   0  0  0  0  0  0  0  0  0  0  0  0
  157.9232  132.4380  191.6786 N   0  0  0  0  0  0  0  0  0  0  0  0
  156.6369  132.1737  191.4263 C   0  0  0  0  0  0  0  0  0  0  0  0
  155.7687  131.2278  191.7858 N   0  0  0  0  0  0  0  0  0  0  0  0
  156.2230  130.1724  192.6685 C   0  0  0  0  0  0  0  0  0  0  0  0
  154.4948  131.2241  191.3570 C   0  0  0  0  0  0  0  0  0  0  0  0
  153.6959  130.3013  191.7239 O   0  0  0  0  0  0  0  0  0  0  0  0
  154.0137  132.1675  190.5425 N   0  0  0  0  0  0  0  0  0  0  0  0
  154.8779  133.1498  190.1566 C   0  0  0  0  0  0  0  0  0  0  0  0
  154.4843  134.0517  189.4001 O   0  0  0  0  0  0  0  0  0  0  0  0
  156.1996  133.1912  190.5756 C   0  0  0  0  0  0  0  0  0  0  0  0
  152.6754  132.2337  190.0437 C   0  0  0  0  0  0  0  0  0  0  0  0
  151.7959  132.9185  190.9809 C   0  0  0  0  0  0  0  0  0  0  0  0
  151.1028  133.4713  191.7212 N   0  0  0  0  0  0  0  0  0  0  0  0
 25 26  1  0  0  0
 26  1  1  0  0  0
  1  2  2  0  0  0
  1  3  1  0  0  0
  3  5  1  0  0  0
  5  6  2  0  0  0
  6  7  1  0  0  0
  7  8  2  0  0  0
  8  9  1  0  0  0
  9 10  2  0  0  0
  9 11  1  0  0  0
 11 12  2  0  0  0
 12 13  1  0  0  0
 13 14  2  0  0  0
 14 15  1  0  0  0
 15 16  2  0  0  0
 14 17  1  0  0  0
 17 18  1  0  0  0
 18 19  1  0  0  0
 19 20  1  0  0  0
 20 21  1  0  0  0
 20 22  1  0  0  0
 22 23  1  0  0  0
 22 24  1  0  0  0
 26 27  1  0  0  0
 27 28  1  0  0  0
 28 29  2  0  0  0
 29 30  1  0  0  0
 30 31  1  0  0  0
 31 32  1  0  0  0
 31 33  1  0  0  0
 33 34  2  0  0  0
 33 35  1  0  0  0
 35 39  1  0  0  0
 39 40  1  0  0  0
 40 41  3  0  0  0
 35 36  1  0  0  0
 36 37  2  0  0  0
 36 38  1  0  0  0
 10  5  1  0  0  0
 16 11  1  0  0  0
 21 17  1  0  0  0
 38 27  1  0  0  0
 22 19  1  0  0  0
 38 30  2  0  0  0
  3  4  1  0  0  0
M  END
> <minimizedAffinity>
-7.51238

> <CNNscore>
0.1473558843

> <CNNaffinity>
6.3114995956

> <CNN_VS>
0.9300366044

> <CNNaffinity_variance>
0.0759284943

$$$$
[H]c1nc([H])c(N([H])C(=O)[C@@]([H])(n2c([H])nc3c2c(=O)n(C([H])([H])C#N)c(=O)n3C([H])([H])[H])C([H])([H])[H])nc1-c1c([H])nc(N2C([H])([H])C3([H])C(F)(F)C3([H])C2([H])[H])c([H])c1[H]


 41 46  0  0  0  0  0  0  0  0999 V2000
  150.9767  139.5022  179.9271 C   0  0  0  0  0  0  0  0  0  0  0  0
  151.1159  140.3072  178.8235 O   0  0  0  0  0  0  0  0  0  0  0  0
  152.0699  139.6187  180.7333 N   0  0  0  0  0  0  0  0  0  0  0  0
  152.8118  140.3626  180.2773 H   0  0  0  0  0  0  0  0  0  0  0  0
  152.6149  139.1217  181.9021 C   0  0  0  0  0  0  0  0  0  0  0  0
  152.1142  138.1378  182.6660 C   0  0  0  0  0  0  0  0  0  0  0  0
  152.7047  137.7668  183.8175 N   0  0  0  0  0  0  0  0  0  0  0  0
  153.8244  138.3796  184.2340 C   0  0  0  0  0  0  0  0  0  0  0  0
  154.3917  139.3930  183.5014 C   0  0  0  0  0  0  0  0  0  0  0  0
  153.7589  139.7170  182.3673 N   0  0  0  0  0  0  0  0  0  0  0  0
  155.6024  140.0616  183.9422 C   0  0  0  0  0  0  0  0  0  0  0  0
  156.6140  139.3657  184.5961 C   0  0  0  0  0  0  0  0  0  0  0  0
  157.7290  140.0754  184.9803 C   0  0  0  0  0  0  0  0  0  0  0  0
  157.8773  141.4202  184.7465 C   0  0  0  0  0  0  0  0  0  0  0  0
  156.8871  142.0509  184.1180 N   0  0  0  0  0  0  0  0  0  0  0  0
  155.7713  141.3981  183.7204 C   0  0  0  0  0  0  0  0  0  0  0  0
  159.0239  142.1542  185.1406 N   0  0  0  0  0  0  0  0  0  0  0  0
  160.1309  142.5663  184.3013 C   0  0  0  0  0  0  0  0  0  0  0  0
  161.3194  142.1945  185.1495 C   0  0  0  0  0  0  0  0  0  0  0  0
  160.7940  142.1839  186.6029 C   0  0  0  0  0  0  0  0  0  0  0  0
  159.3538  142.6611  186.4707 C   0  0  0  0  0  0  0  0  0  0  0  0
  161.8522  143.1151  186.1785 C   0  0  0  0  0  0  0  0  0  0  0  0
  163.1397  142.8701  186.6139 F   0  0  0  0  0  0  0  0  0  0  0  0
  161.5534  144.4538  186.0667 F   0  0  0  0  0  0  0  0  0  0  0  0
  148.9917  138.6802  178.5312 C   0  0  0  0  0  0  0  0  0  0  0  0
  149.7075  138.8311  179.8090 C   0  0  0  0  0  0  0  0  0  0  0  0
  148.8938  138.7418  181.0114 N   0  0  0  0  0  0  0  0  0  0  0  0
  148.1890  139.7225  181.6514 C   0  0  0  0  0  0  0  0  0  0  0  0
  147.5619  139.2757  182.7228 N   0  0  0  0  0  0  0  0  0  0  0  0
  147.8248  137.9702  182.8418 C   0  0  0  0  0  0  0  0  0  0  0  0
  147.4878  137.0027  183.6953 N   0  0  0  0  0  0  0  0  0  0  0  0
  146.6242  137.3350  184.8102 C   0  0  0  0  0  0  0  0  0  0  0  0
  147.9220  135.7386  183.5533 C   0  0  0  0  0  0  0  0  0  0  0  0
  147.5768  134.8425  184.3912 O   0  0  0  0  0  0  0  0  0  0  0  0
  148.7198  135.3672  182.5480 N   0  0  0  0  0  0  0  0  0  0  0  0
  149.0826  136.3348  181.6574 C   0  0  0  0  0  0  0  0  0  0  0  0
  149.8228  136.0455  180.7040 O   0  0  0  0  0  0  0  0  0  0  0  0
  148.6572  137.6505  181.7670 C   0  0  0  0  0  0  0  0  0  0  0  0
  149.2229  134.0471  182.3282 C   0  0  0  0  0  0  0  0  0  0  0  0
  150.5298  133.8705  182.9460 C   0  0  0  0  0  0  0  0  0  0  0  0
  151.5668  133.7203  183.4320 N   0  0  0  0  0  0  0  0  0  0  0  0
 25 26  1  0  0  0
 26  1  1  0  0  0
  1  2  2  0  0  0
  1  3  1  0  0  0
  3  5  1  0  0  0
  5  6  2  0  0  0
  6  7  1  0  0  0
  7  8  2  0  0  0
  8  9  1  0  0  0
  9 10  2  0  0  0
  9 11  1  0  0  0
 11 12  2  0  0  0
 12 13  1  0  0  0
 13 14  2  0  0  0
 14 15  1  0  0  0
 15 16  2  0  0  0
 14 17  1  0  0  0
 17 18  1  0  0  0
 18 19  1  0  0  0
 19 20  1  0  0  0
 20 21  1  0  0  0
 20 22  1  0  0  0
 22 23  1  0  0  0
 22 24  1  0  0  0
 26 27  1  0  0  0
 27 28  1  0  0  0
 28 29  2  0  0  0
 29 30  1  0  0  0
 30 31  1  0  0  0
 31 32  1  0  0  0
 31 33  1  0  0  0
 33 34  2  0  0  0
 33 35  1  0  0  0
 35 39  1  0  0  0
 39 40  1  0  0  0
 40 41  3  0  0  0
 35 36  1  0  0  0
 36 37  2  0  0  0
 36 38  1  0  0  0
 10  5  1  0  0  0
 16 11  1  0  0  0
 21 17  1  0  0  0
 38 27  1  0  0  0
 22 19  1  0  0  0
 38 30  2  0  0  0
  3  4  1  0  0  0
M  END
> <minimizedAffinity>
-8.54699

> <CNNscore>
0.1451965123

> <CNNaffinity>
6.4571886063

> <CNN_VS>
0.9375612736

> <CNNaffinity_variance>
0.0934468880

$$$$
[H]c1nc([H])c(N([H])C(=O)[C@@]([H])(n2c([H])nc3c2c(=O)n(C([H])([H])C#N)c(=O)n3C([H])([H])[H])C([H])([H])[H])nc1-c1c([H])nc(N2C([H])([H])C3([H])C(F)(F)C3([H])C2([H])[H])c([H])c1[H]


 41 46  0  0  0  0  0  0  0  0999 V2000
  150.6613  138.7531  181.3348 C   0  0  0  0  0  0  0  0  0  0  0  0
  149.6564  139.2022  180.5140 O   0  0  0  0  0  0  0  0  0  0  0  0
  151.6030  139.7253  181.4979 N   0  0  0  0  0  0  0  0  0  0  0  0
  151.3016  140.6612  180.9106 H   0  0  0  0  0  0  0  0  0  0  0  0
  152.8224  139.9652  182.1027 C   0  0  0  0  0  0  0  0  0  0  0  0
  153.8664  140.6211  181.5713 C   0  0  0  0  0  0  0  0  0  0  0  0
  155.0305  140.7524  182.2346 N   0  0  0  0  0  0  0  0  0  0  0  0
  155.1762  140.2245  183.4605 C   0  0  0  0  0  0  0  0  0  0  0  0
  154.1492  139.5421  184.0646 C   0  0  0  0  0  0  0  0  0  0  0  0
  153.0179  139.4444  183.3557 N   0  0  0  0  0  0  0  0  0  0  0  0
  154.2960  138.9682  185.3899 C   0  0  0  0  0  0  0  0  0  0  0  0
  153.2597  139.0179  186.3167 C   0  0  0  0  0  0  0  0  0  0  0  0
  153.4817  138.4493  187.5504 C   0  0  0  0  0  0  0  0  0  0  0  0
  154.6663  137.8461  187.8941 C   0  0  0  0  0  0  0  0  0  0  0  0
  155.6339  137.8188  186.9798 N   0  0  0  0  0  0  0  0  0  0  0  0
  155.4648  138.3635  185.7533 C   0  0  0  0  0  0  0  0  0  0  0  0
  154.8983  137.2597  189.1635 N   0  0  0  0  0  0  0  0  0  0  0  0
  154.6790  137.8658  190.4613 C   0  0  0  0  0  0  0  0  0  0  0  0
  155.9510  137.5135  191.1879 C   0  0  0  0  0  0  0  0  0  0  0  0
  156.4888  136.2510  190.4770 C   0  0  0  0  0  0  0  0  0  0  0  0
  155.4073  135.9218  189.4565 C   0  0  0  0  0  0  0  0  0  0  0  0
  156.1032  136.2236  191.8974 C   0  0  0  0  0  0  0  0  0  0  0  0
  157.1118  136.1559  192.8383 F   0  0  0  0  0  0  0  0  0  0  0  0
  154.9619  135.5471  192.2630 F   0  0  0  0  0  0  0  0  0  0  0  0
  149.6692  136.4499  180.8103 C   0  0  0  0  0  0  0  0  0  0  0  0
  150.3307  137.4038  181.7160 C   0  0  0  0  0  0  0  0  0  0  0  0
  150.1920  137.1351  183.1387 N   0  0  0  0  0  0  0  0  0  0  0  0
  149.1505  137.4264  183.9745 C   0  0  0  0  0  0  0  0  0  0  0  0
  149.3730  137.0327  185.2140 N   0  0  0  0  0  0  0  0  0  0  0  0
  150.5800  136.4589  185.2555 C   0  0  0  0  0  0  0  0  0  0  0  0
  151.3332  135.8876  186.1958 N   0  0  0  0  0  0  0  0  0  0  0  0
  150.8142  135.8141  187.5466 C   0  0  0  0  0  0  0  0  0  0  0  0
  152.5499  135.3819  185.9300 C   0  0  0  0  0  0  0  0  0  0  0  0
  153.2388  134.8435  186.8573 O   0  0  0  0  0  0  0  0  0  0  0  0
  153.0855  135.4178  184.7065 N   0  0  0  0  0  0  0  0  0  0  0  0
  152.3389  135.9963  183.7222 C   0  0  0  0  0  0  0  0  0  0  0  0
  152.7877  136.0571  182.5665 O   0  0  0  0  0  0  0  0  0  0  0  0
  151.0797  136.5300  183.9533 C   0  0  0  0  0  0  0  0  0  0  0  0
  154.3692  134.9033  184.3440 C   0  0  0  0  0  0  0  0  0  0  0  0
  154.2929  133.4915  183.9953 C   0  0  0  0  0  0  0  0  0  0  0  0
  154.2223  132.3712  183.7231 N   0  0  0  0  0  0  0  0  0  0  0  0
 25 26  1  0  0  0
 26  1  1  0  0  0
  1  2  2  0  0  0
  1  3  1  0  0  0
  3  5  1  0  0  0
  5  6  2  0  0  0
  6  7  1  0  0  0
  7  8  2  0  0  0
  8  9  1  0  0  0
  9 10  2  0  0  0
  9 11  1  0  0  0
 11 12  2  0  0  0
 12 13  1  0  0  0
 13 14  2  0  0  0
 14 15  1  0  0  0
 15 16  2  0  0  0
 14 17  1  0  0  0
 17 18  1  0  0  0
 18 19  1  0  0  0
 19 20  1  0  0  0
 20 21  1  0  0  0
 20 22  1  0  0  0
 22 23  1  0  0  0
 22 24  1  0  0  0
 26 27  1  0  0  0
 27 28  1  0  0  0
 28 29  2  0  0  0
 29 30  1  0  0  0
 30 31  1  0  0  0
 31 32  1  0  0  0
 31 33  1  0  0  0
 33 34  2  0  0  0
 33 35  1  0  0  0
 35 39  1  0  0  0
 39 40  1  0  0  0
 40 41  3  0  0  0
 35 36  1  0  0  0
 36 37  2  0  0  0
 36 38  1  0  0  0
 10  5  1  0  0  0
 16 11  1  0  0  0
 21 17  1  0  0  0
 38 27  1  0  0  0
 22 19  1  0  0  0
 38 30  2  0  0  0
  3  4  1  0  0  0
M  END
> <minimizedAffinity>
-6.74987

> <CNNscore>
0.1446355581

> <CNNaffinity>
6.0990362167

> <CNN_VS>
0.8821375370

> <CNNaffinity_variance>
0.4564152658

$$$$
[H]c1nc([H])c(N([H])C(=O)[C@@]([H])(n2c([H])nc3c2c(=O)n(C([H])([H])C#N)c(=O)n3C([H])([H])[H])C([H])([H])[H])nc1-c1c([H])nc(N2C([H])([H])C3([H])C(F)(F)C3([H])C2([H])[H])c([H])c1[H]


 41 46  0  0  0  0  0  0  0  0999 V2000
  148.2544  136.9200  182.9435 C   0  0  0  0  0  0  0  0  0  0  0  0
  146.9314  136.8025  183.2915 O   0  0  0  0  0  0  0  0  0  0  0  0
  148.4120  137.9207  182.0311 N   0  0  0  0  0  0  0  0  0  0  0  0
  147.3979  138.4012  181.8019 H   0  0  0  0  0  0  0  0  0  0  0  0
  149.3725  138.5399  181.2538 C   0  0  0  0  0  0  0  0  0  0  0  0
  149.3085  138.7721  179.9330 C   0  0  0  0  0  0  0  0  0  0  0  0
  150.3300  139.3402  179.2649 N   0  0  0  0  0  0  0  0  0  0  0  0
  151.4514  139.6938  179.9129 C   0  0  0  0  0  0  0  0  0  0  0  0
  151.5842  139.4867  181.2638 C   0  0  0  0  0  0  0  0  0  0  0  0
  150.5361  138.9183  181.8721 N   0  0  0  0  0  0  0  0  0  0  0  0
  152.7921  139.8660  181.9742 C   0  0  0  0  0  0  0  0  0  0  0  0
  153.4143  141.0877  181.7388 C   0  0  0  0  0  0  0  0  0  0  0  0
  154.5553  141.3692  182.4553 C   0  0  0  0  0  0  0  0  0  0  0  0
  155.0924  140.5048  183.3770 C   0  0  0  0  0  0  0  0  0  0  0  0
  154.4678  139.3454  183.5741 N   0  0  0  0  0  0  0  0  0  0  0  0
  153.3436  139.0223  182.8949 C   0  0  0  0  0  0  0  0  0  0  0  0
  156.2670  140.7914  184.1167 N   0  0  0  0  0  0  0  0  0  0  0  0
  156.9035  142.0824  184.2836 C   0  0  0  0  0  0  0  0  0  0  0  0
  158.3521  141.7491  184.0377 C   0  0  0  0  0  0  0  0  0  0  0  0
  158.4834  140.2437  184.3618 C   0  0  0  0  0  0  0  0  0  0  0  0
  157.1013  139.8620  184.8751 C   0  0  0  0  0  0  0  0  0  0  0  0
  159.2272  141.2587  185.1257 C   0  0  0  0  0  0  0  0  0  0  0  0
  160.5878  141.3585  184.9112 F   0  0  0  0  0  0  0  0  0  0  0  0
  158.8534  141.5188  186.4244 F   0  0  0  0  0  0  0  0  0  0  0  0
  148.6126  134.4992  183.7022 C   0  0  0  0  0  0  0  0  0  0  0  0
  148.9821  135.9243  183.6880 C   0  0  0  0  0  0  0  0  0  0  0  0
  149.7717  136.3908  184.8170 N   0  0  0  0  0  0  0  0  0  0  0  0
  149.3564  137.0022  185.9667 C   0  0  0  0  0  0  0  0  0  0  0  0
  150.3582  137.2887  186.7760 N   0  0  0  0  0  0  0  0  0  0  0  0
  151.4901  136.8772  186.1951 C   0  0  0  0  0  0  0  0  0  0  0  0
  152.7850  136.8898  186.5127 N   0  0  0  0  0  0  0  0  0  0  0  0
  153.1797  137.4692  187.7807 C   0  0  0  0  0  0  0  0  0  0  0  0
  153.7275  136.3851  185.6980 C   0  0  0  0  0  0  0  0  0  0  0  0
  154.9552  136.4164  186.0386 O   0  0  0  0  0  0  0  0  0  0  0  0
  153.4299  135.8374  184.5163 N   0  0  0  0  0  0  0  0  0  0  0  0
  152.1127  135.8095  184.1626 C   0  0  0  0  0  0  0  0  0  0  0  0
  151.7793  135.3123  183.0753 O   0  0  0  0  0  0  0  0  0  0  0  0
  151.1089  136.3189  184.9731 C   0  0  0  0  0  0  0  0  0  0  0  0
  154.3715  135.2807  183.5957 C   0  0  0  0  0  0  0  0  0  0  0  0
  154.6677  133.8918  183.9186 C   0  0  0  0  0  0  0  0  0  0  0  0
  154.8940  132.7901  184.1815 N   0  0  0  0  0  0  0  0  0  0  0  0
 25 26  1  0  0  0
 26  1  1  0  0  0
  1  2  2  0  0  0
  1  3  1  0  0  0
  3  5  1  0  0  0
  5  6  2  0  0  0
  6  7  1  0  0  0
  7  8  2  0  0  0
  8  9  1  0  0  0
  9 10  2  0  0  0
  9 11  1  0  0  0
 11 12  2  0  0  0
 12 13  1  0  0  0
 13 14  2  0  0  0
 14 15  1  0  0  0
 15 16  2  0  0  0
 14 17  1  0  0  0
 17 18  1  0  0  0
 18 19  1  0  0  0
 19 20  1  0  0  0
 20 21  1  0  0  0
 20 22  1  0  0  0
 22 23  1  0  0  0
 22 24  1  0  0  0
 26 27  1  0  0  0
 27 28  1  0  0  0
 28 29  2  0  0  0
 29 30  1  0  0  0
 30 31  1  0  0  0
 31 32  1  0  0  0
 31 33  1  0  0  0
 33 34  2  0  0  0
 33 35  1  0  0  0
 35 39  1  0  0  0
 39 40  1  0  0  0
 40 41  3  0  0  0
 35 36  1  0  0  0
 36 37  2  0  0  0
 36 38  1  0  0  0
 10  5  1  0  0  0
 16 11  1  0  0  0
 21 17  1  0  0  0
 38 27  1  0  0  0
 22 19  1  0  0  0
 38 30  2  0  0  0
  3  4  1  0  0  0
M  END
> <minimizedAffinity>
-7.45907

> <CNNscore>
0.1381071061

> <CNNaffinity>
6.2860307693

> <CNN_VS>
0.8681455255

> <CNNaffinity_variance>
0.5005050898

$$$$
[H]c1nc([H])c(N([H])C(=O)[C@@]([H])(n2c([H])nc3c2c(=O)n(C([H])([H])C#N)c(=O)n3C([H])([H])[H])C([H])([H])[H])nc1-c1c([H])nc(N2C([H])([H])C3([H])C(F)(F)C3([H])C2([H])[H])c([H])c1[H]


 41 46  0  0  0  0  0  0  0  0999 V2000
  152.0558  139.3464  181.4750 C   0  0  0  0  0  0  0  0  0  0  0  0
  151.2959  140.2156  180.7318 O   0  0  0  0  0  0  0  0  0  0  0  0
  152.9921  140.0343  182.1883 N   0  0  0  0  0  0  0  0  0  0  0  0
  152.8915  141.1563  181.9815 H   0  0  0  0  0  0  0  0  0  0  0  0
  154.0518  139.8450  183.0550 C   0  0  0  0  0  0  0  0  0  0  0  0
  155.3474  140.0922  182.8044 C   0  0  0  0  0  0  0  0  0  0  0  0
  156.3066  139.8209  183.7092 N   0  0  0  0  0  0  0  0  0  0  0  0
  155.9856  139.2907  184.9002 C   0  0  0  0  0  0  0  0  0  0  0  0
  154.6802  139.0137  185.2235 C   0  0  0  0  0  0  0  0  0  0  0  0
  153.7726  139.3046  184.2836 N   0  0  0  0  0  0  0  0  0  0  0  0
  154.3221  138.4411  186.5086 C   0  0  0  0  0  0  0  0  0  0  0  0
  152.9919  138.2531  186.8694 C   0  0  0  0  0  0  0  0  0  0  0  0
  152.7396  137.7038  188.1060 C   0  0  0  0  0  0  0  0  0  0  0  0
  153.7339  137.3413  188.9808 C   0  0  0  0  0  0  0  0  0  0  0  0
  154.9944  137.5371  188.5989 N   0  0  0  0  0  0  0  0  0  0  0  0
  155.2941  138.0735  187.3940 C   0  0  0  0  0  0  0  0  0  0  0  0
  153.4777  136.7755  190.2548 N   0  0  0  0  0  0  0  0  0  0  0  0
  152.5128  135.7435  190.5767 C   0  0  0  0  0  0  0  0  0  0  0  0
  151.8577  136.3047  191.8120 C   0  0  0  0  0  0  0  0  0  0  0  0
  152.8990  137.2707  192.4210 C   0  0  0  0  0  0  0  0  0  0  0  0
  154.1199  137.0973  191.5273 C   0  0  0  0  0  0  0  0  0  0  0  0
  152.4320  136.0852  193.1582 C   0  0  0  0  0  0  0  0  0  0  0  0
  151.5819  136.2845  194.2281 F   0  0  0  0  0  0  0  0  0  0  0  0
  153.2949  135.0268  193.3294 F   0  0  0  0  0  0  0  0  0  0  0  0
  150.3464  137.7489  180.4308 C   0  0  0  0  0  0  0  0  0  0  0  0
  151.5648  138.0178  181.2125 C   0  0  0  0  0  0  0  0  0  0  0  0
  151.9805  136.9675  182.1289 N   0  0  0  0  0  0  0  0  0  0  0  0
  153.0014  136.0674  182.0040 C   0  0  0  0  0  0  0  0  0  0  0  0
  153.0856  135.2532  183.0388 N   0  0  0  0  0  0  0  0  0  0  0  0
  152.1177  135.5794  183.9017 C   0  0  0  0  0  0  0  0  0  0  0  0
  151.7085  135.1338  185.0899 N   0  0  0  0  0  0  0  0  0  0  0  0
  152.4164  134.0222  185.6920 C   0  0  0  0  0  0  0  0  0  0  0  0
  150.6671  135.6806  185.7404 C   0  0  0  0  0  0  0  0  0  0  0  0
  150.3072  135.2252  186.8751 O   0  0  0  0  0  0  0  0  0  0  0  0
  149.9729  136.7067  185.2402 N   0  0  0  0  0  0  0  0  0  0  0  0
  150.3674  137.1857  184.0254 C   0  0  0  0  0  0  0  0  0  0  0  0
  149.7578  138.1379  183.5133 O   0  0  0  0  0  0  0  0  0  0  0  0
  151.4358  136.6509  183.3209 C   0  0  0  0  0  0  0  0  0  0  0  0
  148.8566  137.3420  185.8683 C   0  0  0  0  0  0  0  0  0  0  0  0
  147.6152  136.6396  185.5743 C   0  0  0  0  0  0  0  0  0  0  0  0
  146.6363  136.0731  185.3400 N   0  0  0  0  0  0  0  0  0  0  0  0
 25 26  1  0  0  0
 26  1  1  0  0  0
  1  2  2  0  0  0
  1  3  1  0  0  0
  3  5  1  0  0  0
  5  6  2  0  0  0
  6  7  1  0  0  0
  7  8  2  0  0  0
  8  9  1  0  0  0
  9 10  2  0  0  0
  9 11  1  0  0  0
 11 12  2  0  0  0
 12 13  1  0  0  0
 13 14  2  0  0  0
 14 15  1  0  0  0
 15 16  2  0  0  0
 14 17  1  0  0  0
 17 18  1  0  0  0
 18 19  1  0  0  0
 19 20  1  0  0  0
 20 21  1  0  0  0
 20 22  1  0  0  0
 22 23  1  0  0  0
 22 24  1  0  0  0
 26 27  1  0  0  0
 27 28  1  0  0  0
 28 29  2  0  0  0
 29 30  1  0  0  0
 30 31  1  0  0  0
 31 32  1  0  0  0
 31 33  1  0  0  0
 33 34  2  0  0  0
 33 35  1  0  0  0
 35 39  1  0  0  0
 39 40  1  0  0  0
 40 41  3  0  0  0
 35 36  1  0  0  0
 36 37  2  0  0  0
 36 38  1  0  0  0
 10  5  1  0  0  0
 16 11  1  0  0  0
 21 17  1  0  0  0
 38 27  1  0  0  0
 22 19  1  0  0  0
 38 30  2  0  0  0
  3  4  1  0  0  0
M  END
> <minimizedAffinity>
-6.27604

> <CNNscore>
0.1307734400

> <CNNaffinity>
6.0145387650

> <CNN_VS>
0.7865419388

> <CNNaffinity_variance>
0.6287328005

$$$$
[H]c1nc(N2C([H])([H])C([H])([H])N(C(=O)c3c(F)c([H])c([H])c([H])c3F)C([H])([H])C2([H])[H])nc(N([H])C2([H])C([H])([H])C2([H])[H])c1C(=O)N([H])C([H])([H])c1c([H])c([H])c([H])c([H])c1[H]


 38 42  0  0  0  0  0  0  0  0999 V2000
  154.3854  137.9071  185.6573 C   0  0  0  0  0  0  0  0  0  0  0  0
  153.2173  137.5134  185.1274 N   0  0  0  0  0  0  0  0  0  0  0  0
  152.7302  138.0203  183.9914 C   0  0  0  0  0  0  0  0  0  0  0  0
  153.4650  139.0083  183.3147 C   0  0  0  0  0  0  0  0  0  0  0  0
  154.6641  139.4270  183.8386 C   0  0  0  0  0  0  0  0  0  0  0  0
  155.0591  138.8338  185.0085 N   0  0  0  0  0  0  0  0  0  0  0  0
  155.2835  136.8087  190.8735 C   0  0  0  0  0  0  0  0  0  0  0  0
  156.3986  137.1198  191.4058 O   0  0  0  0  0  0  0  0  0  0  0  0
  155.0163  137.3017  189.5720 N   0  0  0  0  0  0  0  0  0  0  0  0
  153.7357  136.9488  188.9531 C   0  0  0  0  0  0  0  0  0  0  0  0
  154.0558  136.3523  187.5974 C   0  0  0  0  0  0  0  0  0  0  0  0
  154.8208  137.3132  186.8651 N   0  0  0  0  0  0  0  0  0  0  0  0
  156.1255  137.6864  187.4193 C   0  0  0  0  0  0  0  0  0  0  0  0
  155.9767  138.1315  188.8653 C   0  0  0  0  0  0  0  0  0  0  0  0
  153.1682  137.9005  192.3896 F   0  0  0  0  0  0  0  0  0  0  0  0
  153.2826  136.5528  192.3134 C   0  0  0  0  0  0  0  0  0  0  0  0
  152.3756  135.7492  192.9689 C   0  0  0  0  0  0  0  0  0  0  0  0
  152.5085  134.3746  192.8795 C   0  0  0  0  0  0  0  0  0  0  0  0
  153.5434  133.7954  192.1380 C   0  0  0  0  0  0  0  0  0  0  0  0
  154.4450  134.6081  191.4861 C   0  0  0  0  0  0  0  0  0  0  0  0
  155.4579  134.0861  190.7603 F   0  0  0  0  0  0  0  0  0  0  0  0
  154.3143  135.9759  191.5741 C   0  0  0  0  0  0  0  0  0  0  0  0
  152.9124  139.5384  182.0878 C   0  0  0  0  0  0  0  0  0  0  0  0
  153.5789  140.2263  181.2789 O   0  0  0  0  0  0  0  0  0  0  0  0
  151.5387  139.2944  181.7304 N   0  0  0  0  0  0  0  0  0  0  0  0
  150.8913  138.7560  182.2923 H   0  0  0  0  0  0  0  0  0  0  0  0
  151.0243  139.8478  180.4850 C   0  0  0  0  0  0  0  0  0  0  0  0
  149.6573  139.3645  180.2434 C   0  0  0  0  0  0  0  0  0  0  0  0
  149.4115  138.6606  179.0723 C   0  0  0  0  0  0  0  0  0  0  0  0
  148.1559  138.1929  178.8067 C   0  0  0  0  0  0  0  0  0  0  0  0
  147.1140  138.4043  179.6821 C   0  0  0  0  0  0  0  0  0  0  0  0
  147.3446  139.1022  180.8492 C   0  0  0  0  0  0  0  0  0  0  0  0
  148.6068  139.5679  181.1080 C   0  0  0  0  0  0  0  0  0  0  0  0
  155.4687  140.4063  183.2372 N   0  0  0  0  0  0  0  0  0  0  0  0
  156.0164  140.2884  182.4061 H   0  0  0  0  0  0  0  0  0  0  0  0
  155.5052  141.7315  183.8985 C   0  0  0  0  0  0  0  0  0  0  0  0
  155.7421  142.9387  183.0072 C   0  0  0  0  0  0  0  0  0  0  0  0
  154.4176  142.6838  183.6257 C   0  0  0  0  0  0  0  0  0  0  0  0
 15 16  1  0  0  0
 16 17  2  0  0  0
 17 18  1  0  0  0
 18 19  2  0  0  0
 19 20  1  0  0  0
 20 21  1  0  0  0
 20 22  2  0  0  0
 22  7  1  0  0  0
  7  8  2  0  0  0
  7  9  1  0  0  0
  9 10  1  0  0  0
 10 11  1  0  0  0
 11 12  1  0  0  0
 12 13  1  0  0  0
 13 14  1  0  0  0
 12  1  1  0  0  0
  1  2  2  0  0  0
  2  3  1  0  0  0
  3  4  2  0  0  0
  4 23  1  0  0  0
 23 24  2  0  0  0
 23 25  1  0  0  0
 25 27  1  0  0  0
 27 28  1  0  0  0
 28 29  2  0  0  0
 29 30  1  0  0  0
 30 31  2  0  0  0
 31 32  1  0  0  0
 32 33  2  0  0  0
  4  5  1  0  0  0
  5 34  1  0  0  0
 34 36  1  0  0  0
 36 37  1  0  0  0
 37 38  1  0  0  0
  5  6  2  0  0  0
 22 16  1  0  0  0
 14  9  1  0  0  0
  6  1  1  0  0  0
 33 28  1  0  0  0
 38 36  1  0  0  0
 25 26  1  0  0  0
 34 35  1  0  0  0
M  END
> <minimizedAffinity>
-8.40734

> <CNNscore>
0.4333194196

> <CNNaffinity>
6.0456266403

> <CNN_VS>
2.6196873188

> <CNNaffinity_variance>
0.1039809957

$$$$
[H]c1nc(N2C([H])([H])C([H])([H])N(C(=O)c3c(F)c([H])c([H])c([H])c3F)C([H])([H])C2([H])[H])nc(N([H])C2([H])C([H])([H])C2([H])[H])c1C(=O)N([H])C([H])([H])c1c([H])c([H])c([H])c([H])c1[H]


 38 42  0  0  0  0  0  0  0  0999 V2000
  155.6430  138.0405  186.7762 C   0  0  0  0  0  0  0  0  0  0  0  0
  154.6583  138.4565  187.5871 N   0  0  0  0  0  0  0  0  0  0  0  0
  154.5347  138.0379  188.8498 C   0  0  0  0  0  0  0  0  0  0  0  0
  155.4709  137.1228  189.3600 C   0  0  0  0  0  0  0  0  0  0  0  0
  156.4879  136.6829  188.5477 C   0  0  0  0  0  0  0  0  0  0  0  0
  156.5102  137.1831  187.2727 N   0  0  0  0  0  0  0  0  0  0  0  0
  155.3321  141.2085  182.4071 C   0  0  0  0  0  0  0  0  0  0  0  0
  154.3371  141.1069  181.6178 O   0  0  0  0  0  0  0  0  0  0  0  0
  155.2666  140.5127  183.6400 N   0  0  0  0  0  0  0  0  0  0  0  0
  156.4068  140.6250  184.5537 C   0  0  0  0  0  0  0  0  0  0  0  0
  156.8282  139.2116  184.9017 C   0  0  0  0  0  0  0  0  0  0  0  0
  155.6932  138.5390  185.4533 N   0  0  0  0  0  0  0  0  0  0  0  0
  154.5297  138.3703  184.5777 C   0  0  0  0  0  0  0  0  0  0  0  0
  154.1091  139.7100  183.9952 C   0  0  0  0  0  0  0  0  0  0  0  0
  157.7324  140.0582  181.4688 F   0  0  0  0  0  0  0  0  0  0  0  0
  157.6666  141.4051  181.5987 C   0  0  0  0  0  0  0  0  0  0  0  0
  158.7589  142.1796  181.2742 C   0  0  0  0  0  0  0  0  0  0  0  0
  158.6729  143.5539  181.4134 C   0  0  0  0  0  0  0  0  0  0  0  0
  157.5009  144.1615  181.8753 C   0  0  0  0  0  0  0  0  0  0  0  0
  156.4144  143.3777  182.1969 C   0  0  0  0  0  0  0  0  0  0  0  0
  155.2651  143.9277  182.6462 F   0  0  0  0  0  0  0  0  0  0  0  0
  156.4981  142.0103  182.0591 C   0  0  0  0  0  0  0  0  0  0  0  0
  155.3113  136.6874  190.7299 C   0  0  0  0  0  0  0  0  0  0  0  0
  156.2400  136.7231  191.5713 O   0  0  0  0  0  0  0  0  0  0  0  0
  154.0481  136.1810  191.2016 N   0  0  0  0  0  0  0  0  0  0  0  0
  153.2180  136.0985  190.6282 H   0  0  0  0  0  0  0  0  0  0  0  0
  153.9328  135.7537  192.5894 C   0  0  0  0  0  0  0  0  0  0  0  0
  152.5173  135.6654  192.9753 C   0  0  0  0  0  0  0  0  0  0  0  0
  152.2081  135.0676  194.1896 C   0  0  0  0  0  0  0  0  0  0  0  0
  150.9057  134.9639  194.5884 C   0  0  0  0  0  0  0  0  0  0  0  0
  149.8782  135.4435  193.8069 C   0  0  0  0  0  0  0  0  0  0  0  0
  150.1716  136.0396  192.5983 C   0  0  0  0  0  0  0  0  0  0  0  0
  151.4804  136.1396  192.2056 C   0  0  0  0  0  0  0  0  0  0  0  0
  157.4692  135.7715  188.9654 N   0  0  0  0  0  0  0  0  0  0  0  0
  157.7824  135.6352  189.9077 H   0  0  0  0  0  0  0  0  0  0  0  0
  158.0930  134.9395  187.9100 C   0  0  0  0  0  0  0  0  0  0  0  0
  159.6003  134.7620  187.9753 C   0  0  0  0  0  0  0  0  0  0  0  0
  158.6770  133.6437  188.2894 C   0  0  0  0  0  0  0  0  0  0  0  0
 15 16  1  0  0  0
 16 17  2  0  0  0
 17 18  1  0  0  0
 18 19  2  0  0  0
 19 20  1  0  0  0
 20 21  1  0  0  0
 20 22  2  0  0  0
 22  7  1  0  0  0
  7  8  2  0  0  0
  7  9  1  0  0  0
  9 10  1  0  0  0
 10 11  1  0  0  0
 11 12  1  0  0  0
 12 13  1  0  0  0
 13 14  1  0  0  0
 12  1  1  0  0  0
  1  2  2  0  0  0
  2  3  1  0  0  0
  3  4  2  0  0  0
  4 23  1  0  0  0
 23 24  2  0  0  0
 23 25  1  0  0  0
 25 27  1  0  0  0
 27 28  1  0  0  0
 28 29  2  0  0  0
 29 30  1  0  0  0
 30 31  2  0  0  0
 31 32  1  0  0  0
 32 33  2  0  0  0
  4  5  1  0  0  0
  5 34  1  0  0  0
 34 36  1  0  0  0
 36 37  1  0  0  0
 37 38  1  0  0  0
  5  6  2  0  0  0
 22 16  1  0  0  0
 14  9  1  0  0  0
  6  1  1  0  0  0
 33 28  1  0  0  0
 38 36  1  0  0  0
 25 26  1  0  0  0
 34 35  1  0  0  0
M  END
> <minimizedAffinity>
-8.69815

> <CNNscore>
0.4028265774

> <CNNaffinity>
6.2694044113

> <CNN_VS>
2.5254826546

> <CNNaffinity_variance>
0.0676313117

$$$$
[H]c1nc(N2C([H])([H])C([H])([H])N(C(=O)c3c(F)c([H])c([H])c([H])c3F)C([H])([H])C2([H])[H])nc(N([H])C2([H])C([H])([H])C2([H])[H])c1C(=O)N([H])C([H])([H])c1c([H])c([H])c([H])c([H])c1[H]


 38 42  0  0  0  0  0  0  0  0999 V2000
  154.1029  138.2823  185.8645 C   0  0  0  0  0  0  0  0  0  0  0  0
  152.9859  137.7604  185.3352 N   0  0  0  0  0  0  0  0  0  0  0  0
  152.5639  138.0531  184.1019 C   0  0  0  0  0  0  0  0  0  0  0  0
  153.3149  138.9446  183.3174 C   0  0  0  0  0  0  0  0  0  0  0  0
  154.4625  139.4913  183.8387 C   0  0  0  0  0  0  0  0  0  0  0  0
  154.7928  139.1154  185.1138 N   0  0  0  0  0  0  0  0  0  0  0  0
  154.4959  135.7660  190.6328 C   0  0  0  0  0  0  0  0  0  0  0  0
  153.8914  136.2360  191.6512 O   0  0  0  0  0  0  0  0  0  0  0  0
  154.1955  136.3347  189.3700 N   0  0  0  0  0  0  0  0  0  0  0  0
  154.8861  135.7993  188.1935 C   0  0  0  0  0  0  0  0  0  0  0  0
  155.5121  136.9804  187.4798 C   0  0  0  0  0  0  0  0  0  0  0  0
  154.4710  137.9135  187.1797 N   0  0  0  0  0  0  0  0  0  0  0  0
  153.7609  138.5060  188.3170 C   0  0  0  0  0  0  0  0  0  0  0  0
  153.2343  137.4158  189.2363 C   0  0  0  0  0  0  0  0  0  0  0  0
  153.7939  133.0612  190.2377 F   0  0  0  0  0  0  0  0  0  0  0  0
  155.0772  133.3581  190.5542 C   0  0  0  0  0  0  0  0  0  0  0  0
  156.0051  132.3470  190.6759 C   0  0  0  0  0  0  0  0  0  0  0  0
  157.3114  132.6696  190.9998 C   0  0  0  0  0  0  0  0  0  0  0  0
  157.6984  133.9982  191.2034 C   0  0  0  0  0  0  0  0  0  0  0  0
  156.7625  135.0017  191.0792 C   0  0  0  0  0  0  0  0  0  0  0  0
  157.0979  136.2967  191.2682 F   0  0  0  0  0  0  0  0  0  0  0  0
  155.4624  134.6826  190.7570 C   0  0  0  0  0  0  0  0  0  0  0  0
  152.8332  139.2426  181.9867 C   0  0  0  0  0  0  0  0  0  0  0  0
  153.3439  140.1243  181.2562 O   0  0  0  0  0  0  0  0  0  0  0  0
  151.7183  138.5231  181.4264 N   0  0  0  0  0  0  0  0  0  0  0  0
  151.2154  137.7882  181.9075 H   0  0  0  0  0  0  0  0  0  0  0  0
  151.2667  138.8566  180.0822 C   0  0  0  0  0  0  0  0  0  0  0  0
  149.7987  138.8196  180.0182 C   0  0  0  0  0  0  0  0  0  0  0  0
  149.0854  139.3950  181.0611 C   0  0  0  0  0  0  0  0  0  0  0  0
  147.7196  139.3834  181.0432 C   0  0  0  0  0  0  0  0  0  0  0  0
  147.0229  138.8083  180.0038 C   0  0  0  0  0  0  0  0  0  0  0  0
  147.7194  138.2331  178.9615 C   0  0  0  0  0  0  0  0  0  0  0  0
  149.0891  138.2489  178.9871 C   0  0  0  0  0  0  0  0  0  0  0  0
  155.2781  140.3893  183.1341 N   0  0  0  0  0  0  0  0  0  0  0  0
  155.7748  140.1918  182.2862 H   0  0  0  0  0  0  0  0  0  0  0  0
  155.4105  141.7508  183.7033 C   0  0  0  0  0  0  0  0  0  0  0  0
  155.6357  142.8878  182.7215 C   0  0  0  0  0  0  0  0  0  0  0  0
  154.3458  142.7307  183.4378 C   0  0  0  0  0  0  0  0  0  0  0  0
 15 16  1  0  0  0
 16 17  2  0  0  0
 17 18  1  0  0  0
 18 19  2  0  0  0
 19 20  1  0  0  0
 20 21  1  0  0  0
 20 22  2  0  0  0
 22  7  1  0  0  0
  7  8  2  0  0  0
  7  9  1  0  0  0
  9 10  1  0  0  0
 10 11  1  0  0  0
 11 12  1  0  0  0
 12 13  1  0  0  0
 13 14  1  0  0  0
 12  1  1  0  0  0
  1  2  2  0  0  0
  2  3  1  0  0  0
  3  4  2  0  0  0
  4 23  1  0  0  0
 23 24  2  0  0  0
 23 25  1  0  0  0
 25 27  1  0  0  0
 27 28  1  0  0  0
 28 29  2  0  0  0
 29 30  1  0  0  0
 30 31  2  0  0  0
 31 32  1  0  0  0
 32 33  2  0  0  0
  4  5  1  0  0  0
  5 34  1  0  0  0
 34 36  1  0  0  0
 36 37  1  0  0  0
 37 38  1  0  0  0
  5  6  2  0  0  0
 22 16  1  0  0  0
 14  9  1  0  0  0
  6  1  1  0  0  0
 33 28  1  0  0  0
 38 36  1  0  0  0
 25 26  1  0  0  0
 34 35  1  0  0  0
M  END
> <minimizedAffinity>
-7.89517

> <CNNscore>
0.3000251055

> <CNNaffinity>
6.0407152176

> <CNN_VS>
1.8123662472

> <CNNaffinity_variance>
0.0651769042

$$$$
[H]c1nc(N2C([H])([H])C([H])([H])N(C(=O)c3c(F)c([H])c([H])c([H])c3F)C([H])([H])C2([H])[H])nc(N([H])C2([H])C([H])([H])C2([H])[H])c1C(=O)N([H])C([H])([H])c1c([H])c([H])c([H])c([H])c1[H]


 38 42  0  0  0  0  0  0  0  0999 V2000
  154.1594  137.8309  185.8553 C   0  0  0  0  0  0  0  0  0  0  0  0
  153.2359  137.2107  185.1052 N   0  0  0  0  0  0  0  0  0  0  0  0
  152.8013  137.7001  183.9406 C   0  0  0  0  0  0  0  0  0  0  0  0
  153.3276  138.9158  183.4724 C   0  0  0  0  0  0  0  0  0  0  0  0
  154.2745  139.5687  184.2239 C   0  0  0  0  0  0  0  0  0  0  0  0
  154.6404  138.9687  185.3996 N   0  0  0  0  0  0  0  0  0  0  0  0
  155.0149  136.8000  191.0925 C   0  0  0  0  0  0  0  0  0  0  0  0
  156.1550  137.0380  191.6092 O   0  0  0  0  0  0  0  0  0  0  0  0
  154.7753  137.2787  189.7803 N   0  0  0  0  0  0  0  0  0  0  0  0
  153.4662  137.0096  189.1791 C   0  0  0  0  0  0  0  0  0  0  0  0
  153.7281  136.3559  187.8374 C   0  0  0  0  0  0  0  0  0  0  0  0
  154.5583  137.2363  187.0754 N   0  0  0  0  0  0  0  0  0  0  0  0
  155.8924  137.5222  187.6112 C   0  0  0  0  0  0  0  0  0  0  0  0
  155.7904  138.0142  189.0460 C   0  0  0  0  0  0  0  0  0  0  0  0
  154.8787  133.9812  191.0699 F   0  0  0  0  0  0  0  0  0  0  0  0
  153.9564  134.6689  191.7852 C   0  0  0  0  0  0  0  0  0  0  0  0
  152.9807  133.9884  192.4803 C   0  0  0  0  0  0  0  0  0  0  0  0
  152.0470  134.7081  193.2054 C   0  0  0  0  0  0  0  0  0  0  0  0
  152.0812  136.1059  193.2413 C   0  0  0  0  0  0  0  0  0  0  0  0
  153.0612  136.7765  192.5427 C   0  0  0  0  0  0  0  0  0  0  0  0
  153.1269  138.1258  192.5530 F   0  0  0  0  0  0  0  0  0  0  0  0
  153.9909  136.0622  191.8208 C   0  0  0  0  0  0  0  0  0  0  0  0
  152.8377  139.4210  182.2089 C   0  0  0  0  0  0  0  0  0  0  0  0
  153.5332  140.1229  181.4373 O   0  0  0  0  0  0  0  0  0  0  0  0
  151.4967  139.1339  181.7685 N   0  0  0  0  0  0  0  0  0  0  0  0
  150.8315  138.5803  182.2934 H   0  0  0  0  0  0  0  0  0  0  0  0
  151.0455  139.6633  180.4886 C   0  0  0  0  0  0  0  0  0  0  0  0
  149.6631  139.2392  180.2251 C   0  0  0  0  0  0  0  0  0  0  0  0
  148.6938  139.5508  181.1689 C   0  0  0  0  0  0  0  0  0  0  0  0
  147.3961  139.1761  180.9652 C   0  0  0  0  0  0  0  0  0  0  0  0
  147.0196  138.4883  179.8330 C   0  0  0  0  0  0  0  0  0  0  0  0
  147.9727  138.1725  178.8875 C   0  0  0  0  0  0  0  0  0  0  0  0
  149.2721  138.5519  179.0994 C   0  0  0  0  0  0  0  0  0  0  0  0
  154.8584  140.7855  183.8410 N   0  0  0  0  0  0  0  0  0  0  0  0
  154.3712  141.5844  183.4819 H   0  0  0  0  0  0  0  0  0  0  0  0
  156.3294  140.8888  183.9846 C   0  0  0  0  0  0  0  0  0  0  0  0
  157.1556  140.7487  182.7175 C   0  0  0  0  0  0  0  0  0  0  0  0
  157.0124  142.0558  183.4051 C   0  0  0  0  0  0  0  0  0  0  0  0
 15 16  1  0  0  0
 16 17  2  0  0  0
 17 18  1  0  0  0
 18 19  2  0  0  0
 19 20  1  0  0  0
 20 21  1  0  0  0
 20 22  2  0  0  0
 22  7  1  0  0  0
  7  8  2  0  0  0
  7  9  1  0  0  0
  9 10  1  0  0  0
 10 11  1  0  0  0
 11 12  1  0  0  0
 12 13  1  0  0  0
 13 14  1  0  0  0
 12  1  1  0  0  0
  1  2  2  0  0  0
  2  3  1  0  0  0
  3  4  2  0  0  0
  4 23  1  0  0  0
 23 24  2  0  0  0
 23 25  1  0  0  0
 25 27  1  0  0  0
 27 28  1  0  0  0
 28 29  2  0  0  0
 29 30  1  0  0  0
 30 31  2  0  0  0
 31 32  1  0  0  0
 32 33  2  0  0  0
  4  5  1  0  0  0
  5 34  1  0  0  0
 34 36  1  0  0  0
 36 37  1  0  0  0
 37 38  1  0  0  0
  5  6  2  0  0  0
 22 16  1  0  0  0
 14  9  1  0  0  0
  6  1  1  0  0  0
 33 28  1  0  0  0
 38 36  1  0  0  0
 25 26  1  0  0  0
 34 35  1  0  0  0
M  END
> <minimizedAffinity>
-8.25289

> <CNNscore>
0.2843701541

> <CNNaffinity>
5.9098563194

> <CNN_VS>
1.6805866957

> <CNNaffinity_variance>
0.0929268003

$$$$
[H]c1nc(N2C([H])([H])C([H])([H])N(C(=O)c3c(F)c([H])c([H])c([H])c3F)C([H])([H])C2([H])[H])nc(N([H])C2([H])C([H])([H])C2([H])[H])c1C(=O)N([H])C([H])([H])c1c([H])c([H])c([H])c([H])c1[H]


 38 42  0  0  0  0  0  0  0  0999 V2000
  154.2181  138.3994  185.2516 C   0  0  0  0  0  0  0  0  0  0  0  0
  155.4982  138.7879  185.3547 N   0  0  0  0  0  0  0  0  0  0  0  0
  156.0728  139.6256  184.4870 C   0  0  0  0  0  0  0  0  0  0  0  0
  155.3125  140.1271  183.4172 C   0  0  0  0  0  0  0  0  0  0  0  0
  153.9993  139.7431  183.2916 C   0  0  0  0  0  0  0  0  0  0  0  0
  153.5223  138.8802  184.2424 N   0  0  0  0  0  0  0  0  0  0  0  0
  153.4535  135.4517  189.7180 C   0  0  0  0  0  0  0  0  0  0  0  0
  153.7682  134.2171  189.7263 O   0  0  0  0  0  0  0  0  0  0  0  0
  153.8639  136.2269  188.6049 N   0  0  0  0  0  0  0  0  0  0  0  0
  153.5063  137.6480  188.5880 C   0  0  0  0  0  0  0  0  0  0  0  0
  152.8096  137.9072  187.2675 C   0  0  0  0  0  0  0  0  0  0  0  0
  153.6959  137.5086  186.2185 N   0  0  0  0  0  0  0  0  0  0  0  0
  154.0686  136.0919  186.1651 C   0  0  0  0  0  0  0  0  0  0  0  0
  154.6157  135.6393  187.5094 C   0  0  0  0  0  0  0  0  0  0  0  0
  154.7031  136.8221  191.8453 F   0  0  0  0  0  0  0  0  0  0  0  0
  153.3523  136.7192  191.8452 C   0  0  0  0  0  0  0  0  0  0  0  0
  152.6218  137.2785  192.8708 C   0  0  0  0  0  0  0  0  0  0  0  0
  151.2428  137.1633  192.8536 C   0  0  0  0  0  0  0  0  0  0  0  0
  150.5866  136.4918  191.8169 C   0  0  0  0  0  0  0  0  0  0  0  0
  151.3266  135.9362  190.7962 C   0  0  0  0  0  0  0  0  0  0  0  0
  150.7291  135.2799  189.7776 F   0  0  0  0  0  0  0  0  0  0  0  0
  152.6987  136.0498  190.8116 C   0  0  0  0  0  0  0  0  0  0  0  0
  155.9614  141.0316  182.4940 C   0  0  0  0  0  0  0  0  0  0  0  0
  155.4221  142.0822  182.0730 O   0  0  0  0  0  0  0  0  0  0  0  0
  157.2886  140.7606  182.0043 N   0  0  0  0  0  0  0  0  0  0  0  0
  157.8362  139.9496  182.2631 H   0  0  0  0  0  0  0  0  0  0  0  0
  157.9037  141.6993  181.0756 C   0  0  0  0  0  0  0  0  0  0  0  0
  158.5786  142.7746  181.8163 C   0  0  0  0  0  0  0  0  0  0  0  0
  158.5144  144.0620  181.3006 C   0  0  0  0  0  0  0  0  0  0  0  0
  159.1273  145.0921  181.9558 C   0  0  0  0  0  0  0  0  0  0  0  0
  159.8160  144.8837  183.1300 C   0  0  0  0  0  0  0  0  0  0  0  0
  159.8875  143.6095  183.6531 C   0  0  0  0  0  0  0  0  0  0  0  0
  159.2701  142.5820  182.9898 C   0  0  0  0  0  0  0  0  0  0  0  0
  153.1606  140.1893  182.2592 N   0  0  0  0  0  0  0  0  0  0  0  0
  152.9894  141.1455  182.0124 H   0  0  0  0  0  0  0  0  0  0  0  0
  152.4702  139.1441  181.4680 C   0  0  0  0  0  0  0  0  0  0  0  0
  151.0168  139.4013  181.1086 C   0  0  0  0  0  0  0  0  0  0  0  0
  152.0864  139.4506  180.0813 C   0  0  0  0  0  0  0  0  0  0  0  0
 15 16  1  0  0  0
 16 17  2  0  0  0
 17 18  1  0  0  0
 18 19  2  0  0  0
 19 20  1  0  0  0
 20 21  1  0  0  0
 20 22  2  0  0  0
 22  7  1  0  0  0
  7  8  2  0  0  0
  7  9  1  0  0  0
  9 10  1  0  0  0
 10 11  1  0  0  0
 11 12  1  0  0  0
 12 13  1  0  0  0
 13 14  1  0  0  0
 12  1  1  0  0  0
  1  2  2  0  0  0
  2  3  1  0  0  0
  3  4  2  0  0  0
  4 23  1  0  0  0
 23 24  2  0  0  0
 23 25  1  0  0  0
 25 27  1  0  0  0
 27 28  1  0  0  0
 28 29  2  0  0  0
 29 30  1  0  0  0
 30 31  2  0  0  0
 31 32  1  0  0  0
 32 33  2  0  0  0
  4  5  1  0  0  0
  5 34  1  0  0  0
 34 36  1  0  0  0
 36 37  1  0  0  0
 37 38  1  0  0  0
  5  6  2  0  0  0
 22 16  1  0  0  0
 14  9  1  0  0  0
  6  1  1  0  0  0
 33 28  1  0  0  0
 38 36  1  0  0  0
 25 26  1  0  0  0
 34 35  1  0  0  0
M  END
> <minimizedAffinity>
-9.02653

> <CNNscore>
0.2403441519

> <CNNaffinity>
6.1972441673

> <CNN_VS>
1.4894714355

> <CNNaffinity_variance>
0.0263064317

$$$$
[H]c1nc(N2C([H])([H])C([H])([H])N(C(=O)c3c(F)c([H])c([H])c([H])c3F)C([H])([H])C2([H])[H])nc(N([H])C2([H])C([H])([H])C2([H])[H])c1C(=O)N([H])C([H])([H])c1c([H])c([H])c([H])c([H])c1[H]


 38 42  0  0  0  0  0  0  0  0999 V2000
  154.6503  138.3276  186.2363 C   0  0  0  0  0  0  0  0  0  0  0  0
  155.9449  138.2392  186.5774 N   0  0  0  0  0  0  0  0  0  0  0  0
  156.9135  138.8775  185.9147 C   0  0  0  0  0  0  0  0  0  0  0  0
  156.5722  139.6784  184.8118 C   0  0  0  0  0  0  0  0  0  0  0  0
  155.2526  139.7839  184.4442 C   0  0  0  0  0  0  0  0  0  0  0  0
  154.3507  139.0829  185.2002 N   0  0  0  0  0  0  0  0  0  0  0  0
  152.2518  134.9545  189.7136 C   0  0  0  0  0  0  0  0  0  0  0  0
  151.7416  133.8652  189.2932 O   0  0  0  0  0  0  0  0  0  0  0  0
  153.0479  135.6996  188.8084 N   0  0  0  0  0  0  0  0  0  0  0  0
  153.6387  136.9534  189.2844 C   0  0  0  0  0  0  0  0  0  0  0  0
  153.2436  138.0271  188.2908 C   0  0  0  0  0  0  0  0  0  0  0  0
  153.6944  137.6152  186.9977 N   0  0  0  0  0  0  0  0  0  0  0  0
  153.1180  136.3818  186.4542 C   0  0  0  0  0  0  0  0  0  0  0  0
  153.2762  135.2427  187.4484 C   0  0  0  0  0  0  0  0  0  0  0  0
  154.2076  134.7175  191.7344 F   0  0  0  0  0  0  0  0  0  0  0  0
  153.0186  135.2868  192.0467 C   0  0  0  0  0  0  0  0  0  0  0  0
  152.7884  135.7345  193.3292 C   0  0  0  0  0  0  0  0  0  0  0  0
  151.5678  136.3134  193.6295 C   0  0  0  0  0  0  0  0  0  0  0  0
  150.5731  136.4487  192.6556 C   0  0  0  0  0  0  0  0  0  0  0  0
  150.8136  135.9978  191.3762 C   0  0  0  0  0  0  0  0  0  0  0  0
  149.8778  136.1109  190.4083 F   0  0  0  0  0  0  0  0  0  0  0  0
  152.0275  135.4215  191.0755 C   0  0  0  0  0  0  0  0  0  0  0  0
  157.6420  140.3568  184.1140 C   0  0  0  0  0  0  0  0  0  0  0  0
  158.0736  139.9849  182.9972 O   0  0  0  0  0  0  0  0  0  0  0  0
  158.2755  141.5182  184.6834 N   0  0  0  0  0  0  0  0  0  0  0  0
  158.0246  141.9231  185.5765 H   0  0  0  0  0  0  0  0  0  0  0  0
  159.3490  142.1699  183.9453 C   0  0  0  0  0  0  0  0  0  0  0  0
  160.5218  142.3505  184.8127 C   0  0  0  0  0  0  0  0  0  0  0  0
  160.3082  142.7599  186.1220 C   0  0  0  0  0  0  0  0  0  0  0  0
  161.3691  142.9404  186.9634 C   0  0  0  0  0  0  0  0  0  0  0  0
  162.6618  142.7240  186.5409 C   0  0  0  0  0  0  0  0  0  0  0  0
  162.8880  142.3171  185.2426 C   0  0  0  0  0  0  0  0  0  0  0  0
  161.8185  142.1384  184.4051 C   0  0  0  0  0  0  0  0  0  0  0  0
  154.8137  140.5580  183.3596 N   0  0  0  0  0  0  0  0  0  0  0  0
  154.5874  140.2147  182.4455 H   0  0  0  0  0  0  0  0  0  0  0  0
  154.6753  142.0137  183.5975 C   0  0  0  0  0  0  0  0  0  0  0  0
  155.3599  142.9405  182.6076 C   0  0  0  0  0  0  0  0  0  0  0  0
  153.8825  142.8094  182.6475 C   0  0  0  0  0  0  0  0  0  0  0  0
 15 16  1  0  0  0
 16 17  2  0  0  0
 17 18  1  0  0  0
 18 19  2  0  0  0
 19 20  1  0  0  0
 20 21  1  0  0  0
 20 22  2  0  0  0
 22  7  1  0  0  0
  7  8  2  0  0  0
  7  9  1  0  0  0
  9 10  1  0  0  0
 10 11  1  0  0  0
 11 12  1  0  0  0
 12 13  1  0  0  0
 13 14  1  0  0  0
 12  1  1  0  0  0
  1  2  2  0  0  0
  2  3  1  0  0  0
  3  4  2  0  0  0
  4 23  1  0  0  0
 23 24  2  0  0  0
 23 25  1  0  0  0
 25 27  1  0  0  0
 27 28  1  0  0  0
 28 29  2  0  0  0
 29 30  1  0  0  0
 30 31  2  0  0  0
 31 32  1  0  0  0
 32 33  2  0  0  0
  4  5  1  0  0  0
  5 34  1  0  0  0
 34 36  1  0  0  0
 36 37  1  0  0  0
 37 38  1  0  0  0
  5  6  2  0  0  0
 22 16  1  0  0  0
 14  9  1  0  0  0
  6  1  1  0  0  0
 33 28  1  0  0  0
 38 36  1  0  0  0
 25 26  1  0  0  0
 34 35  1  0  0  0
M  END
> <minimizedAffinity>
-8.96610

> <CNNscore>
0.2350589931

> <CNNaffinity>
6.3224968910

> <CNN_VS>
1.4861598015

> <CNNaffinity_variance>
0.0500062816

$$$$
[H]c1nc(N2C([H])([H])C([H])([H])N(C(=O)c3c(F)c([H])c([H])c([H])c3F)C([H])([H])C2([H])[H])nc(N([H])C2([H])C([H])([H])C2([H])[H])c1C(=O)N([H])C([H])([H])c1c([H])c([H])c([H])c([H])c1[H]


 38 42  0  0  0  0  0  0  0  0999 V2000
  154.2222  138.3459  185.2454 C   0  0  0  0  0  0  0  0  0  0  0  0
  155.4957  138.7602  185.3281 N   0  0  0  0  0  0  0  0  0  0  0  0
  156.0374  139.6142  184.4551 C   0  0  0  0  0  0  0  0  0  0  0  0
  155.2481  140.1054  183.4016 C   0  0  0  0  0  0  0  0  0  0  0  0
  153.9410  139.6950  183.2971 C   0  0  0  0  0  0  0  0  0  0  0  0
  153.4989  138.8174  184.2513 N   0  0  0  0  0  0  0  0  0  0  0  0
  153.5219  135.4559  189.7598 C   0  0  0  0  0  0  0  0  0  0  0  0
  153.9345  134.2516  189.8140 O   0  0  0  0  0  0  0  0  0  0  0  0
  153.9120  136.2345  188.6418 N   0  0  0  0  0  0  0  0  0  0  0  0
  153.4421  137.6208  188.5723 C   0  0  0  0  0  0  0  0  0  0  0  0
  152.7795  137.7899  187.2200 C   0  0  0  0  0  0  0  0  0  0  0  0
  153.7358  137.4393  186.2163 N   0  0  0  0  0  0  0  0  0  0  0  0
  154.2233  136.0569  186.2161 C   0  0  0  0  0  0  0  0  0  0  0  0
  154.7514  135.6835  187.5919 C   0  0  0  0  0  0  0  0  0  0  0  0
  150.7103  135.2130  189.7296 F   0  0  0  0  0  0  0  0  0  0  0  0
  151.2925  135.8762  190.7574 C   0  0  0  0  0  0  0  0  0  0  0  0
  150.5115  136.4134  191.7572 C   0  0  0  0  0  0  0  0  0  0  0  0
  151.1241  137.0875  192.7991 C   0  0  0  0  0  0  0  0  0  0  0  0
  152.5147  137.2291  192.8498 C   0  0  0  0  0  0  0  0  0  0  0  0
  153.2864  136.6880  191.8449 C   0  0  0  0  0  0  0  0  0  0  0  0
  154.6324  136.8040  191.8586 F   0  0  0  0  0  0  0  0  0  0  0  0
  152.6787  136.0170  190.8074 C   0  0  0  0  0  0  0  0  0  0  0  0
  155.8618  141.0280  182.4722 C   0  0  0  0  0  0  0  0  0  0  0  0
  155.3097  142.0894  182.0974 O   0  0  0  0  0  0  0  0  0  0  0  0
  157.1662  140.7635  181.9217 N   0  0  0  0  0  0  0  0  0  0  0  0
  157.7208  139.9453  182.1395 H   0  0  0  0  0  0  0  0  0  0  0  0
  157.7460  141.7205  180.9890 C   0  0  0  0  0  0  0  0  0  0  0  0
  158.4471  142.7825  181.7246 C   0  0  0  0  0  0  0  0  0  0  0  0
  159.1325  142.4326  182.8801 C   0  0  0  0  0  0  0  0  0  0  0  0
  159.7981  143.3872  183.5955 C   0  0  0  0  0  0  0  0  0  0  0  0
  159.8069  144.7047  183.1948 C   0  0  0  0  0  0  0  0  0  0  0  0
  159.1299  145.0657  182.0487 C   0  0  0  0  0  0  0  0  0  0  0  0
  158.4648  144.1023  181.3369 C   0  0  0  0  0  0  0  0  0  0  0  0
  153.0752  140.1291  182.2822 N   0  0  0  0  0  0  0  0  0  0  0  0
  152.8483  141.0821  182.0704 H   0  0  0  0  0  0  0  0  0  0  0  0
  152.4440  139.0752  181.4539 C   0  0  0  0  0  0  0  0  0  0  0  0
  150.9851  139.2751  181.0810 C   0  0  0  0  0  0  0  0  0  0  0  0
  152.0643  139.4011  180.0705 C   0  0  0  0  0  0  0  0  0  0  0  0
 15 16  1  0  0  0
 16 17  2  0  0  0
 17 18  1  0  0  0
 18 19  2  0  0  0
 19 20  1  0  0  0
 20 21  1  0  0  0
 20 22  2  0  0  0
 22  7  1  0  0  0
  7  8  2  0  0  0
  7  9  1  0  0  0
  9 10  1  0  0  0
 10 11  1  0  0  0
 11 12  1  0  0  0
 12 13  1  0  0  0
 13 14  1  0  0  0
 12  1  1  0  0  0
  1  2  2  0  0  0
  2  3  1  0  0  0
  3  4  2  0  0  0
  4 23  1  0  0  0
 23 24  2  0  0  0
 23 25  1  0  0  0
 25 27  1  0  0  0
 27 28  1  0  0  0
 28 29  2  0  0  0
 29 30  1  0  0  0
 30 31  2  0  0  0
 31 32  1  0  0  0
 32 33  2  0  0  0
  4  5  1  0  0  0
  5 34  1  0  0  0
 34 36  1  0  0  0
 36 37  1  0  0  0
 37 38  1  0  0  0
  5  6  2  0  0  0
 22 16  1  0  0  0
 14  9  1  0  0  0
  6  1  1  0  0  0
 33 28  1  0  0  0
 38 36  1  0  0  0
 25 26  1  0  0  0
 34 35  1  0  0  0
M  END
> <minimizedAffinity>
-9.02641

> <CNNscore>
0.2259954214

> <CNNaffinity>
6.1867003441

> <CNN_VS>
1.3981659412

> <CNNaffinity_variance>
0.0259640552

$$$$
[H]c1nc(N2C([H])([H])C([H])([H])N(C(=O)c3c(F)c([H])c([H])c([H])c3F)C([H])([H])C2([H])[H])nc(N([H])C2([H])C([H])([H])C2([H])[H])c1C(=O)N([H])C([H])([H])c1c([H])c([H])c([H])c([H])c1[H]


 38 42  0  0  0  0  0  0  0  0999 V2000
  155.0950  138.3558  185.9595 C   0  0  0  0  0  0  0  0  0  0  0  0
  156.2706  138.9228  185.6487 N   0  0  0  0  0  0  0  0  0  0  0  0
  156.4515  139.6574  184.5475 C   0  0  0  0  0  0  0  0  0  0  0  0
  155.3705  139.8505  183.6709 C   0  0  0  0  0  0  0  0  0  0  0  0
  154.1570  139.2793  183.9689 C   0  0  0  0  0  0  0  0  0  0  0  0
  154.0944  138.5482  185.1256 N   0  0  0  0  0  0  0  0  0  0  0  0
  154.4704  136.8206  191.1049 C   0  0  0  0  0  0  0  0  0  0  0  0
  155.4934  136.5712  191.8225 O   0  0  0  0  0  0  0  0  0  0  0  0
  154.6862  137.4179  189.8380 N   0  0  0  0  0  0  0  0  0  0  0  0
  153.5148  137.7084  189.0068 C   0  0  0  0  0  0  0  0  0  0  0  0
  153.7688  137.0703  187.6561 C   0  0  0  0  0  0  0  0  0  0  0  0
  154.9983  137.5944  187.1478 N   0  0  0  0  0  0  0  0  0  0  0  0
  156.2114  137.3127  187.9209 C   0  0  0  0  0  0  0  0  0  0  0  0
  156.0241  137.7354  189.3692 C   0  0  0  0  0  0  0  0  0  0  0  0
  153.0722  138.4620  192.9257 F   0  0  0  0  0  0  0  0  0  0  0  0
  152.4661  137.3408  192.4666 C   0  0  0  0  0  0  0  0  0  0  0  0
  151.1939  137.0258  192.8913 C   0  0  0  0  0  0  0  0  0  0  0  0
  150.5910  135.8763  192.4114 C   0  0  0  0  0  0  0  0  0  0  0  0
  151.2512  135.0371  191.5080 C   0  0  0  0  0  0  0  0  0  0  0  0
  152.5232  135.3614  191.0896 C   0  0  0  0  0  0  0  0  0  0  0  0
  153.1932  134.5760  190.2181 F   0  0  0  0  0  0  0  0  0  0  0  0
  153.1247  136.5047  191.5661 C   0  0  0  0  0  0  0  0  0  0  0  0
  155.5965  140.6499  182.4871 C   0  0  0  0  0  0  0  0  0  0  0  0
  154.6861  141.2914  181.9113 O   0  0  0  0  0  0  0  0  0  0  0  0
  156.9087  140.7482  181.9016 N   0  0  0  0  0  0  0  0  0  0  0  0
  157.7305  140.2822  182.2649 H   0  0  0  0  0  0  0  0  0  0  0  0
  157.0902  141.5649  180.7091 C   0  0  0  0  0  0  0  0  0  0  0  0
  157.7884  142.8121  181.0518 C   0  0  0  0  0  0  0  0  0  0  0  0
  158.8571  143.2016  180.2557 C   0  0  0  0  0  0  0  0  0  0  0  0
  159.5350  144.3536  180.5373 C   0  0  0  0  0  0  0  0  0  0  0  0
  159.1810  145.1489  181.6044 C   0  0  0  0  0  0  0  0  0  0  0  0
  158.1213  144.7735  182.4033 C   0  0  0  0  0  0  0  0  0  0  0  0
  157.4467  143.6166  182.1140 C   0  0  0  0  0  0  0  0  0  0  0  0
  153.0207  139.4149  183.1574 N   0  0  0  0  0  0  0  0  0  0  0  0
  152.3967  140.1991  183.1455 H   0  0  0  0  0  0  0  0  0  0  0  0
  152.7252  138.2913  182.2380 C   0  0  0  0  0  0  0  0  0  0  0  0
  151.2788  138.1169  181.8078 C   0  0  0  0  0  0  0  0  0  0  0  0
  152.3131  138.5999  180.8599 C   0  0  0  0  0  0  0  0  0  0  0  0
 15 16  1  0  0  0
 16 17  2  0  0  0
 17 18  1  0  0  0
 18 19  2  0  0  0
 19 20  1  0  0  0
 20 21  1  0  0  0
 20 22  2  0  0  0
 22  7  1  0  0  0
  7  8  2  0  0  0
  7  9  1  0  0  0
  9 10  1  0  0  0
 10 11  1  0  0  0
 11 12  1  0  0  0
 12 13  1  0  0  0
 13 14  1  0  0  0
 12  1  1  0  0  0
  1  2  2  0  0  0
  2  3  1  0  0  0
  3  4  2  0  0  0
  4 23  1  0  0  0
 23 24  2  0  0  0
 23 25  1  0  0  0
 25 27  1  0  0  0
 27 28  1  0  0  0
 28 29  2  0  0  0
 29 30  1  0  0  0
 30 31  2  0  0  0
 31 32  1  0  0  0
 32 33  2  0  0  0
  4  5  1  0  0  0
  5 34  1  0  0  0
 34 36  1  0  0  0
 36 37  1  0  0  0
 37 38  1  0  0  0
  5  6  2  0  0  0
 22 16  1  0  0  0
 14  9  1  0  0  0
  6  1  1  0  0  0
 33 28  1  0  0  0
 38 36  1  0  0  0
 25 26  1  0  0  0
 34 35  1  0  0  0
M  END
> <minimizedAffinity>
-8.52256

> <CNNscore>
0.2079409063

> <CNNaffinity>
6.1374187469

> <CNN_VS>
1.2762204409

> <CNNaffinity_variance>
0.0576848499

$$$$
[H]c1nc(N2C([H])([H])C([H])([H])N(C(=O)c3c(F)c([H])c([H])c([H])c3F)C([H])([H])C2([H])[H])nc(N([H])C2([H])C([H])([H])C2([H])[H])c1C(=O)N([H])C([H])([H])c1c([H])c([H])c([H])c([H])c1[H]


 38 42  0  0  0  0  0  0  0  0999 V2000
  155.0419  138.3654  186.3006 C   0  0  0  0  0  0  0  0  0  0  0  0
  153.9364  138.8971  185.7572 N   0  0  0  0  0  0  0  0  0  0  0  0
  153.9730  139.7483  184.7281 C   0  0  0  0  0  0  0  0  0  0  0  0
  155.2175  140.1082  184.1842 C   0  0  0  0  0  0  0  0  0  0  0  0
  156.3631  139.5759  184.7245 C   0  0  0  0  0  0  0  0  0  0  0  0
  156.1983  138.7149  185.7771 N   0  0  0  0  0  0  0  0  0  0  0  0
  154.4987  136.2560  191.2481 C   0  0  0  0  0  0  0  0  0  0  0  0
  155.5144  135.7767  191.8498 O   0  0  0  0  0  0  0  0  0  0  0  0
  154.7253  136.9823  190.0525 N   0  0  0  0  0  0  0  0  0  0  0  0
  153.5623  137.5373  189.3547 C   0  0  0  0  0  0  0  0  0  0  0  0
  153.6437  137.0567  187.9199 C   0  0  0  0  0  0  0  0  0  0  0  0
  154.9047  137.4724  187.3891 N   0  0  0  0  0  0  0  0  0  0  0  0
  156.1069  136.9282  188.0274 C   0  0  0  0  0  0  0  0  0  0  0  0
  156.0659  137.1752  189.5269 C   0  0  0  0  0  0  0  0  0  0  0  0
  153.0387  133.8770  190.8314 F   0  0  0  0  0  0  0  0  0  0  0  0
  152.4606  134.8765  191.5400 C   0  0  0  0  0  0  0  0  0  0  0  0
  151.1864  134.7157  192.0386 C   0  0  0  0  0  0  0  0  0  0  0  0
  150.6123  135.7477  192.7602 C   0  0  0  0  0  0  0  0  0  0  0  0
  151.3036  136.9420  192.9880 C   0  0  0  0  0  0  0  0  0  0  0  0
  152.5774  137.0925  192.4851 C   0  0  0  0  0  0  0  0  0  0  0  0
  153.2769  138.2310  192.6841 F   0  0  0  0  0  0  0  0  0  0  0  0
  153.1502  136.0668  191.7669 C   0  0  0  0  0  0  0  0  0  0  0  0
  155.2257  141.0316  183.0711 C   0  0  0  0  0  0  0  0  0  0  0  0
  154.9385  140.6920  181.8990 O   0  0  0  0  0  0  0  0  0  0  0  0
  155.5721  142.4164  183.2627 N   0  0  0  0  0  0  0  0  0  0  0  0
  155.8239  142.8220  184.1553 H   0  0  0  0  0  0  0  0  0  0  0  0
  155.5672  143.3109  182.1130 C   0  0  0  0  0  0  0  0  0  0  0  0
  156.9381  143.5108  181.6220 C   0  0  0  0  0  0  0  0  0  0  0  0
  157.6559  144.5929  182.1132 C   0  0  0  0  0  0  0  0  0  0  0  0
  158.9334  144.8170  181.6845 C   0  0  0  0  0  0  0  0  0  0  0  0
  159.5355  143.9864  180.7658 C   0  0  0  0  0  0  0  0  0  0  0  0
  158.8335  142.9078  180.2698 C   0  0  0  0  0  0  0  0  0  0  0  0
  157.5527  142.6900  180.7048 C   0  0  0  0  0  0  0  0  0  0  0  0
  157.6497  139.8740  184.2513 N   0  0  0  0  0  0  0  0  0  0  0  0
  158.0676  139.5115  183.4155 H   0  0  0  0  0  0  0  0  0  0  0  0
  158.4559  140.8106  185.0687 C   0  0  0  0  0  0  0  0  0  0  0  0
  159.8803  141.0724  184.6105 C   0  0  0  0  0  0  0  0  0  0  0  0
  158.8270  142.1103  184.4880 C   0  0  0  0  0  0  0  0  0  0  0  0
 15 16  1  0  0  0
 16 17  2  0  0  0
 17 18  1  0  0  0
 18 19  2  0  0  0
 19 20  1  0  0  0
 20 21  1  0  0  0
 20 22  2  0  0  0
 22  7  1  0  0  0
  7  8  2  0  0  0
  7  9  1  0  0  0
  9 10  1  0  0  0
 10 11  1  0  0  0
 11 12  1  0  0  0
 12 13  1  0  0  0
 13 14  1  0  0  0
 12  1  1  0  0  0
  1  2  2  0  0  0
  2  3  1  0  0  0
  3  4  2  0  0  0
  4 23  1  0  0  0
 23 24  2  0  0  0
 23 25  1  0  0  0
 25 27  1  0  0  0
 27 28  1  0  0  0
 28 29  2  0  0  0
 29 30  1  0  0  0
 30 31  2  0  0  0
 31 32  1  0  0  0
 32 33  2  0  0  0
  4  5  1  0  0  0
  5 34  1  0  0  0
 34 36  1  0  0  0
 36 37  1  0  0  0
 37 38  1  0  0  0
  5  6  2  0  0  0
 22 16  1  0  0  0
 14  9  1  0  0  0
  6  1  1  0  0  0
 33 28  1  0  0  0
 38 36  1  0  0  0
 25 26  1  0  0  0
 34 35  1  0  0  0
M  END
> <minimizedAffinity>
-8.57370

> <CNNscore>
0.1899593621

> <CNNaffinity>
6.2179155350

> <CNN_VS>
1.1811512709

> <CNNaffinity_variance>
0.1265414059

$$$$
[H]C1=Nc2c([H])c([H])c([H])c([H])c2C([H])([H])c2c(C#N)c([H])c([H])c([H])c21


 17 19  0  0  0  0  0  0  0  0999 V2000
  154.2783  137.6618  188.8433 C   0  0  0  0  0  0  0  0  0  0  0  0
  155.4604  138.3377  188.6473 C   0  0  0  0  0  0  0  0  0  0  0  0
  156.5542  138.1954  189.4783 C   0  0  0  0  0  0  0  0  0  0  0  0
  156.4391  137.3340  190.5465 C   0  0  0  0  0  0  0  0  0  0  0  0
  155.2603  136.6440  190.7633 C   0  0  0  0  0  0  0  0  0  0  0  0
  155.3167  135.7774  191.9400 C   0  0  0  0  0  0  0  0  0  0  0  0
  154.3408  135.3825  192.6908 N   0  0  0  0  0  0  0  0  0  0  0  0
  152.9339  135.6918  192.5683 C   0  0  0  0  0  0  0  0  0  0  0  0
  152.2711  135.6259  193.7670 C   0  0  0  0  0  0  0  0  0  0  0  0
  150.9248  135.9034  193.7768 C   0  0  0  0  0  0  0  0  0  0  0  0
  150.2433  136.2432  192.6072 C   0  0  0  0  0  0  0  0  0  0  0  0
  150.9492  136.2962  191.4318 C   0  0  0  0  0  0  0  0  0  0  0  0
  152.3205  136.0208  191.3788 C   0  0  0  0  0  0  0  0  0  0  0  0
  152.8386  136.1460  189.9890 C   0  0  0  0  0  0  0  0  0  0  0  0
  154.1765  136.7966  189.9246 C   0  0  0  0  0  0  0  0  0  0  0  0
  152.2727  138.0061  187.1815 N   0  0  0  0  0  0  0  0  0  0  0  0
  153.1608  137.8492  187.9339 C   0  0  0  0  0  0  0  0  0  0  0  0
 16 17  3  0  0  0
 17  1  1  0  0  0
  1  2  2  0  0  0
  2  3  1  0  0  0
  3  4  2  0  0  0
  4  5  1  0  0  0
  5  6  1  0  0  0
  6  7  2  0  0  0
  7  8  1  0  0  0
  8  9  2  0  0  0
  9 10  1  0  0  0
 10 11  2  0  0  0
 11 12  1  0  0  0
 12 13  2  0  0  0
 13 14  1  0  0  0
 14 15  1  0  0  0
 15  1  1  0  0  0
 15  5  2  0  0  0
 13  8  1  0  0  0
M  END
> <minimizedAffinity>
-5.43466

> <CNNscore>
0.5691165328

> <CNNaffinity>
4.3104500771

> <CNN_VS>
2.4531483650

> <CNNaffinity_variance>
0.0769082382

$$$$
[H]C1=Nc2c([H])c([H])c([H])c([H])c2C([H])([H])c2c(C#N)c([H])c([H])c([H])c21


 17 19  0  0  0  0  0  0  0  0999 V2000
  150.1733  135.7463  190.7315 C   0  0  0  0  0  0  0  0  0  0  0  0
  149.0042  135.6319  190.0154 C   0  0  0  0  0  0  0  0  0  0  0  0
  148.9754  135.4747  188.6437 C   0  0  0  0  0  0  0  0  0  0  0  0
  150.1804  135.4324  187.9785 C   0  0  0  0  0  0  0  0  0  0  0  0
  151.3683  135.5455  188.6777 C   0  0  0  0  0  0  0  0  0  0  0  0
  152.5457  135.4801  187.8128 C   0  0  0  0  0  0  0  0  0  0  0  0
  153.7145  135.9963  188.0114 N   0  0  0  0  0  0  0  0  0  0  0  0
  154.1698  136.7759  189.1406 C   0  0  0  0  0  0  0  0  0  0  0  0
  155.1940  137.6284  188.8168 C   0  0  0  0  0  0  0  0  0  0  0  0
  155.7096  138.4256  189.8109 C   0  0  0  0  0  0  0  0  0  0  0  0
  155.2127  138.3765  191.1142 C   0  0  0  0  0  0  0  0  0  0  0  0
  154.1873  137.5077  191.3900 C   0  0  0  0  0  0  0  0  0  0  0  0
  153.6343  136.6791  190.4068 C   0  0  0  0  0  0  0  0  0  0  0  0
  152.5436  135.8358  190.9682 C   0  0  0  0  0  0  0  0  0  0  0  0
  151.3808  135.7021  190.0476 C   0  0  0  0  0  0  0  0  0  0  0  0
  150.1062  136.0582  193.3393 N   0  0  0  0  0  0  0  0  0  0  0  0
  150.1424  135.9073  192.1751 C   0  0  0  0  0  0  0  0  0  0  0  0
 16 17  3  0  0  0
 17  1  1  0  0  0
  1  2  2  0  0  0
  2  3  1  0  0  0
  3  4  2  0  0  0
  4  5  1  0  0  0
  5  6  1  0  0  0
  6  7  2  0  0  0
  7  8  1  0  0  0
  8  9  2  0  0  0
  9 10  1  0  0  0
 10 11  2  0  0  0
 11 12  1  0  0  0
 12 13  2  0  0  0
 13 14  1  0  0  0
 14 15  1  0  0  0
 15  1  1  0  0  0
 15  5  2  0  0  0
 13  8  1  0  0  0
M  END
> <minimizedAffinity>
-5.13071

> <CNNscore>
0.5026177168

> <CNNaffinity>
4.2320599556

> <CNN_VS>
2.1271083355

> <CNNaffinity_variance>
0.0415477864

$$$$
[H]C1=Nc2c([H])c([H])c([H])c([H])c2C([H])([H])c2c(C#N)c([H])c([H])c([H])c21


 17 19  0  0  0  0  0  0  0  0999 V2000
  151.8675  136.9183  187.5764 C   0  0  0  0  0  0  0  0  0  0  0  0
  152.3575  137.8948  186.7403 C   0  0  0  0  0  0  0  0  0  0  0  0
  153.4117  138.7182  187.0832 C   0  0  0  0  0  0  0  0  0  0  0  0
  153.9869  138.5401  188.3217 C   0  0  0  0  0  0  0  0  0  0  0  0
  153.5108  137.5648  189.1790 C   0  0  0  0  0  0  0  0  0  0  0  0
  154.2379  137.5180  190.4469 C   0  0  0  0  0  0  0  0  0  0  0  0
  153.8130  137.1120  191.5988 N   0  0  0  0  0  0  0  0  0  0  0  0
  152.5066  136.5963  191.9412 C   0  0  0  0  0  0  0  0  0  0  0  0
  152.1872  136.7968  193.2597 C   0  0  0  0  0  0  0  0  0  0  0  0
  150.9652  136.3504  193.7034 C   0  0  0  0  0  0  0  0  0  0  0  0
  150.0689  135.7107  192.8459 C   0  0  0  0  0  0  0  0  0  0  0  0
  150.4330  135.5327  191.5350 C   0  0  0  0  0  0  0  0  0  0  0  0
  151.6675  135.9724  191.0434 C   0  0  0  0  0  0  0  0  0  0  0  0
  151.8120  135.6538  189.5965 C   0  0  0  0  0  0  0  0  0  0  0  0
  152.4570  136.7502  188.8223 C   0  0  0  0  0  0  0  0  0  0  0  0
  149.8723  135.3917  186.8073 N   0  0  0  0  0  0  0  0  0  0  0  0
  150.7567  136.0791  187.1607 C   0  0  0  0  0  0  0  0  0  0  0  0
 16 17  3  0  0  0
 17  1  1  0  0  0
  1  2  2  0  0  0
  2  3  1  0  0  0
  3  4  2  0  0  0
  4  5  1  0  0  0
  5  6  1  0  0  0
  6  7  2  0  0  0
  7  8  1  0  0  0
  8  9  2  0  0  0
  9 10  1  0  0  0
 10 11  2  0  0  0
 11 12  1  0  0  0
 12 13  2  0  0  0
 13 14  1  0  0  0
 14 15  1  0  0  0
 15  1  1  0  0  0
 15  5  2  0  0  0
 13  8  1  0  0  0
M  END
> <minimizedAffinity>
-5.58691

> <CNNscore>
0.4912586808

> <CNNaffinity>
4.2695322037

> <CNN_VS>
2.0974447727

> <CNNaffinity_variance>
0.0225621853

$$$$
[H]C1=Nc2c([H])c([H])c([H])c([H])c2C([H])([H])c2c(C#N)c([H])c([H])c([H])c21


 17 19  0  0  0  0  0  0  0  0999 V2000
  156.3389  133.8946  186.9813 C   0  0  0  0  0  0  0  0  0  0  0  0
  157.4164  133.1496  186.5609 C   0  0  0  0  0  0  0  0  0  0  0  0
  158.4477  132.7791  187.4014 C   0  0  0  0  0  0  0  0  0  0  0  0
  158.3783  133.1819  188.7164 C   0  0  0  0  0  0  0  0  0  0  0  0
  157.3047  133.9315  189.1614 C   0  0  0  0  0  0  0  0  0  0  0  0
  157.3965  134.2696  190.5812 C   0  0  0  0  0  0  0  0  0  0  0  0
  156.8833  135.2840  191.1974 N   0  0  0  0  0  0  0  0  0  0  0  0
  156.0821  136.3547  190.6482 C   0  0  0  0  0  0  0  0  0  0  0  0
  156.1803  137.5147  191.3729 C   0  0  0  0  0  0  0  0  0  0  0  0
  155.4634  138.6066  190.9446 C   0  0  0  0  0  0  0  0  0  0  0  0
  154.6566  138.5469  189.8073 C   0  0  0  0  0  0  0  0  0  0  0  0
  154.5903  137.3643  189.1148 C   0  0  0  0  0  0  0  0  0  0  0  0
  155.3042  136.2297  189.5173 C   0  0  0  0  0  0  0  0  0  0  0  0
  155.0546  135.0857  188.5982 C   0  0  0  0  0  0  0  0  0  0  0  0
  156.2823  134.2939  188.3100 C   0  0  0  0  0  0  0  0  0  0  0  0
  154.4301  134.5654  185.3054 N   0  0  0  0  0  0  0  0  0  0  0  0
  155.2811  134.2529  186.0521 C   0  0  0  0  0  0  0  0  0  0  0  0
 16 17  3  0  0  0
 17  1  1  0  0  0
  1  2  2  0  0  0
  2  3  1  0  0  0
  3  4  2  0  0  0
  4  5  1  0  0  0
  5  6  1  0  0  0
  6  7  2  0  0  0
  7  8  1  0  0  0
  8  9  2  0  0  0
  9 10  1  0  0  0
 10 11  2  0  0  0
 11 12  1  0  0  0
 12 13  2  0  0  0
 13 14  1  0  0  0
 14 15  1  0  0  0
 15  1  1  0  0  0
 15  5  2  0  0  0
 13  8  1  0  0  0
M  END
> <minimizedAffinity>
-4.71892

> <CNNscore>
0.4784567654

> <CNNaffinity>
4.2953462601

> <CNN_VS>
2.0551373959

> <CNNaffinity_variance>
0.0400362313

$$$$
[H]C1=Nc2c([H])c([H])c([H])c([H])c2C([H])([H])c2c(C#N)c([H])c([H])c([H])c21


 17 19  0  0  0  0  0  0  0  0999 V2000
  155.1240  137.2346  189.0293 C   0  0  0  0  0  0  0  0  0  0  0  0
  153.9511  137.5156  189.6913 C   0  0  0  0  0  0  0  0  0  0  0  0
  153.6794  137.0587  190.9658 C   0  0  0  0  0  0  0  0  0  0  0  0
  154.6368  136.2884  191.5877 C   0  0  0  0  0  0  0  0  0  0  0  0
  155.8233  135.9931  190.9415 C   0  0  0  0  0  0  0  0  0  0  0  0
  156.7200  135.1665  191.7486 C   0  0  0  0  0  0  0  0  0  0  0  0
  157.6307  134.3427  191.3435 N   0  0  0  0  0  0  0  0  0  0  0  0
  158.0059  134.0184  189.9856 C   0  0  0  0  0  0  0  0  0  0  0  0
  158.5471  132.7636  189.8712 C   0  0  0  0  0  0  0  0  0  0  0  0
  158.9405  132.3410  188.6238 C   0  0  0  0  0  0  0  0  0  0  0  0
  158.7976  133.1569  187.5005 C   0  0  0  0  0  0  0  0  0  0  0  0
  158.2507  134.4045  187.6646 C   0  0  0  0  0  0  0  0  0  0  0  0
  157.8376  134.8727  188.9173 C   0  0  0  0  0  0  0  0  0  0  0  0
  157.2854  136.2515  188.8184 C   0  0  0  0  0  0  0  0  0  0  0  0
  156.0801  136.4566  189.6685 C   0  0  0  0  0  0  0  0  0  0  0  0
  155.5375  138.1370  186.5968 N   0  0  0  0  0  0  0  0  0  0  0  0
  155.3563  137.7451  187.6891 C   0  0  0  0  0  0  0  0  0  0  0  0
 16 17  3  0  0  0
 17  1  1  0  0  0
  1  2  2  0  0  0
  2  3  1  0  0  0
  3  4  2  0  0  0
  4  5  1  0  0  0
  5  6  1  0  0  0
  6  7  2  0  0  0
  7  8  1  0  0  0
  8  9  2  0  0  0
  9 10  1  0  0  0
 10 11  2  0  0  0
 11 12  1  0  0  0
 12 13  2  0  0  0
 13 14  1  0  0  0
 14 15  1  0  0  0
 15  1  1  0  0  0
 15  5  2  0  0  0
 13  8  1  0  0  0
M  END
> <minimizedAffinity>
-4.80589

> <CNNscore>
0.4770448506

> <CNNaffinity>
4.2142305374

> <CNN_VS>
2.0103769302

> <CNNaffinity_variance>
0.1126182526

$$$$
[H]C1=Nc2c([H])c([H])c([H])c([H])c2C([H])([H])c2c(C#N)c([H])c([H])c([H])c21


 17 19  0  0  0  0  0  0  0  0999 V2000
  149.8794  138.6935  179.6707 C   0  0  0  0  0  0  0  0  0  0  0  0
  150.7389  139.6411  179.1647 C   0  0  0  0  0  0  0  0  0  0  0  0
  151.9254  139.9855  179.7817 C   0  0  0  0  0  0  0  0  0  0  0  0
  152.2473  139.3414  180.9556 C   0  0  0  0  0  0  0  0  0  0  0  0
  151.3985  138.3854  181.4830 C   0  0  0  0  0  0  0  0  0  0  0  0
  151.8977  137.8073  182.7301 C   0  0  0  0  0  0  0  0  0  0  0  0
  151.2184  137.2866  183.6993 N   0  0  0  0  0  0  0  0  0  0  0  0
  149.7848  137.1367  183.8096 C   0  0  0  0  0  0  0  0  0  0  0  0
  149.3550  137.0997  185.1114 C   0  0  0  0  0  0  0  0  0  0  0  0
  148.0070  136.9624  185.3429 C   0  0  0  0  0  0  0  0  0  0  0  0
  147.0945  136.8628  184.2916 C   0  0  0  0  0  0  0  0  0  0  0  0
  147.5720  136.9048  183.0060 C   0  0  0  0  0  0  0  0  0  0  0  0
  148.9366  137.0435  182.7273 C   0  0  0  0  0  0  0  0  0  0  0  0
  149.1849  137.0579  181.2597 C   0  0  0  0  0  0  0  0  0  0  0  0
  150.2168  138.0523  180.8551 C   0  0  0  0  0  0  0  0  0  0  0  0
  147.6598  138.1029  178.3952 N   0  0  0  0  0  0  0  0  0  0  0  0
  148.6451  138.3699  178.9761 C   0  0  0  0  0  0  0  0  0  0  0  0
 16 17  3  0  0  0
 17  1  1  0  0  0
  1  2  2  0  0  0
  2  3  1  0  0  0
  3  4  2  0  0  0
  4  5  1  0  0  0
  5  6  1  0  0  0
  6  7  2  0  0  0
  7  8  1  0  0  0
  8  9  2  0  0  0
  9 10  1  0  0  0
 10 11  2  0  0  0
 11 12  1  0  0  0
 12 13  2  0  0  0
 13 14  1  0  0  0
 14 15  1  0  0  0
 15  1  1  0  0  0
 15  5  2  0  0  0
 13  8  1  0  0  0
M  END
> <minimizedAffinity>
-5.00548

> <CNNscore>
0.4618056118

> <CNNaffinity>
4.3423280716

> <CNN_VS>
2.0053114891

> <CNNaffinity_variance>
0.0560694337

$$$$
[H]C1=Nc2c([H])c([H])c([H])c([H])c2C([H])([H])c2c(C#N)c([H])c([H])c([H])c21


 17 19  0  0  0  0  0  0  0  0999 V2000
  156.0491  135.2951  189.1393 C   0  0  0  0  0  0  0  0  0  0  0  0
  156.3173  135.7698  187.8761 C   0  0  0  0  0  0  0  0  0  0  0  0
  156.1406  137.0914  187.5168 C   0  0  0  0  0  0  0  0  0  0  0  0
  155.6743  137.9598  188.4785 C   0  0  0  0  0  0  0  0  0  0  0  0
  155.3978  137.5049  189.7550 C   0  0  0  0  0  0  0  0  0  0  0  0
  154.9127  138.5612  190.6425 C   0  0  0  0  0  0  0  0  0  0  0  0
  154.1471  138.4474  191.6784 N   0  0  0  0  0  0  0  0  0  0  0  0
  153.5662  137.2468  192.2360 C   0  0  0  0  0  0  0  0  0  0  0  0
  152.4043  137.4904  192.9225 C   0  0  0  0  0  0  0  0  0  0  0  0
  151.7572  136.4221  193.4966 C   0  0  0  0  0  0  0  0  0  0  0  0
  152.2593  135.1243  193.3900 C   0  0  0  0  0  0  0  0  0  0  0  0
  153.4252  134.9301  192.6931 C   0  0  0  0  0  0  0  0  0  0  0  0
  154.1147  135.9905  192.0938 C   0  0  0  0  0  0  0  0  0  0  0  0
  155.3444  135.5094  191.4064 C   0  0  0  0  0  0  0  0  0  0  0  0
  155.5793  136.1820  190.0988 C   0  0  0  0  0  0  0  0  0  0  0  0
  156.4231  132.7554  189.6982 N   0  0  0  0  0  0  0  0  0  0  0  0
  156.2568  133.8936  189.4611 C   0  0  0  0  0  0  0  0  0  0  0  0
 16 17  3  0  0  0
 17  1  1  0  0  0
  1  2  2  0  0  0
  2  3  1  0  0  0
  3  4  2  0  0  0
  4  5  1  0  0  0
  5  6  1  0  0  0
  6  7  2  0  0  0
  7  8  1  0  0  0
  8  9  2  0  0  0
  9 10  1  0  0  0
 10 11  2  0  0  0
 11 12  1  0  0  0
 12 13  2  0  0  0
 13 14  1  0  0  0
 14 15  1  0  0  0
 15  1  1  0  0  0
 15  5  2  0  0  0
 13  8  1  0  0  0
M  END
> <minimizedAffinity>
-4.99877

> <CNNscore>
0.4504952133

> <CNNaffinity>
4.3419556618

> <CNN_VS>
1.9560302496

> <CNNaffinity_variance>
0.0962275341

$$$$
[H]C1=Nc2c([H])c([H])c([H])c([H])c2C([H])([H])c2c(C#N)c([H])c([H])c([H])c21


 17 19  0  0  0  0  0  0  0  0999 V2000
  152.7616  137.5222  186.3333 C   0  0  0  0  0  0  0  0  0  0  0  0
  151.9202  136.6776  185.6468 C   0  0  0  0  0  0  0  0  0  0  0  0
  151.1020  135.7587  186.2741 C   0  0  0  0  0  0  0  0  0  0  0  0
  151.1428  135.6986  187.6493 C   0  0  0  0  0  0  0  0  0  0  0  0
  151.9812  136.5379  188.3603 C   0  0  0  0  0  0  0  0  0  0  0  0
  151.8948  136.3364  189.8062 C   0  0  0  0  0  0  0  0  0  0  0  0
  152.7999  136.5632  190.7014 N   0  0  0  0  0  0  0  0  0  0  0  0
  154.1383  137.0762  190.5129 C   0  0  0  0  0  0  0  0  0  0  0  0
  155.0034  136.6727  191.4975 C   0  0  0  0  0  0  0  0  0  0  0  0
  156.3090  137.0964  191.4237 C   0  0  0  0  0  0  0  0  0  0  0  0
  156.7511  137.9131  190.3819 C   0  0  0  0  0  0  0  0  0  0  0  0
  155.8487  138.2909  189.4199 C   0  0  0  0  0  0  0  0  0  0  0  0
  154.5108  137.8814  189.4583 C   0  0  0  0  0  0  0  0  0  0  0  0
  153.7490  138.4309  188.3035 C   0  0  0  0  0  0  0  0  0  0  0  0
  152.7924  137.4504  187.7196 C   0  0  0  0  0  0  0  0  0  0  0  0
  154.2692  139.2284  185.0223 N   0  0  0  0  0  0  0  0  0  0  0  0
  153.5984  138.4715  185.6196 C   0  0  0  0  0  0  0  0  0  0  0  0
 16 17  3  0  0  0
 17  1  1  0  0  0
  1  2  2  0  0  0
  2  3  1  0  0  0
  3  4  2  0  0  0
  4  5  1  0  0  0
  5  6  1  0  0  0
  6  7  2  0  0  0
  7  8  1  0  0  0
  8  9  2  0  0  0
  9 10  1  0  0  0
 10 11  2  0  0  0
 11 12  1  0  0  0
 12 13  2  0  0  0
 13 14  1  0  0  0
 14 15  1  0  0  0
 15  1  1  0  0  0
 15  5  2  0  0  0
 13  8  1  0  0  0
M  END
> <minimizedAffinity>
-5.60664

> <CNNscore>
0.4429959059

> <CNNaffinity>
4.3321800232

> <CNN_VS>
1.9191379547

> <CNNaffinity_variance>
0.0374952517

$$$$
[H]C1=Nc2c([H])c([H])c([H])c([H])c2C([H])([H])c2c(C#N)c([H])c([H])c([H])c21


 17 19  0  0  0  0  0  0  0  0999 V2000
  151.7767  139.6664  180.7661 C   0  0  0  0  0  0  0  0  0  0  0  0
  151.1929  140.0659  179.5862 C   0  0  0  0  0  0  0  0  0  0  0  0
  150.1384  139.3912  179.0033 C   0  0  0  0  0  0  0  0  0  0  0  0
  149.6621  138.2699  179.6455 C   0  0  0  0  0  0  0  0  0  0  0  0
  150.2336  137.8495  180.8327 C   0  0  0  0  0  0  0  0  0  0  0  0
  149.6035  136.6451  181.3720 C   0  0  0  0  0  0  0  0  0  0  0  0
  150.1257  135.7425  182.1367 N   0  0  0  0  0  0  0  0  0  0  0  0
  151.4709  135.6823  182.6626 C   0  0  0  0  0  0  0  0  0  0  0  0
  151.8789  134.4001  182.9276 C   0  0  0  0  0  0  0  0  0  0  0  0
  153.1450  134.2159  183.4301 C   0  0  0  0  0  0  0  0  0  0  0  0
  153.9979  135.2949  183.6673 C   0  0  0  0  0  0  0  0  0  0  0  0
  153.5452  136.5594  183.3866 C   0  0  0  0  0  0  0  0  0  0  0  0
  152.2633  136.7899  182.8741 C   0  0  0  0  0  0  0  0  0  0  0  0
  152.0244  138.2439  182.6629 C   0  0  0  0  0  0  0  0  0  0  0  0
  151.2863  138.5340  181.4025 C   0  0  0  0  0  0  0  0  0  0  0  0
  153.7910  141.0067  181.7902 N   0  0  0  0  0  0  0  0  0  0  0  0
  152.8828  140.4178  181.3344 C   0  0  0  0  0  0  0  0  0  0  0  0
 16 17  3  0  0  0
 17  1  1  0  0  0
  1  2  2  0  0  0
  2  3  1  0  0  0
  3  4  2  0  0  0
  4  5  1  0  0  0
  5  6  1  0  0  0
  6  7  2  0  0  0
  7  8  1  0  0  0
  8  9  2  0  0  0
  9 10  1  0  0  0
 10 11  2  0  0  0
 11 12  1  0  0  0
 12 13  2  0  0  0
 13 14  1  0  0  0
 14 15  1  0  0  0
 15  1  1  0  0  0
 15  5  2  0  0  0
 13  8  1  0  0  0
M  END
> <minimizedAffinity>
-5.25074

> <CNNscore>
0.4200467169

> <CNNaffinity>
4.1986579895

> <CNN_VS>
1.7636325359

> <CNNaffinity_variance>
0.0492541343

$$$$
[H]c1nc(N2C([H])([H])C([H])([H])C([H])([H])[C@@]2([H])C(F)(F)F)nc([H])c1-c1nc(N([H])C(=O)[C@@]([H])(n2c([H])nc3c2c(=O)n(C([H])([H])C#CC([H])([H])[H])c(=O)n3C([H])([H])[H])C([H])([H])[H])c([H])s1


 42 46  0  0  0  0  0  0  0  0999 V2000
  154.1540  138.3290  185.0466 C   0  0  0  0  0  0  0  0  0  0  0  0
  153.5504  138.8692  185.9921 O   0  0  0  0  0  0  0  0  0  0  0  0
  153.5211  137.3175  184.2810 N   0  0  0  0  0  0  0  0  0  0  0  0
  154.0192  136.8463  183.4751 H   0  0  0  0  0  0  0  0  0  0  0  0
  152.1628  136.9285  184.5994 C   0  0  0  0  0  0  0  0  0  0  0  0
  151.1257  137.2547  183.7565 C   0  0  0  0  0  0  0  0  0  0  0  0
  149.7855  136.5945  184.5825 S   0  0  0  0  0  0  0  0  0  0  0  0
  150.6116  135.9518  185.9323 C   0  0  0  0  0  0  0  0  0  0  0  0
  151.8665  136.2755  185.6796 N   0  0  0  0  0  0  0  0  0  0  0  0
  150.0601  135.2215  187.0967 C   0  0  0  0  0  0  0  0  0  0  0  0
  149.0874  134.2717  186.8923 C   0  0  0  0  0  0  0  0  0  0  0  0
  148.5619  133.5959  187.9332 N   0  0  0  0  0  0  0  0  0  0  0  0
  148.9530  133.8088  189.2100 C   0  0  0  0  0  0  0  0  0  0  0  0
  149.9034  134.7370  189.4048 N   0  0  0  0  0  0  0  0  0  0  0  0
  150.4679  135.4487  188.3872 C   0  0  0  0  0  0  0  0  0  0  0  0
  148.3754  133.0804  190.2882 N   0  0  0  0  0  0  0  0  0  0  0  0
  147.0403  133.1779  190.8268 C   0  0  0  0  0  0  0  0  0  0  0  0
  147.3067  133.1867  192.3168 C   0  0  0  0  0  0  0  0  0  0  0  0
  148.4003  132.1454  192.4252 C   0  0  0  0  0  0  0  0  0  0  0  0
  149.0560  132.0806  191.0669 C   0  0  0  0  0  0  0  0  0  0  0  0
  148.9839  130.6916  190.4740 C   0  0  0  0  0  0  0  0  0  0  0  0
  148.1153  130.5861  189.4206 F   0  0  0  0  0  0  0  0  0  0  0  0
  148.5065  129.8170  191.4566 F   0  0  0  0  0  0  0  0  0  0  0  0
  150.2429  130.2300  190.1490 F   0  0  0  0  0  0  0  0  0  0  0  0
  155.5495  138.7434  184.7110 C   0  0  0  0  0  0  0  0  0  0  0  0
  156.3121  138.8675  186.0011 C   0  0  0  0  0  0  0  0  0  0  0  0
  158.8253  141.5622  183.2866 N   0  0  0  0  0  0  0  0  0  0  0  0
  158.2963  142.6851  182.7850 C   0  0  0  0  0  0  0  0  0  0  0  0
  159.0379  143.6079  182.3292 O   0  0  0  0  0  0  0  0  0  0  0  0
  156.9535  142.8975  182.7359 N   0  0  0  0  0  0  0  0  0  0  0  0
  156.3777  144.1166  182.1929 C   0  0  0  0  0  0  0  0  0  0  0  0
  156.1098  141.9530  183.2051 C   0  0  0  0  0  0  0  0  0  0  0  0
  154.7623  141.9147  183.2713 N   0  0  0  0  0  0  0  0  0  0  0  0
  154.4111  140.7346  183.8310 C   0  0  0  0  0  0  0  0  0  0  0  0
  155.5484  140.0605  184.1028 N   0  0  0  0  0  0  0  0  0  0  0  0
  156.6160  140.7770  183.7323 C   0  0  0  0  0  0  0  0  0  0  0  0
  157.9786  140.6290  183.7512 C   0  0  0  0  0  0  0  0  0  0  0  0
  158.4607  139.5793  184.2216 O   0  0  0  0  0  0  0  0  0  0  0  0
  160.2652  141.4141  183.2979 C   0  0  0  0  0  0  0  0  0  0  0  0
  161.9059  143.1115  186.7073 C   0  0  0  0  0  0  0  0  0  0  0  0
  161.3477  142.4986  185.4914 C   0  0  0  0  0  0  0  0  0  0  0  0
  160.8669  142.0016  184.4962 C   0  0  0  0  0  0  0  0  0  0  0  0
 40 41  1  0  0  0
 41 42  3  0  0  0
 42 39  1  0  0  0
 39 27  1  0  0  0
 27 28  1  0  0  0
 28 29  2  0  0  0
 28 30  1  0  0  0
 30 31  1  0  0  0
 30 32  1  0  0  0
 32 33  1  0  0  0
 33 34  2  0  0  0
 34 35  1  0  0  0
 35 25  1  0  0  0
 25 26  1  0  0  0
 25  1  1  0  0  0
  1  2  2  0  0  0
  1  3  1  0  0  0
  3  5  1  0  0  0
  5  6  2  0  0  0
  6  7  1  0  0  0
  7  8  1  0  0  0
  8  9  2  0  0  0
  8 10  1  0  0  0
 10 11  2  0  0  0
 11 12  1  0  0  0
 12 13  2  0  0  0
 13 14  1  0  0  0
 14 15  2  0  0  0
 13 16  1  0  0  0
 16 17  1  0  0  0
 17 18  1  0  0  0
 18 19  1  0  0  0
 19 20  1  0  0  0
 20 21  1  0  0  0
 21 22  1  0  0  0
 21 23  1  0  0  0
 21 24  1  0  0  0
 35 36  1  0  0  0
 36 37  1  0  0  0
 37 38  2  0  0  0
 37 27  1  0  0  0
 36 32  2  0  0  0
  9  5  1  0  0  0
 15 10  1  0  0  0
 20 16  1  0  0  0
  3  4  1  0  0  0
M  END
> <minimizedAffinity>
-6.81982

> <CNNscore>
0.3369765282

> <CNNaffinity>
6.6919794083

> <CNN_VS>
2.2550399303

> <CNNaffinity_variance>
0.4390761852

$$$$
[H]c1nc(N2C([H])([H])C([H])([H])C([H])([H])[C@@]2([H])C(F)(F)F)nc([H])c1-c1nc(N([H])C(=O)[C@@]([H])(n2c([H])nc3c2c(=O)n(C([H])([H])C#CC([H])([H])[H])c(=O)n3C([H])([H])[H])C([H])([H])[H])c([H])s1


 42 46  0  0  0  0  0  0  0  0999 V2000
  152.0948  134.1126  185.7968 C   0  0  0  0  0  0  0  0  0  0  0  0
  153.2453  133.9406  186.2405 O   0  0  0  0  0  0  0  0  0  0  0  0
  151.5352  135.4143  185.7506 N   0  0  0  0  0  0  0  0  0  0  0  0
  150.5586  135.5792  185.3784 H   0  0  0  0  0  0  0  0  0  0  0  0
  152.3182  136.5427  186.2105 C   0  0  0  0  0  0  0  0  0  0  0  0
  152.1111  137.0744  187.4622 C   0  0  0  0  0  0  0  0  0  0  0  0
  153.2467  138.3488  187.4908 S   0  0  0  0  0  0  0  0  0  0  0  0
  153.9084  138.1332  185.9310 C   0  0  0  0  0  0  0  0  0  0  0  0
  153.2270  137.0996  185.4722 N   0  0  0  0  0  0  0  0  0  0  0  0
  154.9731  138.9128  185.2586 C   0  0  0  0  0  0  0  0  0  0  0  0
  154.6502  139.6869  184.1694 C   0  0  0  0  0  0  0  0  0  0  0  0
  155.5991  140.4019  183.5331 N   0  0  0  0  0  0  0  0  0  0  0  0
  156.8943  140.3987  183.9213 C   0  0  0  0  0  0  0  0  0  0  0  0
  157.2049  139.6415  184.9857 N   0  0  0  0  0  0  0  0  0  0  0  0
  156.2838  138.8994  185.6651 C   0  0  0  0  0  0  0  0  0  0  0  0
  157.8735  141.1626  183.2253 N   0  0  0  0  0  0  0  0  0  0  0  0
  159.0975  140.7096  182.6098 C   0  0  0  0  0  0  0  0  0  0  0  0
  160.0847  141.7594  183.0730 C   0  0  0  0  0  0  0  0  0  0  0  0
  159.2562  143.0197  182.9403 C   0  0  0  0  0  0  0  0  0  0  0  0
  157.8125  142.5838  183.0114 C   0  0  0  0  0  0  0  0  0  0  0  0
  157.0438  142.9819  181.7719 C   0  0  0  0  0  0  0  0  0  0  0  0
  155.8547  143.6069  182.0374 F   0  0  0  0  0  0  0  0  0  0  0  0
  156.7190  141.8204  181.0623 F   0  0  0  0  0  0  0  0  0  0  0  0
  157.8353  143.7255  180.9206 F   0  0  0  0  0  0  0  0  0  0  0  0
  151.2956  132.9486  185.3089 C   0  0  0  0  0  0  0  0  0  0  0  0
  152.1590  131.7225  185.4204 C   0  0  0  0  0  0  0  0  0  0  0  0
  147.8231  134.8172  183.0383 N   0  0  0  0  0  0  0  0  0  0  0  0
  148.0116  134.7110  181.7172 C   0  0  0  0  0  0  0  0  0  0  0  0
  147.1587  135.1704  180.8981 O   0  0  0  0  0  0  0  0  0  0  0  0
  149.1119  134.1133  181.1853 N   0  0  0  0  0  0  0  0  0  0  0  0
  149.3172  133.9959  179.7512 C   0  0  0  0  0  0  0  0  0  0  0  0
  150.0574  133.6041  182.0043 C   0  0  0  0  0  0  0  0  0  0  0  0
  151.2213  132.9742  181.7391 N   0  0  0  0  0  0  0  0  0  0  0  0
  151.8008  132.6652  182.9214 C   0  0  0  0  0  0  0  0  0  0  0  0
  150.9851  133.1092  183.9009 N   0  0  0  0  0  0  0  0  0  0  0  0
  149.9010  133.6931  183.3772 C   0  0  0  0  0  0  0  0  0  0  0  0
  148.7685  134.3076  183.8447 C   0  0  0  0  0  0  0  0  0  0  0  0
  148.6026  134.4004  185.0774 O   0  0  0  0  0  0  0  0  0  0  0  0
  146.6259  135.4718  183.5217 C   0  0  0  0  0  0  0  0  0  0  0  0
  147.2801  139.4634  184.4361 C   0  0  0  0  0  0  0  0  0  0  0  0
  147.0623  138.0398  184.1332 C   0  0  0  0  0  0  0  0  0  0  0  0
  146.8692  136.8738  183.8661 C   0  0  0  0  0  0  0  0  0  0  0  0
 40 41  1  0  0  0
 41 42  3  0  0  0
 42 39  1  0  0  0
 39 27  1  0  0  0
 27 28  1  0  0  0
 28 29  2  0  0  0
 28 30  1  0  0  0
 30 31  1  0  0  0
 30 32  1  0  0  0
 32 33  1  0  0  0
 33 34  2  0  0  0
 34 35  1  0  0  0
 35 25  1  0  0  0
 25 26  1  0  0  0
 25  1  1  0  0  0
  1  2  2  0  0  0
  1  3  1  0  0  0
  3  5  1  0  0  0
  5  6  2  0  0  0
  6  7  1  0  0  0
  7  8  1  0  0  0
  8  9  2  0  0  0
  8 10  1  0  0  0
 10 11  2  0  0  0
 11 12  1  0  0  0
 12 13  2  0  0  0
 13 14  1  0  0  0
 14 15  2  0  0  0
 13 16  1  0  0  0
 16 17  1  0  0  0
 17 18  1  0  0  0
 18 19  1  0  0  0
 19 20  1  0  0  0
 20 21  1  0  0  0
 21 22  1  0  0  0
 21 23  1  0  0  0
 21 24  1  0  0  0
 35 36  1  0  0  0
 36 37  1  0  0  0
 37 38  2  0  0  0
 37 27  1  0  0  0
 36 32  2  0  0  0
  9  5  1  0  0  0
 15 10  1  0  0  0
 20 16  1  0  0  0
  3  4  1  0  0  0
M  END
> <minimizedAffinity>
-5.80701

> <CNNscore>
0.2815690935

> <CNNaffinity>
6.9025535583

> <CNN_VS>
1.9435456991

> <CNNaffinity_variance>
0.2395850420

$$$$
[H]c1nc(N2C([H])([H])C([H])([H])C([H])([H])[C@@]2([H])C(F)(F)F)nc([H])c1-c1nc(N([H])C(=O)[C@@]([H])(n2c([H])nc3c2c(=O)n(C([H])([H])C#CC([H])([H])[H])c(=O)n3C([H])([H])[H])C([H])([H])[H])c([H])s1


 42 46  0  0  0  0  0  0  0  0999 V2000
  154.2370  138.3079  185.1985 C   0  0  0  0  0  0  0  0  0  0  0  0
  153.7001  138.7995  186.2086 O   0  0  0  0  0  0  0  0  0  0  0  0
  153.5430  137.3510  184.4159 N   0  0  0  0  0  0  0  0  0  0  0  0
  153.9840  136.9215  183.5554 H   0  0  0  0  0  0  0  0  0  0  0  0
  152.2000  136.9614  184.7935 C   0  0  0  0  0  0  0  0  0  0  0  0
  151.1357  137.2237  183.9625 C   0  0  0  0  0  0  0  0  0  0  0  0
  149.8288  136.5927  184.8616 S   0  0  0  0  0  0  0  0  0  0  0  0
  150.7011  136.0403  186.2223 C   0  0  0  0  0  0  0  0  0  0  0  0
  151.9433  136.3671  185.9169 N   0  0  0  0  0  0  0  0  0  0  0  0
  150.1927  135.3701  187.4412 C   0  0  0  0  0  0  0  0  0  0  0  0
  151.0403  134.5672  188.1671 C   0  0  0  0  0  0  0  0  0  0  0  0
  150.6041  133.9391  189.2769 N   0  0  0  0  0  0  0  0  0  0  0  0
  149.3358  134.0603  189.7297 C   0  0  0  0  0  0  0  0  0  0  0  0
  148.5117  134.8457  189.0178 N   0  0  0  0  0  0  0  0  0  0  0  0
  148.9022  135.5035  187.8884 C   0  0  0  0  0  0  0  0  0  0  0  0
  148.9051  133.3804  190.9041 N   0  0  0  0  0  0  0  0  0  0  0  0
  148.8135  131.9596  191.1386 C   0  0  0  0  0  0  0  0  0  0  0  0
  147.4598  131.8418  191.8055 C   0  0  0  0  0  0  0  0  0  0  0  0
  147.4766  133.0494  192.7184 C   0  0  0  0  0  0  0  0  0  0  0  0
  148.4600  134.0215  192.1124 C   0  0  0  0  0  0  0  0  0  0  0  0
  149.5788  134.3600  193.0714 C   0  0  0  0  0  0  0  0  0  0  0  0
  150.8167  133.9711  192.6339 F   0  0  0  0  0  0  0  0  0  0  0  0
  149.3579  133.6691  194.2681 F   0  0  0  0  0  0  0  0  0  0  0  0
  149.5503  135.6981  193.4070 F   0  0  0  0  0  0  0  0  0  0  0  0
  155.6164  138.7234  184.8031 C   0  0  0  0  0  0  0  0  0  0  0  0
  156.4237  138.8841  186.0615 C   0  0  0  0  0  0  0  0  0  0  0  0
  158.8212  141.5608  183.2590 N   0  0  0  0  0  0  0  0  0  0  0  0
  158.2654  142.6623  182.7393 C   0  0  0  0  0  0  0  0  0  0  0  0
  158.9840  143.5860  182.2497 O   0  0  0  0  0  0  0  0  0  0  0  0
  156.9185  142.8513  182.7068 N   0  0  0  0  0  0  0  0  0  0  0  0
  156.3138  144.0472  182.1443 C   0  0  0  0  0  0  0  0  0  0  0  0
  156.0985  141.9046  183.2121 C   0  0  0  0  0  0  0  0  0  0  0  0
  154.7531  141.8456  183.3009 N   0  0  0  0  0  0  0  0  0  0  0  0
  154.4307  140.6737  183.8942 C   0  0  0  0  0  0  0  0  0  0  0  0
  155.5834  140.0253  184.1637 N   0  0  0  0  0  0  0  0  0  0  0  0
  156.6328  140.7501  183.7590 C   0  0  0  0  0  0  0  0  0  0  0  0
  157.9978  140.6252  183.7593 C   0  0  0  0  0  0  0  0  0  0  0  0
  158.5049  139.5952  184.2468 O   0  0  0  0  0  0  0  0  0  0  0  0
  160.2634  141.4367  183.2505 C   0  0  0  0  0  0  0  0  0  0  0  0
  161.9401  143.1107  186.6539 C   0  0  0  0  0  0  0  0  0  0  0  0
  161.3615  142.5316  185.4309 C   0  0  0  0  0  0  0  0  0  0  0  0
  160.8720  142.0407  184.4371 C   0  0  0  0  0  0  0  0  0  0  0  0
 40 41  1  0  0  0
 41 42  3  0  0  0
 42 39  1  0  0  0
 39 27  1  0  0  0
 27 28  1  0  0  0
 28 29  2  0  0  0
 28 30  1  0  0  0
 30 31  1  0  0  0
 30 32  1  0  0  0
 32 33  1  0  0  0
 33 34  2  0  0  0
 34 35  1  0  0  0
 35 25  1  0  0  0
 25 26  1  0  0  0
 25  1  1  0  0  0
  1  2  2  0  0  0
  1  3  1  0  0  0
  3  5  1  0  0  0
  5  6  2  0  0  0
  6  7  1  0  0  0
  7  8  1  0  0  0
  8  9  2  0  0  0
  8 10  1  0  0  0
 10 11  2  0  0  0
 11 12  1  0  0  0
 12 13  2  0  0  0
 13 14  1  0  0  0
 14 15  2  0  0  0
 13 16  1  0  0  0
 16 17  1  0  0  0
 17 18  1  0  0  0
 18 19  1  0  0  0
 19 20  1  0  0  0
 20 21  1  0  0  0
 21 22  1  0  0  0
 21 23  1  0  0  0
 21 24  1  0  0  0
 35 36  1  0  0  0
 36 37  1  0  0  0
 37 38  2  0  0  0
 37 27  1  0  0  0
 36 32  2  0  0  0
  9  5  1  0  0  0
 15 10  1  0  0  0
 20 16  1  0  0  0
  3  4  1  0  0  0
M  END
> <minimizedAffinity>
-7.48498

> <CNNscore>
0.2752317786

> <CNNaffinity>
6.5880675316

> <CNN_VS>
1.8132455349

> <CNNaffinity_variance>
0.4616765082

$$$$
[H]c1nc(N2C([H])([H])C([H])([H])C([H])([H])[C@@]2([H])C(F)(F)F)nc([H])c1-c1nc(N([H])C(=O)[C@@]([H])(n2c([H])nc3c2c(=O)n(C([H])([H])C#CC([H])([H])[H])c(=O)n3C([H])([H])[H])C([H])([H])[H])c([H])s1


 42 46  0  0  0  0  0  0  0  0999 V2000
  150.8362  138.4518  181.2862 C   0  0  0  0  0  0  0  0  0  0  0  0
  150.2250  139.0459  182.1938 O   0  0  0  0  0  0  0  0  0  0  0  0
  152.2531  138.4074  181.2908 N   0  0  0  0  0  0  0  0  0  0  0  0
  152.7893  137.9087  180.5270 H   0  0  0  0  0  0  0  0  0  0  0  0
  152.9821  139.0464  182.3670 C   0  0  0  0  0  0  0  0  0  0  0  0
  153.6097  140.2539  182.1665 C   0  0  0  0  0  0  0  0  0  0  0  0
  154.3073  140.5416  183.6979 S   0  0  0  0  0  0  0  0  0  0  0  0
  153.7672  139.1288  184.4915 C   0  0  0  0  0  0  0  0  0  0  0  0
  153.0830  138.5135  183.5447 N   0  0  0  0  0  0  0  0  0  0  0  0
  154.0101  138.6979  185.8874 C   0  0  0  0  0  0  0  0  0  0  0  0
  155.2791  138.3247  186.2620 C   0  0  0  0  0  0  0  0  0  0  0  0
  155.5292  137.9216  187.5236 N   0  0  0  0  0  0  0  0  0  0  0  0
  154.5671  137.8627  188.4719 C   0  0  0  0  0  0  0  0  0  0  0  0
  153.3294  138.2284  188.1016 N   0  0  0  0  0  0  0  0  0  0  0  0
  153.0228  138.6438  186.8390 C   0  0  0  0  0  0  0  0  0  0  0  0
  154.8632  137.4289  189.7952 N   0  0  0  0  0  0  0  0  0  0  0  0
  155.4451  138.1819  190.8798 C   0  0  0  0  0  0  0  0  0  0  0  0
  156.4646  137.2043  191.4242 C   0  0  0  0  0  0  0  0  0  0  0  0
  155.6906  135.9049  191.3555 C   0  0  0  0  0  0  0  0  0  0  0  0
  154.6290  136.1026  190.3005 C   0  0  0  0  0  0  0  0  0  0  0  0
  153.2384  135.8986  190.8577 C   0  0  0  0  0  0  0  0  0  0  0  0
  153.2019  135.1025  191.9713 F   0  0  0  0  0  0  0  0  0  0  0  0
  152.4674  135.2443  189.8904 F   0  0  0  0  0  0  0  0  0  0  0  0
  152.6124  137.1094  191.0719 F   0  0  0  0  0  0  0  0  0  0  0  0
  150.0809  137.7806  180.1860 C   0  0  0  0  0  0  0  0  0  0  0  0
  149.2141  138.8180  179.5276 C   0  0  0  0  0  0  0  0  0  0  0  0
  150.7123  133.8264  182.3473 N   0  0  0  0  0  0  0  0  0  0  0  0
  149.5370  133.2645  182.6559 C   0  0  0  0  0  0  0  0  0  0  0  0
  149.4861  132.1529  183.2650 O   0  0  0  0  0  0  0  0  0  0  0  0
  148.3481  133.8446  182.3388 N   0  0  0  0  0  0  0  0  0  0  0  0
  147.0713  133.2350  182.6718 C   0  0  0  0  0  0  0  0  0  0  0  0
  148.3344  135.0290  181.6900 C   0  0  0  0  0  0  0  0  0  0  0  0
  147.3120  135.8026  181.2681 N   0  0  0  0  0  0  0  0  0  0  0  0
  147.8413  136.8944  180.6706 C   0  0  0  0  0  0  0  0  0  0  0  0
  149.1847  136.7789  180.7322 N   0  0  0  0  0  0  0  0  0  0  0  0
  149.5281  135.6440  181.3523 C   0  0  0  0  0  0  0  0  0  0  0  0
  150.6886  135.0039  181.7019 C   0  0  0  0  0  0  0  0  0  0  0  0
  151.7780  135.5360  181.4087 O   0  0  0  0  0  0  0  0  0  0  0  0
  151.9320  133.1443  182.7248 C   0  0  0  0  0  0  0  0  0  0  0  0
  153.7778  131.4493  179.4206 C   0  0  0  0  0  0  0  0  0  0  0  0
  153.1318  132.0305  180.6083 C   0  0  0  0  0  0  0  0  0  0  0  0
  152.5934  132.5274  181.5735 C   0  0  0  0  0  0  0  0  0  0  0  0
 40 41  1  0  0  0
 41 42  3  0  0  0
 42 39  1  0  0  0
 39 27  1  0  0  0
 27 28  1  0  0  0
 28 29  2  0  0  0
 28 30  1  0  0  0
 30 31  1  0  0  0
 30 32  1  0  0  0
 32 33  1  0  0  0
 33 34  2  0  0  0
 34 35  1  0  0  0
 35 25  1  0  0  0
 25 26  1  0  0  0
 25  1  1  0  0  0
  1  2  2  0  0  0
  1  3  1  0  0  0
  3  5  1  0  0  0
  5  6  2  0  0  0
  6  7  1  0  0  0
  7  8  1  0  0  0
  8  9  2  0  0  0
  8 10  1  0  0  0
 10 11  2  0  0  0
 11 12  1  0  0  0
 12 13  2  0  0  0
 13 14  1  0  0  0
 14 15  2  0  0  0
 13 16  1  0  0  0
 16 17  1  0  0  0
 17 18  1  0  0  0
 18 19  1  0  0  0
 19 20  1  0  0  0
 20 21  1  0  0  0
 21 22  1  0  0  0
 21 23  1  0  0  0
 21 24  1  0  0  0
 35 36  1  0  0  0
 36 37  1  0  0  0
 37 38  2  0  0  0
 37 27  1  0  0  0
 36 32  2  0  0  0
  9  5  1  0  0  0
 15 10  1  0  0  0
 20 16  1  0  0  0
  3  4  1  0  0  0
M  END
> <minimizedAffinity>
-5.79275

> <CNNscore>
0.2563771009

> <CNNaffinity>
6.3401908875

> <CNN_VS>
1.6254798174

> <CNNaffinity_variance>
0.1828958541

$$$$
[H]c1nc(N2C([H])([H])C([H])([H])C([H])([H])[C@@]2([H])C(F)(F)F)nc([H])c1-c1nc(N([H])C(=O)[C@@]([H])(n2c([H])nc3c2c(=O)n(C([H])([H])C#CC([H])([H])[H])c(=O)n3C([H])([H])[H])C([H])([H])[H])c([H])s1


 42 46  0  0  0  0  0  0  0  0999 V2000
  154.3280  138.2561  185.5485 C   0  0  0  0  0  0  0  0  0  0  0  0
  153.8824  138.8168  186.5669 O   0  0  0  0  0  0  0  0  0  0  0  0
  153.5689  137.2513  184.8974 N   0  0  0  0  0  0  0  0  0  0  0  0
  153.9322  136.7630  184.0319 H   0  0  0  0  0  0  0  0  0  0  0  0
  152.2659  136.8931  185.4189 C   0  0  0  0  0  0  0  0  0  0  0  0
  151.1421  137.0102  184.6343 C   0  0  0  0  0  0  0  0  0  0  0  0
  149.9165  136.4897  185.7029 S   0  0  0  0  0  0  0  0  0  0  0  0
  150.8923  136.1588  187.0652 C   0  0  0  0  0  0  0  0  0  0  0  0
  152.1014  136.4632  186.6309 N   0  0  0  0  0  0  0  0  0  0  0  0
  150.4852  135.6624  188.3998 C   0  0  0  0  0  0  0  0  0  0  0  0
  151.4554  135.3286  189.3148 C   0  0  0  0  0  0  0  0  0  0  0  0
  151.1153  134.8678  190.5349 N   0  0  0  0  0  0  0  0  0  0  0  0
  149.8286  134.7112  190.9200 C   0  0  0  0  0  0  0  0  0  0  0  0
  148.8846  135.0388  190.0232 N   0  0  0  0  0  0  0  0  0  0  0  0
  149.1744  135.5092  188.7761 C   0  0  0  0  0  0  0  0  0  0  0  0
  149.5025  134.2184  192.2153 N   0  0  0  0  0  0  0  0  0  0  0  0
  149.3842  134.9507  193.4530 C   0  0  0  0  0  0  0  0  0  0  0  0
  150.1315  134.0540  194.4166 C   0  0  0  0  0  0  0  0  0  0  0  0
  149.6642  132.6861  193.9667 C   0  0  0  0  0  0  0  0  0  0  0  0
  149.2287  132.8416  192.5295 C   0  0  0  0  0  0  0  0  0  0  0  0
  147.7822  132.4473  192.3350 C   0  0  0  0  0  0  0  0  0  0  0  0
  146.8954  133.4581  192.5938 F   0  0  0  0  0  0  0  0  0  0  0  0
  147.4779  131.4258  193.2417 F   0  0  0  0  0  0  0  0  0  0  0  0
  147.5860  131.9005  191.0834 F   0  0  0  0  0  0  0  0  0  0  0  0
  155.6656  138.6387  185.0043 C   0  0  0  0  0  0  0  0  0  0  0  0
  156.5995  138.8154  186.1695 C   0  0  0  0  0  0  0  0  0  0  0  0
  158.7615  141.4977  183.2877 N   0  0  0  0  0  0  0  0  0  0  0  0
  158.1677  142.5776  182.7647 C   0  0  0  0  0  0  0  0  0  0  0  0
  158.8516  143.5029  182.2304 O   0  0  0  0  0  0  0  0  0  0  0  0
  156.8173  142.7421  182.7760 N   0  0  0  0  0  0  0  0  0  0  0  0
  156.1712  143.9146  182.2100 C   0  0  0  0  0  0  0  0  0  0  0  0
  156.0331  141.7923  183.3300 C   0  0  0  0  0  0  0  0  0  0  0  0
  154.6928  141.7116  183.4677 N   0  0  0  0  0  0  0  0  0  0  0  0
  154.4130  140.5475  184.0968 C   0  0  0  0  0  0  0  0  0  0  0  0
  155.5862  139.9255  184.3389 N   0  0  0  0  0  0  0  0  0  0  0  0
  156.6073  140.6597  183.8820 C   0  0  0  0  0  0  0  0  0  0  0  0
  157.9735  140.5589  183.8366 C   0  0  0  0  0  0  0  0  0  0  0  0
  158.5163  139.5490  184.3276 O   0  0  0  0  0  0  0  0  0  0  0  0
  160.2045  141.3990  183.2307 C   0  0  0  0  0  0  0  0  0  0  0  0
  162.0166  143.0440  186.5785 C   0  0  0  0  0  0  0  0  0  0  0  0
  161.3694  142.4850  185.3808 C   0  0  0  0  0  0  0  0  0  0  0  0
  160.8416  142.0033  184.4022 C   0  0  0  0  0  0  0  0  0  0  0  0
 40 41  1  0  0  0
 41 42  3  0  0  0
 42 39  1  0  0  0
 39 27  1  0  0  0
 27 28  1  0  0  0
 28 29  2  0  0  0
 28 30  1  0  0  0
 30 31  1  0  0  0
 30 32  1  0  0  0
 32 33  1  0  0  0
 33 34  2  0  0  0
 34 35  1  0  0  0
 35 25  1  0  0  0
 25 26  1  0  0  0
 25  1  1  0  0  0
  1  2  2  0  0  0
  1  3  1  0  0  0
  3  5  1  0  0  0
  5  6  2  0  0  0
  6  7  1  0  0  0
  7  8  1  0  0  0
  8  9  2  0  0  0
  8 10  1  0  0  0
 10 11  2  0  0  0
 11 12  1  0  0  0
 12 13  2  0  0  0
 13 14  1  0  0  0
 14 15  2  0  0  0
 13 16  1  0  0  0
 16 17  1  0  0  0
 17 18  1  0  0  0
 18 19  1  0  0  0
 19 20  1  0  0  0
 20 21  1  0  0  0
 21 22  1  0  0  0
 21 23  1  0  0  0
 21 24  1  0  0  0
 35 36  1  0  0  0
 36 37  1  0  0  0
 37 38  2  0  0  0
 37 27  1  0  0  0
 36 32  2  0  0  0
  9  5  1  0  0  0
 15 10  1  0  0  0
 20 16  1  0  0  0
  3  4  1  0  0  0
M  END
> <minimizedAffinity>
-7.48373

> <CNNscore>
0.2528730929

> <CNNaffinity>
6.4637327194

> <CNN_VS>
1.6345040798

> <CNNaffinity_variance>
0.3552926183

$$$$
[H]c1nc(N2C([H])([H])C([H])([H])C([H])([H])[C@@]2([H])C(F)(F)F)nc([H])c1-c1nc(N([H])C(=O)[C@@]([H])(n2c([H])nc3c2c(=O)n(C([H])([H])C#CC([H])([H])[H])c(=O)n3C([H])([H])[H])C([H])([H])[H])c([H])s1


 42 46  0  0  0  0  0  0  0  0999 V2000
  150.4550  133.8682  187.1290 C   0  0  0  0  0  0  0  0  0  0  0  0
  151.6379  133.5340  186.9311 O   0  0  0  0  0  0  0  0  0  0  0  0
  149.7712  134.6683  186.1793 N   0  0  0  0  0  0  0  0  0  0  0  0
  148.7665  134.9632  186.3315 H   0  0  0  0  0  0  0  0  0  0  0  0
  150.4557  135.0813  184.9716 C   0  0  0  0  0  0  0  0  0  0  0  0
  150.3491  134.3391  183.8183 C   0  0  0  0  0  0  0  0  0  0  0  0
  151.3281  135.2298  182.7399 S   0  0  0  0  0  0  0  0  0  0  0  0
  151.8084  136.4760  183.8047 C   0  0  0  0  0  0  0  0  0  0  0  0
  151.1954  136.1452  184.9263 N   0  0  0  0  0  0  0  0  0  0  0  0
  152.6948  137.6326  183.5401 C   0  0  0  0  0  0  0  0  0  0  0  0
  153.7109  137.9135  184.4224 C   0  0  0  0  0  0  0  0  0  0  0  0
  154.5292  138.9635  184.2114 N   0  0  0  0  0  0  0  0  0  0  0  0
  154.4003  139.7823  183.1431 C   0  0  0  0  0  0  0  0  0  0  0  0
  153.4068  139.5038  182.2838 N   0  0  0  0  0  0  0  0  0  0  0  0
  152.5513  138.4545  182.4505 C   0  0  0  0  0  0  0  0  0  0  0  0
  155.2792  140.8856  182.9506 N   0  0  0  0  0  0  0  0  0  0  0  0
  156.3974  140.9978  182.0455 C   0  0  0  0  0  0  0  0  0  0  0  0
  157.4529  141.6225  182.9326 C   0  0  0  0  0  0  0  0  0  0  0  0
  156.6291  142.6338  183.7011 C   0  0  0  0  0  0  0  0  0  0  0  0
  155.2053  142.1334  183.6625 C   0  0  0  0  0  0  0  0  0  0  0  0
  154.2724  143.1418  183.0311 C   0  0  0  0  0  0  0  0  0  0  0  0
  153.3697  142.5895  182.1619 F   0  0  0  0  0  0  0  0  0  0  0  0
  155.0373  144.0373  182.2752 F   0  0  0  0  0  0  0  0  0  0  0  0
  153.6522  143.9090  183.9959 F   0  0  0  0  0  0  0  0  0  0  0  0
  149.7469  133.4276  188.3685 C   0  0  0  0  0  0  0  0  0  0  0  0
  148.2725  133.4173  188.0735 C   0  0  0  0  0  0  0  0  0  0  0  0
  152.9652  134.0082  191.5326 N   0  0  0  0  0  0  0  0  0  0  0  0
  152.6908  135.0741  192.2946 C   0  0  0  0  0  0  0  0  0  0  0  0
  153.4643  135.4158  193.2403 O   0  0  0  0  0  0  0  0  0  0  0  0
  151.5835  135.8404  192.1015 N   0  0  0  0  0  0  0  0  0  0  0  0
  151.2834  136.9971  192.9289 C   0  0  0  0  0  0  0  0  0  0  0  0
  150.7201  135.5294  191.1107 C   0  0  0  0  0  0  0  0  0  0  0  0
  149.5704  136.1145  190.7136 N   0  0  0  0  0  0  0  0  0  0  0  0
  149.0889  135.4072  189.6662 C   0  0  0  0  0  0  0  0  0  0  0  0
  149.9494  134.3942  189.4314 N   0  0  0  0  0  0  0  0  0  0  0  0
  150.9668  134.4347  190.2994 C   0  0  0  0  0  0  0  0  0  0  0  0
  152.1008  133.7066  190.5501 C   0  0  0  0  0  0  0  0  0  0  0  0
  152.3463  132.7149  189.8345 O   0  0  0  0  0  0  0  0  0  0  0  0
  154.1675  133.2486  191.8028 C   0  0  0  0  0  0  0  0  0  0  0  0
  157.3945  134.7086  189.6459 C   0  0  0  0  0  0  0  0  0  0  0  0
  156.2529  134.1664  190.3999 C   0  0  0  0  0  0  0  0  0  0  0  0
  155.3109  133.7403  191.0318 C   0  0  0  0  0  0  0  0  0  0  0  0
 40 41  1  0  0  0
 41 42  3  0  0  0
 42 39  1  0  0  0
 39 27  1  0  0  0
 27 28  1  0  0  0
 28 29  2  0  0  0
 28 30  1  0  0  0
 30 31  1  0  0  0
 30 32  1  0  0  0
 32 33  1  0  0  0
 33 34  2  0  0  0
 34 35  1  0  0  0
 35 25  1  0  0  0
 25 26  1  0  0  0
 25  1  1  0  0  0
  1  2  2  0  0  0
  1  3  1  0  0  0
  3  5  1  0  0  0
  5  6  2  0  0  0
  6  7  1  0  0  0
  7  8  1  0  0  0
  8  9  2  0  0  0
  8 10  1  0  0  0
 10 11  2  0  0  0
 11 12  1  0  0  0
 12 13  2  0  0  0
 13 14  1  0  0  0
 14 15  2  0  0  0
 13 16  1  0  0  0
 16 17  1  0  0  0
 17 18  1  0  0  0
 18 19  1  0  0  0
 19 20  1  0  0  0
 20 21  1  0  0  0
 21 22  1  0  0  0
 21 23  1  0  0  0
 21 24  1  0  0  0
 35 36  1  0  0  0
 36 37  1  0  0  0
 37 38  2  0  0  0
 37 27  1  0  0  0
 36 32  2  0  0  0
  9  5  1  0  0  0
 15 10  1  0  0  0
 20 16  1  0  0  0
  3  4  1  0  0  0
M  END
> <minimizedAffinity>
-5.98783

> <CNNscore>
0.2440254688

> <CNNaffinity>
6.6446900368

> <CNN_VS>
1.6214735508

> <CNNaffinity_variance>
0.3578393161

$$$$
[H]c1nc(N2C([H])([H])C([H])([H])C([H])([H])[C@@]2([H])C(F)(F)F)nc([H])c1-c1nc(N([H])C(=O)[C@@]([H])(n2c([H])nc3c2c(=O)n(C([H])([H])C#CC([H])([H])[H])c(=O)n3C([H])([H])[H])C([H])([H])[H])c([H])s1


 42 46  0  0  0  0  0  0  0  0999 V2000
  154.8426  133.9710  187.5840 C   0  0  0  0  0  0  0  0  0  0  0  0
  155.4384  134.7359  188.3651 O   0  0  0  0  0  0  0  0  0  0  0  0
  153.9792  134.4970  186.5902 N   0  0  0  0  0  0  0  0  0  0  0  0
  153.4635  133.8622  185.9190 H   0  0  0  0  0  0  0  0  0  0  0  0
  153.8075  135.9312  186.4828 C   0  0  0  0  0  0  0  0  0  0  0  0
  152.7217  136.5508  187.0567 C   0  0  0  0  0  0  0  0  0  0  0  0
  152.9888  138.1829  186.6332 S   0  0  0  0  0  0  0  0  0  0  0  0
  154.4451  137.9836  185.7632 C   0  0  0  0  0  0  0  0  0  0  0  0
  154.6494  136.6816  185.8431 N   0  0  0  0  0  0  0  0  0  0  0  0
  155.2684  139.0103  185.0840 C   0  0  0  0  0  0  0  0  0  0  0  0
  154.6760  139.8437  184.1651 C   0  0  0  0  0  0  0  0  0  0  0  0
  155.4013  140.7830  183.5262 N   0  0  0  0  0  0  0  0  0  0  0  0
  156.7240  140.9554  183.7479 C   0  0  0  0  0  0  0  0  0  0  0  0
  157.2982  140.1395  184.6464 N   0  0  0  0  0  0  0  0  0  0  0  0
  156.6105  139.1732  185.3203 C   0  0  0  0  0  0  0  0  0  0  0  0
  157.4628  141.9550  183.0537 N   0  0  0  0  0  0  0  0  0  0  0  0
  156.9973  143.2157  182.5283 C   0  0  0  0  0  0  0  0  0  0  0  0
  157.6387  143.2363  181.1575 C   0  0  0  0  0  0  0  0  0  0  0  0
  159.0123  142.6806  181.4681 C   0  0  0  0  0  0  0  0  0  0  0  0
  158.8633  141.8741  182.7356 C   0  0  0  0  0  0  0  0  0  0  0  0
  159.7691  142.3822  183.8344 C   0  0  0  0  0  0  0  0  0  0  0  0
  160.9292  141.6670  183.9676 F   0  0  0  0  0  0  0  0  0  0  0  0
  159.0957  142.2557  185.0546 F   0  0  0  0  0  0  0  0  0  0  0  0
  160.0128  143.7321  183.6854 F   0  0  0  0  0  0  0  0  0  0  0  0
  155.0338  132.4930  187.6875 C   0  0  0  0  0  0  0  0  0  0  0  0
  154.7188  132.0893  189.1013 C   0  0  0  0  0  0  0  0  0  0  0  0
  157.3391  130.8709  184.1154 N   0  0  0  0  0  0  0  0  0  0  0  0
  158.6352  130.7247  184.4173 C   0  0  0  0  0  0  0  0  0  0  0  0
  159.4588  130.2847  183.5585 O   0  0  0  0  0  0  0  0  0  0  0  0
  159.1357  131.0348  185.6436 N   0  0  0  0  0  0  0  0  0  0  0  0
  160.5423  130.8753  185.9733 C   0  0  0  0  0  0  0  0  0  0  0  0
  158.3104  131.5083  186.6020 C   0  0  0  0  0  0  0  0  0  0  0  0
  158.5474  131.8855  187.8761 N   0  0  0  0  0  0  0  0  0  0  0  0
  157.3722  132.2866  188.4121 C   0  0  0  0  0  0  0  0  0  0  0  0
  156.4252  132.1508  187.4599 N   0  0  0  0  0  0  0  0  0  0  0  0
  156.9627  131.6745  186.3310 C   0  0  0  0  0  0  0  0  0  0  0  0
  156.5261  131.3420  185.0749 C   0  0  0  0  0  0  0  0  0  0  0  0
  155.3164  131.4813  184.8048 O   0  0  0  0  0  0  0  0  0  0  0  0
  156.8891  130.5210  182.7848 C   0  0  0  0  0  0  0  0  0  0  0  0
  156.0183  133.8839  180.5199 C   0  0  0  0  0  0  0  0  0  0  0  0
  156.3504  132.6876  181.3101 C   0  0  0  0  0  0  0  0  0  0  0  0
  156.6047  131.7060  181.9736 C   0  0  0  0  0  0  0  0  0  0  0  0
 40 41  1  0  0  0
 41 42  3  0  0  0
 42 39  1  0  0  0
 39 27  1  0  0  0
 27 28  1  0  0  0
 28 29  2  0  0  0
 28 30  1  0  0  0
 30 31  1  0  0  0
 30 32  1  0  0  0
 32 33  1  0  0  0
 33 34  2  0  0  0
 34 35  1  0  0  0
 35 25  1  0  0  0
 25 26  1  0  0  0
 25  1  1  0  0  0
  1  2  2  0  0  0
  1  3  1  0  0  0
  3  5  1  0  0  0
  5  6  2  0  0  0
  6  7  1  0  0  0
  7  8  1  0  0  0
  8  9  2  0  0  0
  8 10  1  0  0  0
 10 11  2  0  0  0
 11 12  1  0  0  0
 12 13  2  0  0  0
 13 14  1  0  0  0
 14 15  2  0  0  0
 13 16  1  0  0  0
 16 17  1  0  0  0
 17 18  1  0  0  0
 18 19  1  0  0  0
 19 20  1  0  0  0
 20 21  1  0  0  0
 21 22  1  0  0  0
 21 23  1  0  0  0
 21 24  1  0  0  0
 35 36  1  0  0  0
 36 37  1  0  0  0
 37 38  2  0  0  0
 37 27  1  0  0  0
 36 32  2  0  0  0
  9  5  1  0  0  0
 15 10  1  0  0  0
 20 16  1  0  0  0
  3  4  1  0  0  0
M  END
> <minimizedAffinity>
-6.67575

> <CNNscore>
0.2210910320

> <CNNaffinity>
6.8014655113

> <CNN_VS>
1.5037430525

> <CNNaffinity_variance>
0.1094305292

$$$$
[H]c1nc(N2C([H])([H])C([H])([H])C([H])([H])[C@@]2([H])C(F)(F)F)nc([H])c1-c1nc(N([H])C(=O)[C@@]([H])(n2c([H])nc3c2c(=O)n(C([H])([H])C#CC([H])([H])[H])c(=O)n3C([H])([H])[H])C([H])([H])[H])c([H])s1


 42 46  0  0  0  0  0  0  0  0999 V2000
  154.4141  134.4799  185.7426 C   0  0  0  0  0  0  0  0  0  0  0  0
  155.1575  134.8727  186.6609 O   0  0  0  0  0  0  0  0  0  0  0  0
  153.6846  135.4150  184.9660 N   0  0  0  0  0  0  0  0  0  0  0  0
  153.0469  135.0994  184.1828 H   0  0  0  0  0  0  0  0  0  0  0  0
  153.8223  136.8304  185.2409 C   0  0  0  0  0  0  0  0  0  0  0  0
  153.0307  137.4397  186.1866 C   0  0  0  0  0  0  0  0  0  0  0  0
  153.5733  139.0563  186.1048 S   0  0  0  0  0  0  0  0  0  0  0  0
  154.7581  138.8644  184.8895 C   0  0  0  0  0  0  0  0  0  0  0  0
  154.6761  137.5763  184.6117 N   0  0  0  0  0  0  0  0  0  0  0  0
  155.6487  139.8858  184.2920 C   0  0  0  0  0  0  0  0  0  0  0  0
  156.9967  139.8369  184.5574 C   0  0  0  0  0  0  0  0  0  0  0  0
  157.8308  140.7568  184.0332 N   0  0  0  0  0  0  0  0  0  0  0  0
  157.3986  141.7580  183.2337 C   0  0  0  0  0  0  0  0  0  0  0  0
  156.0815  141.8015  182.9770 N   0  0  0  0  0  0  0  0  0  0  0  0
  155.1948  140.8961  183.4818 C   0  0  0  0  0  0  0  0  0  0  0  0
  158.3053  142.7164  182.6985 N   0  0  0  0  0  0  0  0  0  0  0  0
  159.5261  143.2218  183.2783 C   0  0  0  0  0  0  0  0  0  0  0  0
  159.3990  144.7082  183.0223 C   0  0  0  0  0  0  0  0  0  0  0  0
  158.8306  144.7165  181.6191 C   0  0  0  0  0  0  0  0  0  0  0  0
  158.1503  143.3818  181.4326 C   0  0  0  0  0  0  0  0  0  0  0  0
  158.7287  142.6147  180.2652 C   0  0  0  0  0  0  0  0  0  0  0  0
  157.7879  142.1812  179.3696 F   0  0  0  0  0  0  0  0  0  0  0  0
  159.3507  141.4626  180.7592 F   0  0  0  0  0  0  0  0  0  0  0  0
  159.7287  143.3386  179.6486 F   0  0  0  0  0  0  0  0  0  0  0  0
  154.2861  133.0203  185.4516 C   0  0  0  0  0  0  0  0  0  0  0  0
  154.2089  132.2969  186.7676 C   0  0  0  0  0  0  0  0  0  0  0  0
  155.8556  133.3215  181.1911 N   0  0  0  0  0  0  0  0  0  0  0  0
  157.0334  132.6954  181.0768 C   0  0  0  0  0  0  0  0  0  0  0  0
  157.6479  132.6603  179.9675 O   0  0  0  0  0  0  0  0  0  0  0  0
  157.6299  132.0706  182.1278 N   0  0  0  0  0  0  0  0  0  0  0  0
  158.9079  131.3893  182.0050 C   0  0  0  0  0  0  0  0  0  0  0  0
  157.0266  132.0723  183.3361 C   0  0  0  0  0  0  0  0  0  0  0  0
  157.3979  131.5381  184.5187 N   0  0  0  0  0  0  0  0  0  0  0  0
  156.4335  131.8270  185.4218 C   0  0  0  0  0  0  0  0  0  0  0  0
  155.4793  132.5363  184.7829 N   0  0  0  0  0  0  0  0  0  0  0  0
  155.8073  132.7085  183.4972 C   0  0  0  0  0  0  0  0  0  0  0  0
  155.2632  133.3175  182.3963 C   0  0  0  0  0  0  0  0  0  0  0  0
  154.1650  133.8971  182.5139 O   0  0  0  0  0  0  0  0  0  0  0  0
  155.2917  133.9652  180.0235 C   0  0  0  0  0  0  0  0  0  0  0  0
  152.2747  131.6901  178.3150 C   0  0  0  0  0  0  0  0  0  0  0  0
  153.3630  132.4866  178.9041 C   0  0  0  0  0  0  0  0  0  0  0  0
  154.2436  133.1531  179.4029 C   0  0  0  0  0  0  0  0  0  0  0  0
 40 41  1  0  0  0
 41 42  3  0  0  0
 42 39  1  0  0  0
 39 27  1  0  0  0
 27 28  1  0  0  0
 28 29  2  0  0  0
 28 30  1  0  0  0
 30 31  1  0  0  0
 30 32  1  0  0  0
 32 33  1  0  0  0
 33 34  2  0  0  0
 34 35  1  0  0  0
 35 25  1  0  0  0
 25 26  1  0  0  0
 25  1  1  0  0  0
  1  2  2  0  0  0
  1  3  1  0  0  0
  3  5  1  0  0  0
  5  6  2  0  0  0
  6  7  1  0  0  0
  7  8  1  0  0  0
  8  9  2  0  0  0
  8 10  1  0  0  0
 10 11  2  0  0  0
 11 12  1  0  0  0
 12 13  2  0  0  0
 13 14  1  0  0  0
 14 15  2  0  0  0
 13 16  1  0  0  0
 16 17  1  0  0  0
 17 18  1  0  0  0
 18 19  1  0  0  0
 19 20  1  0  0  0
 20 21  1  0  0  0
 21 22  1  0  0  0
 21 23  1  0  0  0
 21 24  1  0  0  0
 35 36  1  0  0  0
 36 37  1  0  0  0
 37 38  2  0  0  0
 37 27  1  0  0  0
 36 32  2  0  0  0
  9  5  1  0  0  0
 15 10  1  0  0  0
 20 16  1  0  0  0
  3  4  1  0  0  0
M  END
> <minimizedAffinity>
-7.31880

> <CNNscore>
0.2122255266

> <CNNaffinity>
6.9525527954

> <CNN_VS>
1.4755091667

> <CNNaffinity_variance>
0.0686112568

$$$$
[H]c1nc(N2C([H])([H])C([H])([H])C([H])([H])[C@@]2([H])C(F)(F)F)nc([H])c1-c1nc(N([H])C(=O)[C@@]([H])(n2c([H])nc3c2c(=O)n(C([H])([H])C#CC([H])([H])[H])c(=O)n3C([H])([H])[H])C([H])([H])[H])c([H])s1


 42 46  0  0  0  0  0  0  0  0999 V2000
  152.3151  134.2257  186.0248 C   0  0  0  0  0  0  0  0  0  0  0  0
  152.7829  133.8644  184.9290 O   0  0  0  0  0  0  0  0  0  0  0  0
  151.8055  135.5388  186.1849 N   0  0  0  0  0  0  0  0  0  0  0  0
  151.4057  135.8638  187.1091 H   0  0  0  0  0  0  0  0  0  0  0  0
  151.8211  136.4508  185.0598 C   0  0  0  0  0  0  0  0  0  0  0  0
  150.7944  136.4501  184.1443 C   0  0  0  0  0  0  0  0  0  0  0  0
  151.3000  137.6625  183.0539 S   0  0  0  0  0  0  0  0  0  0  0  0
  152.7669  138.0925  183.8160 C   0  0  0  0  0  0  0  0  0  0  0  0
  152.7917  137.2875  184.8622 N   0  0  0  0  0  0  0  0  0  0  0  0
  153.7640  139.1072  183.4044 C   0  0  0  0  0  0  0  0  0  0  0  0
  154.9337  139.2246  184.1172 C   0  0  0  0  0  0  0  0  0  0  0  0
  155.8568  140.1434  183.7702 N   0  0  0  0  0  0  0  0  0  0  0  0
  155.6886  140.9835  182.7242 C   0  0  0  0  0  0  0  0  0  0  0  0
  154.5450  140.8650  182.0307 N   0  0  0  0  0  0  0  0  0  0  0  0
  153.5789  139.9528  182.3394 C   0  0  0  0  0  0  0  0  0  0  0  0
  156.6817  141.9459  182.3857 N   0  0  0  0  0  0  0  0  0  0  0  0
  157.2339  142.9960  183.2069 C   0  0  0  0  0  0  0  0  0  0  0  0
  157.2258  144.1719  182.2538 C   0  0  0  0  0  0  0  0  0  0  0  0
  157.6742  143.5102  180.9681 C   0  0  0  0  0  0  0  0  0  0  0  0
  157.3309  142.0465  181.1060 C   0  0  0  0  0  0  0  0  0  0  0  0
  158.5537  141.1676  180.9712 C   0  0  0  0  0  0  0  0  0  0  0  0
  158.2924  139.8320  181.1227 F   0  0  0  0  0  0  0  0  0  0  0  0
  159.4522  141.5029  181.9903 F   0  0  0  0  0  0  0  0  0  0  0  0
  159.2194  141.4294  179.7913 F   0  0  0  0  0  0  0  0  0  0  0  0
  152.2864  133.2777  187.1790 C   0  0  0  0  0  0  0  0  0  0  0  0
  152.5102  131.8925  186.6383 C   0  0  0  0  0  0  0  0  0  0  0  0
  150.7675  134.1104  191.3867 N   0  0  0  0  0  0  0  0  0  0  0  0
  149.4368  133.9755  191.4433 C   0  0  0  0  0  0  0  0  0  0  0  0
  148.8080  134.1651  192.5286 O   0  0  0  0  0  0  0  0  0  0  0  0
  148.6938  133.6327  190.3565 N   0  0  0  0  0  0  0  0  0  0  0  0
  147.2491  133.4845  190.4166 C   0  0  0  0  0  0  0  0  0  0  0  0
  149.3037  133.4173  189.1709 C   0  0  0  0  0  0  0  0  0  0  0  0
  148.8087  133.0744  187.9630 N   0  0  0  0  0  0  0  0  0  0  0  0
  149.8483  132.9854  187.1024 C   0  0  0  0  0  0  0  0  0  0  0  0
  150.9716  133.2749  187.7924 N   0  0  0  0  0  0  0  0  0  0  0  0
  150.6786  133.5464  189.0694 C   0  0  0  0  0  0  0  0  0  0  0  0
  151.3651  133.8939  190.2037 C   0  0  0  0  0  0  0  0  0  0  0  0
  152.6048  134.0160  190.1399 O   0  0  0  0  0  0  0  0  0  0  0  0
  151.4826  134.4820  192.5892 C   0  0  0  0  0  0  0  0  0  0  0  0
  152.2213  131.2569  195.0893 C   0  0  0  0  0  0  0  0  0  0  0  0
  151.9397  132.3872  194.1900 C   0  0  0  0  0  0  0  0  0  0  0  0
  151.7236  133.3307  193.4610 C   0  0  0  0  0  0  0  0  0  0  0  0
 40 41  1  0  0  0
 41 42  3  0  0  0
 42 39  1  0  0  0
 39 27  1  0  0  0
 27 28  1  0  0  0
 28 29  2  0  0  0
 28 30  1  0  0  0
 30 31  1  0  0  0
 30 32  1  0  0  0
 32 33  1  0  0  0
 33 34  2  0  0  0
 34 35  1  0  0  0
 35 25  1  0  0  0
 25 26  1  0  0  0
 25  1  1  0  0  0
  1  2  2  0  0  0
  1  3  1  0  0  0
  3  5  1  0  0  0
  5  6  2  0  0  0
  6  7  1  0  0  0
  7  8  1  0  0  0
  8  9  2  0  0  0
  8 10  1  0  0  0
 10 11  2  0  0  0
 11 12  1  0  0  0
 12 13  2  0  0  0
 13 14  1  0  0  0
 14 15  2  0  0  0
 13 16  1  0  0  0
 16 17  1  0  0  0
 17 18  1  0  0  0
 18 19  1  0  0  0
 19 20  1  0  0  0
 20 21  1  0  0  0
 21 22  1  0  0  0
 21 23  1  0  0  0
 21 24  1  0  0  0
 35 36  1  0  0  0
 36 37  1  0  0  0
 37 38  2  0  0  0
 37 27  1  0  0  0
 36 32  2  0  0  0
  9  5  1  0  0  0
 15 10  1  0  0  0
 20 16  1  0  0  0
  3  4  1  0  0  0
M  END
> <minimizedAffinity>
-6.01679

> <CNNscore>
0.1833293587

> <CNNaffinity>
6.2828354836

> <CNN_VS>
1.1518281698

> <CNNaffinity_variance>
0.6544116139

$$$$
[H]c1nc([H])c(N([H])C(=O)[C@@]([H])(n2c([H])nc3c2c(=O)n(C([H])([H])C(=O)C([H])([H])C([H])([H])[H])c(=O)n3C([H])([H])[H])C([H])([H])[H])nc1-c1c([H])nc(N2C([H])([H])C3([H])C(F)(F)C3([H])C2([H])[H])c([H])c1[H]


 43 48  0  0  0  0  0  0  0  0999 V2000
  152.8760  139.2643  182.3329 C   0  0  0  0  0  0  0  0  0  0  0  0
  153.0454  140.5105  182.3910 O   0  0  0  0  0  0  0  0  0  0  0  0
  153.4898  138.3025  183.1487 N   0  0  0  0  0  0  0  0  0  0  0  0
  153.2207  137.2760  182.9561 H   0  0  0  0  0  0  0  0  0  0  0  0
  154.4072  138.5207  184.1625 C   0  0  0  0  0  0  0  0  0  0  0  0
  155.6204  139.1029  183.9991 C   0  0  0  0  0  0  0  0  0  0  0  0
  156.5126  139.3145  185.0137 N   0  0  0  0  0  0  0  0  0  0  0  0
  156.1753  138.9261  186.2473 C   0  0  0  0  0  0  0  0  0  0  0  0
  154.9537  138.3275  186.4790 C   0  0  0  0  0  0  0  0  0  0  0  0
  154.1161  138.1422  185.4549 N   0  0  0  0  0  0  0  0  0  0  0  0
  154.5461  137.8976  187.8108 C   0  0  0  0  0  0  0  0  0  0  0  0
  153.2219  137.5269  187.9868 C   0  0  0  0  0  0  0  0  0  0  0  0
  152.8164  137.1211  189.2304 C   0  0  0  0  0  0  0  0  0  0  0  0
  153.6741  137.0694  190.3035 C   0  0  0  0  0  0  0  0  0  0  0  0
  154.9444  137.4378  190.0808 N   0  0  0  0  0  0  0  0  0  0  0  0
  155.4055  137.8476  188.8772 C   0  0  0  0  0  0  0  0  0  0  0  0
  153.1957  136.6472  191.5640 N   0  0  0  0  0  0  0  0  0  0  0  0
  152.7216  137.4591  192.6750 C   0  0  0  0  0  0  0  0  0  0  0  0
  151.6741  136.6162  193.3530 C   0  0  0  0  0  0  0  0  0  0  0  0
  151.8297  135.2293  192.8730 C   0  0  0  0  0  0  0  0  0  0  0  0
  153.0744  135.2903  192.0081 C   0  0  0  0  0  0  0  0  0  0  0  0
  150.6283  136.0130  192.4900 C   0  0  0  0  0  0  0  0  0  0  0  0
  149.4406  135.6362  193.0803 F   0  0  0  0  0  0  0  0  0  0  0  0
  150.5211  136.5451  191.2247 F   0  0  0  0  0  0  0  0  0  0  0  0
  151.9013  138.8360  181.2608 C   0  0  0  0  0  0  0  0  0  0  0  0
  151.7287  139.9311  180.2719 C   0  0  0  0  0  0  0  0  0  0  0  0
  150.6199  134.6703  182.6961 N   0  0  0  0  0  0  0  0  0  0  0  0
  149.3893  134.6947  183.2170 C   0  0  0  0  0  0  0  0  0  0  0  0
  148.8999  133.6277  183.6531 O   0  0  0  0  0  0  0  0  0  0  0  0
  148.6628  135.8139  183.2885 N   0  0  0  0  0  0  0  0  0  0  0  0
  147.3294  135.7810  183.8634 C   0  0  0  0  0  0  0  0  0  0  0  0
  149.1768  136.9635  182.8236 C   0  0  0  0  0  0  0  0  0  0  0  0
  148.6836  138.2246  182.7665 N   0  0  0  0  0  0  0  0  0  0  0  0
  149.5995  139.0133  182.2071 C   0  0  0  0  0  0  0  0  0  0  0  0
  150.7220  138.2999  181.8787 N   0  0  0  0  0  0  0  0  0  0  0  0
  150.4547  137.0358  182.2618 C   0  0  0  0  0  0  0  0  0  0  0  0
  151.1367  135.8416  182.2250 C   0  0  0  0  0  0  0  0  0  0  0  0
  152.3009  135.8311  181.7296 O   0  0  0  0  0  0  0  0  0  0  0  0
  151.4321  133.4979  182.5970 C   0  0  0  0  0  0  0  0  0  0  0  0
  151.1123  132.5707  181.5209 C   0  0  0  0  0  0  0  0  0  0  0  0
  150.8166  131.4213  181.7755 O   0  0  0  0  0  0  0  0  0  0  0  0
  149.8022  133.4877  179.5922 C   0  0  0  0  0  0  0  0  0  0  0  0
  151.1360  132.9907  180.1034 C   0  0  0  0  0  0  0  0  0  0  0  0
 42 43  1  0  0  0
 43 40  1  0  0  0
 40 41  2  0  0  0
 40 39  1  0  0  0
 39 27  1  0  0  0
 27 28  1  0  0  0
 28 29  2  0  0  0
 28 30  1  0  0  0
 30 31  1  0  0  0
 30 32  1  0  0  0
 32 33  1  0  0  0
 33 34  2  0  0  0
 34 35  1  0  0  0
 35 25  1  0  0  0
 25 26  1  0  0  0
 25  1  1  0  0  0
  1  2  2  0  0  0
  1  3  1  0  0  0
  3  5  1  0  0  0
  5  6  2  0  0  0
  6  7  1  0  0  0
  7  8  2  0  0  0
  8  9  1  0  0  0
  9 10  2  0  0  0
  9 11  1  0  0  0
 11 12  2  0  0  0
 12 13  1  0  0  0
 13 14  2  0  0  0
 14 15  1  0  0  0
 15 16  2  0  0  0
 14 17  1  0  0  0
 17 18  1  0  0  0
 18 19  1  0  0  0
 19 20  1  0  0  0
 20 21  1  0  0  0
 20 22  1  0  0  0
 22 23  1  0  0  0
 22 24  1  0  0  0
 35 36  1  0  0  0
 36 37  1  0  0  0
 37 38  2  0  0  0
 37 27  1  0  0  0
 36 32  2  0  0  0
 10  5  1  0  0  0
 16 11  1  0  0  0
 21 17  1  0  0  0
 22 19  1  0  0  0
  3  4  1  0  0  0
M  END
> <minimizedAffinity>
-6.23384

> <CNNscore>
0.3024540842

> <CNNaffinity>
6.3672151566

> <CNN_VS>
1.9257901907

> <CNNaffinity_variance>
0.2190805674

$$$$
[H]c1nc([H])c(N([H])C(=O)[C@@]([H])(n2c([H])nc3c2c(=O)n(C([H])([H])C(=O)C([H])([H])C([H])([H])[H])c(=O)n3C([H])([H])[H])C([H])([H])[H])nc1-c1c([H])nc(N2C([H])([H])C3([H])C(F)(F)C3([H])C2([H])[H])c([H])c1[H]


 43 48  0  0  0  0  0  0  0  0999 V2000
  153.6578  136.7810  185.4703 C   0  0  0  0  0  0  0  0  0  0  0  0
  154.4177  137.4603  186.2093 O   0  0  0  0  0  0  0  0  0  0  0  0
  153.1559  137.1634  184.2176 N   0  0  0  0  0  0  0  0  0  0  0  0
  152.5180  136.4476  183.7238 H   0  0  0  0  0  0  0  0  0  0  0  0
  153.3777  138.3564  183.5508 C   0  0  0  0  0  0  0  0  0  0  0  0
  152.4811  138.9711  182.7411 C   0  0  0  0  0  0  0  0  0  0  0  0
  152.7160  140.1525  182.0937 N   0  0  0  0  0  0  0  0  0  0  0  0
  153.9017  140.7454  182.2643 C   0  0  0  0  0  0  0  0  0  0  0  0
  154.8572  140.1698  183.0768 C   0  0  0  0  0  0  0  0  0  0  0  0
  154.5803  139.0146  183.6878 N   0  0  0  0  0  0  0  0  0  0  0  0
  156.1586  140.7893  183.2946 C   0  0  0  0  0  0  0  0  0  0  0  0
  157.0018  140.1984  184.2228 C   0  0  0  0  0  0  0  0  0  0  0  0
  158.2290  140.7645  184.4448 C   0  0  0  0  0  0  0  0  0  0  0  0
  158.6496  141.8926  183.7814 C   0  0  0  0  0  0  0  0  0  0  0  0
  157.7971  142.4256  182.8936 N   0  0  0  0  0  0  0  0  0  0  0  0
  156.5730  141.9140  182.6302 C   0  0  0  0  0  0  0  0  0  0  0  0
  159.9252  142.4339  184.0572 N   0  0  0  0  0  0  0  0  0  0  0  0
  160.2771  143.8048  184.3963 C   0  0  0  0  0  0  0  0  0  0  0  0
  161.4733  143.6859  185.3031 C   0  0  0  0  0  0  0  0  0  0  0  0
  162.0097  142.3177  185.1667 C   0  0  0  0  0  0  0  0  0  0  0  0
  161.1634  141.7129  184.0626 C   0  0  0  0  0  0  0  0  0  0  0  0
  161.3696  142.7366  186.4390 C   0  0  0  0  0  0  0  0  0  0  0  0
  162.2126  142.9201  187.5145 F   0  0  0  0  0  0  0  0  0  0  0  0
  160.0958  142.3142  186.7471 F   0  0  0  0  0  0  0  0  0  0  0  0
  153.2962  135.4336  186.0508 C   0  0  0  0  0  0  0  0  0  0  0  0
  152.7122  134.5705  184.9921 C   0  0  0  0  0  0  0  0  0  0  0  0
  154.3015  135.4752  190.5278 N   0  0  0  0  0  0  0  0  0  0  0  0
  153.2111  135.7011  191.2670 C   0  0  0  0  0  0  0  0  0  0  0  0
  153.3274  135.7409  192.5132 O   0  0  0  0  0  0  0  0  0  0  0  0
  152.0032  135.8849  190.7259 N   0  0  0  0  0  0  0  0  0  0  0  0
  150.8522  136.1249  191.5788 C   0  0  0  0  0  0  0  0  0  0  0  0
  151.8663  135.8439  189.3913 C   0  0  0  0  0  0  0  0  0  0  0  0
  150.7902  135.9929  188.5809 N   0  0  0  0  0  0  0  0  0  0  0  0
  151.1896  135.8622  187.3171 C   0  0  0  0  0  0  0  0  0  0  0  0
  152.5372  135.6238  187.2540 N   0  0  0  0  0  0  0  0  0  0  0  0
  152.9487  135.6138  188.5372 C   0  0  0  0  0  0  0  0  0  0  0  0
  154.1559  135.4344  189.1720 C   0  0  0  0  0  0  0  0  0  0  0  0
  155.1810  135.2213  188.4615 O   0  0  0  0  0  0  0  0  0  0  0  0
  155.6117  135.2712  191.0621 C   0  0  0  0  0  0  0  0  0  0  0  0
  156.3064  136.4513  191.5569 C   0  0  0  0  0  0  0  0  0  0  0  0
  156.8387  136.4318  192.6475 O   0  0  0  0  0  0  0  0  0  0  0  0
  155.3259  138.7137  191.1127 C   0  0  0  0  0  0  0  0  0  0  0  0
  156.3862  137.6945  190.7602 C   0  0  0  0  0  0  0  0  0  0  0  0
 42 43  1  0  0  0
 43 40  1  0  0  0
 40 41  2  0  0  0
 40 39  1  0  0  0
 39 27  1  0  0  0
 27 28  1  0  0  0
 28 29  2  0  0  0
 28 30  1  0  0  0
 30 31  1  0  0  0
 30 32  1  0  0  0
 32 33  1  0  0  0
 33 34  2  0  0  0
 34 35  1  0  0  0
 35 25  1  0  0  0
 25 26  1  0  0  0
 25  1  1  0  0  0
  1  2  2  0  0  0
  1  3  1  0  0  0
  3  5  1  0  0  0
  5  6  2  0  0  0
  6  7  1  0  0  0
  7  8  2  0  0  0
  8  9  1  0  0  0
  9 10  2  0  0  0
  9 11  1  0  0  0
 11 12  2  0  0  0
 12 13  1  0  0  0
 13 14  2  0  0  0
 14 15  1  0  0  0
 15 16  2  0  0  0
 14 17  1  0  0  0
 17 18  1  0  0  0
 18 19  1  0  0  0
 19 20  1  0  0  0
 20 21  1  0  0  0
 20 22  1  0  0  0
 22 23  1  0  0  0
 22 24  1  0  0  0
 35 36  1  0  0  0
 36 37  1  0  0  0
 37 38  2  0  0  0
 37 27  1  0  0  0
 36 32  2  0  0  0
 10  5  1  0  0  0
 16 11  1  0  0  0
 21 17  1  0  0  0
 22 19  1  0  0  0
  3  4  1  0  0  0
M  END
> <minimizedAffinity>
-9.69760

> <CNNscore>
0.2148547024

> <CNNaffinity>
6.7686338425

> <CNN_VS>
1.4542728662

> <CNNaffinity_variance>
0.3587101400

$$$$
[H]c1nc([H])c(N([H])C(=O)[C@@]([H])(n2c([H])nc3c2c(=O)n(C([H])([H])C(=O)C([H])([H])C([H])([H])[H])c(=O)n3C([H])([H])[H])C([H])([H])[H])nc1-c1c([H])nc(N2C([H])([H])C3([H])C(F)(F)C3([H])C2([H])[H])c([H])c1[H]


 43 48  0  0  0  0  0  0  0  0999 V2000
  153.7168  134.0517  184.4772 C   0  0  0  0  0  0  0  0  0  0  0  0
  153.4844  134.6161  183.3760 O   0  0  0  0  0  0  0  0  0  0  0  0
  153.7453  134.6667  185.7375 N   0  0  0  0  0  0  0  0  0  0  0  0
  153.9593  134.0218  186.5750 H   0  0  0  0  0  0  0  0  0  0  0  0
  153.5410  136.0056  186.0253 C   0  0  0  0  0  0  0  0  0  0  0  0
  152.6355  136.4784  186.9164 C   0  0  0  0  0  0  0  0  0  0  0  0
  152.4505  137.8051  187.1913 N   0  0  0  0  0  0  0  0  0  0  0  0
  153.2057  138.6989  186.5453 C   0  0  0  0  0  0  0  0  0  0  0  0
  154.1460  138.2807  185.6259 C   0  0  0  0  0  0  0  0  0  0  0  0
  154.2893  136.9734  185.3916 N   0  0  0  0  0  0  0  0  0  0  0  0
  154.9941  139.2237  184.9073 C   0  0  0  0  0  0  0  0  0  0  0  0
  156.3471  139.2266  185.2089 C   0  0  0  0  0  0  0  0  0  0  0  0
  157.1626  140.1056  184.5471 C   0  0  0  0  0  0  0  0  0  0  0  0
  156.6865  140.9798  183.5990 C   0  0  0  0  0  0  0  0  0  0  0  0
  155.3705  140.9371  183.3434 N   0  0  0  0  0  0  0  0  0  0  0  0
  154.5141  140.0930  183.9627 C   0  0  0  0  0  0  0  0  0  0  0  0
  157.5763  141.8672  182.9534 N   0  0  0  0  0  0  0  0  0  0  0  0
  159.0022  141.7078  182.7099 C   0  0  0  0  0  0  0  0  0  0  0  0
  159.2601  142.4388  181.4190 C   0  0  0  0  0  0  0  0  0  0  0  0
  158.0954  143.3042  181.1492 C   0  0  0  0  0  0  0  0  0  0  0  0
  157.2356  143.1389  182.3878 C   0  0  0  0  0  0  0  0  0  0  0  0
  158.3629  142.1327  180.2773 C   0  0  0  0  0  0  0  0  0  0  0  0
  158.8170  142.4100  179.0053 F   0  0  0  0  0  0  0  0  0  0  0  0
  157.6092  140.9873  180.4032 F   0  0  0  0  0  0  0  0  0  0  0  0
  153.9773  132.5686  184.3532 C   0  0  0  0  0  0  0  0  0  0  0  0
  152.7668  131.8098  184.7605 C   0  0  0  0  0  0  0  0  0  0  0  0
  157.9441  130.7066  182.9916 N   0  0  0  0  0  0  0  0  0  0  0  0
  158.8117  130.6204  184.0047 C   0  0  0  0  0  0  0  0  0  0  0  0
  159.9434  130.1306  183.7868 O   0  0  0  0  0  0  0  0  0  0  0  0
  158.5159  131.0363  185.2396 N   0  0  0  0  0  0  0  0  0  0  0  0
  159.4979  130.9162  186.3031 C   0  0  0  0  0  0  0  0  0  0  0  0
  157.3057  131.5625  185.4852 C   0  0  0  0  0  0  0  0  0  0  0  0
  156.7393  132.0576  186.6125 N   0  0  0  0  0  0  0  0  0  0  0  0
  155.5040  132.4630  186.3237 C   0  0  0  0  0  0  0  0  0  0  0  0
  155.2175  132.2490  185.0013 N   0  0  0  0  0  0  0  0  0  0  0  0
  156.3333  131.6932  184.4895 C   0  0  0  0  0  0  0  0  0  0  0  0
  156.7157  131.2420  183.2474 C   0  0  0  0  0  0  0  0  0  0  0  0
  155.8857  131.3289  182.2964 O   0  0  0  0  0  0  0  0  0  0  0  0
  158.2154  130.2734  181.6565 C   0  0  0  0  0  0  0  0  0  0  0  0
  158.6788  131.2890  180.7217 C   0  0  0  0  0  0  0  0  0  0  0  0
  159.2583  132.2740  181.1309 O   0  0  0  0  0  0  0  0  0  0  0  0
  157.2123  130.3890  178.9005 C   0  0  0  0  0  0  0  0  0  0  0  0
  158.4630  131.1575  179.2648 C   0  0  0  0  0  0  0  0  0  0  0  0
 42 43  1  0  0  0
 43 40  1  0  0  0
 40 41  2  0  0  0
 40 39  1  0  0  0
 39 27  1  0  0  0
 27 28  1  0  0  0
 28 29  2  0  0  0
 28 30  1  0  0  0
 30 31  1  0  0  0
 30 32  1  0  0  0
 32 33  1  0  0  0
 33 34  2  0  0  0
 34 35  1  0  0  0
 35 25  1  0  0  0
 25 26  1  0  0  0
 25  1  1  0  0  0
  1  2  2  0  0  0
  1  3  1  0  0  0
  3  5  1  0  0  0
  5  6  2  0  0  0
  6  7  1  0  0  0
  7  8  2  0  0  0
  8  9  1  0  0  0
  9 10  2  0  0  0
  9 11  1  0  0  0
 11 12  2  0  0  0
 12 13  1  0  0  0
 13 14  2  0  0  0
 14 15  1  0  0  0
 15 16  2  0  0  0
 14 17  1  0  0  0
 17 18  1  0  0  0
 18 19  1  0  0  0
 19 20  1  0  0  0
 20 21  1  0  0  0
 20 22  1  0  0  0
 22 23  1  0  0  0
 22 24  1  0  0  0
 35 36  1  0  0  0
 36 37  1  0  0  0
 37 38  2  0  0  0
 37 27  1  0  0  0
 36 32  2  0  0  0
 10  5  1  0  0  0
 16 11  1  0  0  0
 21 17  1  0  0  0
 22 19  1  0  0  0
  3  4  1  0  0  0
M  END
> <minimizedAffinity>
-6.97807

> <CNNscore>
0.2016463578

> <CNNaffinity>
6.4923391342

> <CNN_VS>
1.3091565371

> <CNNaffinity_variance>
0.0371744037

$$$$
[H]c1nc([H])c(N([H])C(=O)[C@@]([H])(n2c([H])nc3c2c(=O)n(C([H])([H])C(=O)C([H])([H])C([H])([H])[H])c(=O)n3C([H])([H])[H])C([H])([H])[H])nc1-c1c([H])nc(N2C([H])([H])C3([H])C(F)(F)C3([H])C2([H])[H])c([H])c1[H]


 43 48  0  0  0  0  0  0  0  0999 V2000
  151.7417  136.7619  184.4014 C   0  0  0  0  0  0  0  0  0  0  0  0
  152.2084  137.5368  183.5256 O   0  0  0  0  0  0  0  0  0  0  0  0
  152.3464  136.4249  185.6213 N   0  0  0  0  0  0  0  0  0  0  0  0
  151.7958  135.7445  186.2513 H   0  0  0  0  0  0  0  0  0  0  0  0
  153.5711  136.8573  186.1012 C   0  0  0  0  0  0  0  0  0  0  0  0
  154.1858  136.3727  187.2079 C   0  0  0  0  0  0  0  0  0  0  0  0
  155.3986  136.8091  187.6649 N   0  0  0  0  0  0  0  0  0  0  0  0
  156.0243  137.7738  186.9836 C   0  0  0  0  0  0  0  0  0  0  0  0
  155.4505  138.3083  185.8480 C   0  0  0  0  0  0  0  0  0  0  0  0
  154.2639  137.8488  185.4415 N   0  0  0  0  0  0  0  0  0  0  0  0
  156.1050  139.3554  185.0734 C   0  0  0  0  0  0  0  0  0  0  0  0
  155.3748  139.9511  184.0566 C   0  0  0  0  0  0  0  0  0  0  0  0
  155.9703  140.9362  183.3147 C   0  0  0  0  0  0  0  0  0  0  0  0
  157.2606  141.3515  183.5438 C   0  0  0  0  0  0  0  0  0  0  0  0
  157.9239  140.7442  184.5388 N   0  0  0  0  0  0  0  0  0  0  0  0
  157.3916  139.7658  185.3062 C   0  0  0  0  0  0  0  0  0  0  0  0
  157.8228  142.3692  182.7411 N   0  0  0  0  0  0  0  0  0  0  0  0
  159.2264  142.6405  182.4679 C   0  0  0  0  0  0  0  0  0  0  0  0
  159.2477  143.2119  181.0749 C   0  0  0  0  0  0  0  0  0  0  0  0
  157.8688  143.6072  180.7274 C   0  0  0  0  0  0  0  0  0  0  0  0
  157.0958  143.3639  182.0097 C   0  0  0  0  0  0  0  0  0  0  0  0
  158.5089  142.4658  180.0262 C   0  0  0  0  0  0  0  0  0  0  0  0
  158.8621  142.6788  178.7105 F   0  0  0  0  0  0  0  0  0  0  0  0
  158.1639  141.1721  180.3475 F   0  0  0  0  0  0  0  0  0  0  0  0
  150.3961  136.1789  184.0376 C   0  0  0  0  0  0  0  0  0  0  0  0
  149.9932  136.6487  182.6870 C   0  0  0  0  0  0  0  0  0  0  0  0
  149.2964  133.8499  187.8352 N   0  0  0  0  0  0  0  0  0  0  0  0
  148.3564  134.4877  188.5395 C   0  0  0  0  0  0  0  0  0  0  0  0
  147.9514  133.9723  189.6064 O   0  0  0  0  0  0  0  0  0  0  0  0
  147.8332  135.6529  188.1469 N   0  0  0  0  0  0  0  0  0  0  0  0
  146.8121  136.3006  188.9518 C   0  0  0  0  0  0  0  0  0  0  0  0
  148.2591  136.2146  187.0047 C   0  0  0  0  0  0  0  0  0  0  0  0
  147.9188  137.3642  186.3725 N   0  0  0  0  0  0  0  0  0  0  0  0
  148.6418  137.4658  185.2586 C   0  0  0  0  0  0  0  0  0  0  0  0
  149.4790  136.3903  185.1212 N   0  0  0  0  0  0  0  0  0  0  0  0
  149.2381  135.6220  186.2019 C   0  0  0  0  0  0  0  0  0  0  0  0
  149.7250  134.4256  186.6751 C   0  0  0  0  0  0  0  0  0  0  0  0
  150.6147  133.8312  185.9996 O   0  0  0  0  0  0  0  0  0  0  0  0
  149.8828  132.6025  188.2145 C   0  0  0  0  0  0  0  0  0  0  0  0
  149.0935  131.4056  187.9605 C   0  0  0  0  0  0  0  0  0  0  0  0
  148.4223  131.3215  186.9527 O   0  0  0  0  0  0  0  0  0  0  0  0
  149.5908  130.6204  190.2872 C   0  0  0  0  0  0  0  0  0  0  0  0
  149.0827  130.2693  188.9066 C   0  0  0  0  0  0  0  0  0  0  0  0
 42 43  1  0  0  0
 43 40  1  0  0  0
 40 41  2  0  0  0
 40 39  1  0  0  0
 39 27  1  0  0  0
 27 28  1  0  0  0
 28 29  2  0  0  0
 28 30  1  0  0  0
 30 31  1  0  0  0
 30 32  1  0  0  0
 32 33  1  0  0  0
 33 34  2  0  0  0
 34 35  1  0  0  0
 35 25  1  0  0  0
 25 26  1  0  0  0
 25  1  1  0  0  0
  1  2  2  0  0  0
  1  3  1  0  0  0
  3  5  1  0  0  0
  5  6  2  0  0  0
  6  7  1  0  0  0
  7  8  2  0  0  0
  8  9  1  0  0  0
  9 10  2  0  0  0
  9 11  1  0  0  0
 11 12  2  0  0  0
 12 13  1  0  0  0
 13 14  2  0  0  0
 14 15  1  0  0  0
 15 16  2  0  0  0
 14 17  1  0  0  0
 17 18  1  0  0  0
 18 19  1  0  0  0
 19 20  1  0  0  0
 20 21  1  0  0  0
 20 22  1  0  0  0
 22 23  1  0  0  0
 22 24  1  0  0  0
 35 36  1  0  0  0
 36 37  1  0  0  0
 37 38  2  0  0  0
 37 27  1  0  0  0
 36 32  2  0  0  0
 10  5  1  0  0  0
 16 11  1  0  0  0
 21 17  1  0  0  0
 22 19  1  0  0  0
  3  4  1  0  0  0
M  END
> <minimizedAffinity>
-6.12102

> <CNNscore>
0.1720552593

> <CNNaffinity>
6.6411995888

> <CNN_VS>
1.1426533461

> <CNNaffinity_variance>
0.3230200410

$$$$
[H]c1nc([H])c(N([H])C(=O)[C@@]([H])(n2c([H])nc3c2c(=O)n(C([H])([H])C(=O)C([H])([H])C([H])([H])[H])c(=O)n3C([H])([H])[H])C([H])([H])[H])nc1-c1c([H])nc(N2C([H])([H])C3([H])C(F)(F)C3([H])C2([H])[H])c([H])c1[H]


 43 48  0  0  0  0  0  0  0  0999 V2000
  152.1729  136.5902  185.6897 C   0  0  0  0  0  0  0  0  0  0  0  0
  151.1630  137.3211  185.8659 O   0  0  0  0  0  0  0  0  0  0  0  0
  153.2650  136.8675  184.8544 N   0  0  0  0  0  0  0  0  0  0  0  0
  154.0451  136.1233  184.8311 H   0  0  0  0  0  0  0  0  0  0  0  0
  153.4485  137.9801  184.0509 C   0  0  0  0  0  0  0  0  0  0  0  0
  152.5372  138.4595  183.1694 C   0  0  0  0  0  0  0  0  0  0  0  0
  152.7342  139.5634  182.3865 N   0  0  0  0  0  0  0  0  0  0  0  0
  153.8954  140.2168  182.4906 C   0  0  0  0  0  0  0  0  0  0  0  0
  154.8641  139.7787  183.3705 C   0  0  0  0  0  0  0  0  0  0  0  0
  154.6246  138.6949  184.1139 N   0  0  0  0  0  0  0  0  0  0  0  0
  156.1396  140.4686  183.5189 C   0  0  0  0  0  0  0  0  0  0  0  0
  157.1207  139.8454  184.2744 C   0  0  0  0  0  0  0  0  0  0  0  0
  158.3265  140.4762  184.4286 C   0  0  0  0  0  0  0  0  0  0  0  0
  158.5945  141.6997  183.8619 C   0  0  0  0  0  0  0  0  0  0  0  0
  157.6126  142.2602  183.1403 N   0  0  0  0  0  0  0  0  0  0  0  0
  156.4016  141.6883  182.9515 C   0  0  0  0  0  0  0  0  0  0  0  0
  159.8561  142.3037  184.0610 N   0  0  0  0  0  0  0  0  0  0  0  0
  160.1655  143.7058  184.2984 C   0  0  0  0  0  0  0  0  0  0  0  0
  161.3915  143.6906  185.1725 C   0  0  0  0  0  0  0  0  0  0  0  0
  161.9753  142.3366  185.1088 C   0  0  0  0  0  0  0  0  0  0  0  0
  161.1204  141.6297  184.0741 C   0  0  0  0  0  0  0  0  0  0  0  0
  161.3574  142.8158  186.3708 C   0  0  0  0  0  0  0  0  0  0  0  0
  162.2241  143.1007  187.4046 F   0  0  0  0  0  0  0  0  0  0  0  0
  160.1102  142.3693  186.7462 F   0  0  0  0  0  0  0  0  0  0  0  0
  152.1390  135.3091  186.4902 C   0  0  0  0  0  0  0  0  0  0  0  0
  151.0036  134.4641  186.0388 C   0  0  0  0  0  0  0  0  0  0  0  0
  155.5650  136.3841  189.3473 N   0  0  0  0  0  0  0  0  0  0  0  0
  155.1140  136.5902  190.5885 C   0  0  0  0  0  0  0  0  0  0  0  0
  155.9354  136.8929  191.4839 O   0  0  0  0  0  0  0  0  0  0  0  0
  153.8210  136.4846  190.9086 N   0  0  0  0  0  0  0  0  0  0  0  0
  153.3877  136.7181  192.2751 C   0  0  0  0  0  0  0  0  0  0  0  0
  152.9314  136.1602  189.9572 C   0  0  0  0  0  0  0  0  0  0  0  0
  151.5876  135.9866  189.9875 N   0  0  0  0  0  0  0  0  0  0  0  0
  151.1733  135.6677  188.7626 C   0  0  0  0  0  0  0  0  0  0  0  0
  152.2270  135.6211  187.8884 N   0  0  0  0  0  0  0  0  0  0  0  0
  153.3089  135.9260  188.6318 C   0  0  0  0  0  0  0  0  0  0  0  0
  154.6562  136.0544  188.3848 C   0  0  0  0  0  0  0  0  0  0  0  0
  155.0711  135.8568  187.2059 O   0  0  0  0  0  0  0  0  0  0  0  0
  156.9374  136.4838  188.9595 C   0  0  0  0  0  0  0  0  0  0  0  0
  157.6950  135.2413  188.9131 C   0  0  0  0  0  0  0  0  0  0  0  0
  157.6606  134.4719  189.8513 O   0  0  0  0  0  0  0  0  0  0  0  0
  159.8722  134.3065  188.0986 C   0  0  0  0  0  0  0  0  0  0  0  0
  158.5193  134.8796  187.7400 C   0  0  0  0  0  0  0  0  0  0  0  0
 42 43  1  0  0  0
 43 40  1  0  0  0
 40 41  2  0  0  0
 40 39  1  0  0  0
 39 27  1  0  0  0
 27 28  1  0  0  0
 28 29  2  0  0  0
 28 30  1  0  0  0
 30 31  1  0  0  0
 30 32  1  0  0  0
 32 33  1  0  0  0
 33 34  2  0  0  0
 34 35  1  0  0  0
 35 25  1  0  0  0
 25 26  1  0  0  0
 25  1  1  0  0  0
  1  2  2  0  0  0
  1  3  1  0  0  0
  3  5  1  0  0  0
  5  6  2  0  0  0
  6  7  1  0  0  0
  7  8  2  0  0  0
  8  9  1  0  0  0
  9 10  2  0  0  0
  9 11  1  0  0  0
 11 12  2  0  0  0
 12 13  1  0  0  0
 13 14  2  0  0  0
 14 15  1  0  0  0
 15 16  2  0  0  0
 14 17  1  0  0  0
 17 18  1  0  0  0
 18 19  1  0  0  0
 19 20  1  0  0  0
 20 21  1  0  0  0
 20 22  1  0  0  0
 22 23  1  0  0  0
 22 24  1  0  0  0
 35 36  1  0  0  0
 36 37  1  0  0  0
 37 38  2  0  0  0
 37 27  1  0  0  0
 36 32  2  0  0  0
 10  5  1  0  0  0
 16 11  1  0  0  0
 21 17  1  0  0  0
 22 19  1  0  0  0
  3  4  1  0  0  0
M  END
> <minimizedAffinity>
-9.26649

> <CNNscore>
0.1716523021

> <CNNaffinity>
6.8335876465

> <CNN_VS>
1.1730010509

> <CNNaffinity_variance>
0.3823209405

$$$$
[H]c1nc([H])c(N([H])C(=O)[C@@]([H])(n2c([H])nc3c2c(=O)n(C([H])([H])C(=O)C([H])([H])C([H])([H])[H])c(=O)n3C([H])([H])[H])C([H])([H])[H])nc1-c1c([H])nc(N2C([H])([H])C3([H])C(F)(F)C3([H])C2([H])[H])c([H])c1[H]


 43 48  0  0  0  0  0  0  0  0999 V2000
  152.5676  136.4358  183.0539 C   0  0  0  0  0  0  0  0  0  0  0  0
  152.7003  136.1674  181.8310 O   0  0  0  0  0  0  0  0  0  0  0  0
  152.7214  137.6960  183.6504 N   0  0  0  0  0  0  0  0  0  0  0  0
  152.5651  137.7380  184.7167 H   0  0  0  0  0  0  0  0  0  0  0  0
  153.0606  138.8856  183.0285 C   0  0  0  0  0  0  0  0  0  0  0  0
  152.2520  139.5827  182.1933 C   0  0  0  0  0  0  0  0  0  0  0  0
  152.6026  140.7593  181.5910 N   0  0  0  0  0  0  0  0  0  0  0  0
  153.8171  141.2608  181.8356 C   0  0  0  0  0  0  0  0  0  0  0  0
  154.6870  140.5984  182.6776 C   0  0  0  0  0  0  0  0  0  0  0  0
  154.2984  139.4518  183.2422 N   0  0  0  0  0  0  0  0  0  0  0  0
  156.0162  141.1170  182.9758 C   0  0  0  0  0  0  0  0  0  0  0  0
  156.7381  140.4897  183.9793 C   0  0  0  0  0  0  0  0  0  0  0  0
  157.9889  140.9613  184.2775 C   0  0  0  0  0  0  0  0  0  0  0  0
  158.5488  142.0298  183.6183 C   0  0  0  0  0  0  0  0  0  0  0  0
  157.8099  142.6014  182.6558 N   0  0  0  0  0  0  0  0  0  0  0  0
  156.5698  142.1825  182.3152 C   0  0  0  0  0  0  0  0  0  0  0  0
  159.8417  142.4744  183.9744 N   0  0  0  0  0  0  0  0  0  0  0  0
  160.2749  143.8170  184.3321 C   0  0  0  0  0  0  0  0  0  0  0  0
  161.3980  143.6140  185.3143 C   0  0  0  0  0  0  0  0  0  0  0  0
  161.8358  142.2080  185.2161 C   0  0  0  0  0  0  0  0  0  0  0  0
  161.0182  141.6613  184.0613 C   0  0  0  0  0  0  0  0  0  0  0  0
  161.1494  142.6838  186.4436 C   0  0  0  0  0  0  0  0  0  0  0  0
  161.9334  142.8105  187.5707 F   0  0  0  0  0  0  0  0  0  0  0  0
  159.8300  142.3619  186.6700 F   0  0  0  0  0  0  0  0  0  0  0  0
  152.2033  135.2379  183.8997 C   0  0  0  0  0  0  0  0  0  0  0  0
  150.9880  135.5383  184.6995 C   0  0  0  0  0  0  0  0  0  0  0  0
  155.6746  132.4140  182.8845 N   0  0  0  0  0  0  0  0  0  0  0  0
  156.5326  132.3148  183.9045 C   0  0  0  0  0  0  0  0  0  0  0  0
  157.5357  131.5763  183.7765 O   0  0  0  0  0  0  0  0  0  0  0  0
  156.3590  132.9732  185.0542 N   0  0  0  0  0  0  0  0  0  0  0  0
  157.3234  132.8260  186.1303 C   0  0  0  0  0  0  0  0  0  0  0  0
  155.2871  133.7673  185.2031 C   0  0  0  0  0  0  0  0  0  0  0  0
  154.8618  134.5403  186.2319 N   0  0  0  0  0  0  0  0  0  0  0  0
  153.7271  135.1379  185.8727 C   0  0  0  0  0  0  0  0  0  0  0  0
  153.3693  134.7794  184.5998 N   0  0  0  0  0  0  0  0  0  0  0  0
  154.3360  133.9336  184.1923 C   0  0  0  0  0  0  0  0  0  0  0  0
  154.5870  133.2223  183.0418 C   0  0  0  0  0  0  0  0  0  0  0  0
  153.7676  133.3243  182.0831 O   0  0  0  0  0  0  0  0  0  0  0  0
  155.8182  131.7279  181.6384 C   0  0  0  0  0  0  0  0  0  0  0  0
  156.6353  132.3793  180.6245 C   0  0  0  0  0  0  0  0  0  0  0  0
  156.2972  133.4515  180.1667 O   0  0  0  0  0  0  0  0  0  0  0  0
  159.1259  132.2336  180.8538 C   0  0  0  0  0  0  0  0  0  0  0  0
  157.8852  131.7670  180.1255 C   0  0  0  0  0  0  0  0  0  0  0  0
 42 43  1  0  0  0
 43 40  1  0  0  0
 40 41  2  0  0  0
 40 39  1  0  0  0
 39 27  1  0  0  0
 27 28  1  0  0  0
 28 29  2  0  0  0
 28 30  1  0  0  0
 30 31  1  0  0  0
 30 32  1  0  0  0
 32 33  1  0  0  0
 33 34  2  0  0  0
 34 35  1  0  0  0
 35 25  1  0  0  0
 25 26  1  0  0  0
 25  1  1  0  0  0
  1  2  2  0  0  0
  1  3  1  0  0  0
  3  5  1  0  0  0
  5  6  2  0  0  0
  6  7  1  0  0  0
  7  8  2  0  0  0
  8  9  1  0  0  0
  9 10  2  0  0  0
  9 11  1  0  0  0
 11 12  2  0  0  0
 12 13  1  0  0  0
 13 14  2  0  0  0
 14 15  1  0  0  0
 15 16  2  0  0  0
 14 17  1  0  0  0
 17 18  1  0  0  0
 18 19  1  0  0  0
 19 20  1  0  0  0
 20 21  1  0  0  0
 20 22  1  0  0  0
 22 23  1  0  0  0
 22 24  1  0  0  0
 35 36  1  0  0  0
 36 37  1  0  0  0
 37 38  2  0  0  0
 37 27  1  0  0  0
 36 32  2  0  0  0
 10  5  1  0  0  0
 16 11  1  0  0  0
 21 17  1  0  0  0
 22 19  1  0  0  0
  3  4  1  0  0  0
M  END
> <minimizedAffinity>
-8.74458

> <CNNscore>
0.1494473964

> <CNNaffinity>
6.8417663574

> <CNN_VS>
1.0224841833

> <CNNaffinity_variance>
0.0905700475

$$$$
[H]c1nc([H])c(N([H])C(=O)[C@@]([H])(n2c([H])nc3c2c(=O)n(C([H])([H])C(=O)C([H])([H])C([H])([H])[H])c(=O)n3C([H])([H])[H])C([H])([H])[H])nc1-c1c([H])nc(N2C([H])([H])C3([H])C(F)(F)C3([H])C2([H])[H])c([H])c1[H]


 43 48  0  0  0  0  0  0  0  0999 V2000
  149.8077  136.0228  185.0301 C   0  0  0  0  0  0  0  0  0  0  0  0
  150.1662  134.8161  185.0105 O   0  0  0  0  0  0  0  0  0  0  0  0
  150.6286  137.1304  185.2888 N   0  0  0  0  0  0  0  0  0  0  0  0
  150.1466  138.0947  185.2602 H   0  0  0  0  0  0  0  0  0  0  0  0
  151.9807  137.1243  185.5866 C   0  0  0  0  0  0  0  0  0  0  0  0
  152.5899  136.2371  186.4108 C   0  0  0  0  0  0  0  0  0  0  0  0
  153.9286  136.2436  186.6900 N   0  0  0  0  0  0  0  0  0  0  0  0
  154.6920  137.1801  186.1185 C   0  0  0  0  0  0  0  0  0  0  0  0
  154.1314  138.1121  185.2691 C   0  0  0  0  0  0  0  0  0  0  0  0
  152.8184  138.0646  185.0277 N   0  0  0  0  0  0  0  0  0  0  0  0
  154.9315  139.1435  184.6205 C   0  0  0  0  0  0  0  0  0  0  0  0
  156.2615  139.2530  184.9959 C   0  0  0  0  0  0  0  0  0  0  0  0
  157.0318  140.2163  184.4006 C   0  0  0  0  0  0  0  0  0  0  0  0
  156.5325  141.0731  183.4485 C   0  0  0  0  0  0  0  0  0  0  0  0
  155.2404  140.9259  183.1202 N   0  0  0  0  0  0  0  0  0  0  0  0
  154.4287  139.9950  183.6716 C   0  0  0  0  0  0  0  0  0  0  0  0
  157.3751  142.0507  182.8737 N   0  0  0  0  0  0  0  0  0  0  0  0
  158.8255  142.0440  182.7536 C   0  0  0  0  0  0  0  0  0  0  0  0
  159.1136  142.7995  181.4834 C   0  0  0  0  0  0  0  0  0  0  0  0
  157.8911  143.5365  181.1085 C   0  0  0  0  0  0  0  0  0  0  0  0
  156.9511  143.2795  182.2710 C   0  0  0  0  0  0  0  0  0  0  0  0
  158.3547  142.4009  180.2720 C   0  0  0  0  0  0  0  0  0  0  0  0
  158.8837  142.7261  179.0410 F   0  0  0  0  0  0  0  0  0  0  0  0
  157.7186  141.1818  180.3427 F   0  0  0  0  0  0  0  0  0  0  0  0
  148.3396  136.2222  184.7335 C   0  0  0  0  0  0  0  0  0  0  0  0
  147.5207  135.5662  185.7851 C   0  0  0  0  0  0  0  0  0  0  0  0
  148.8634  138.3471  180.7003 N   0  0  0  0  0  0  0  0  0  0  0  0
  148.4615  137.5718  179.6885 C   0  0  0  0  0  0  0  0  0  0  0  0
  148.5435  138.0168  178.5209 O   0  0  0  0  0  0  0  0  0  0  0  0
  147.9755  136.3414  179.8770 N   0  0  0  0  0  0  0  0  0  0  0  0
  147.5517  135.5438  178.7395 C   0  0  0  0  0  0  0  0  0  0  0  0
  147.8824  135.8540  181.1242 C   0  0  0  0  0  0  0  0  0  0  0  0
  147.4406  134.6676  181.6080 N   0  0  0  0  0  0  0  0  0  0  0  0
  147.5584  134.6800  182.9345 C   0  0  0  0  0  0  0  0  0  0  0  0
  148.0800  135.8709  183.3663 N   0  0  0  0  0  0  0  0  0  0  0  0
  148.2777  136.5908  182.2443 C   0  0  0  0  0  0  0  0  0  0  0  0
  148.7661  137.8463  181.9655 C   0  0  0  0  0  0  0  0  0  0  0  0
  149.1435  138.5710  182.9317 O   0  0  0  0  0  0  0  0  0  0  0  0
  149.3873  139.6684  180.5469 C   0  0  0  0  0  0  0  0  0  0  0  0
  150.7690  139.7754  180.0999 C   0  0  0  0  0  0  0  0  0  0  0  0
  151.0156  139.9982  178.9325 O   0  0  0  0  0  0  0  0  0  0  0  0
  152.3764  138.1909  181.1874 C   0  0  0  0  0  0  0  0  0  0  0  0
  151.9012  139.6189  181.0380 C   0  0  0  0  0  0  0  0  0  0  0  0
 42 43  1  0  0  0
 43 40  1  0  0  0
 40 41  2  0  0  0
 40 39  1  0  0  0
 39 27  1  0  0  0
 27 28  1  0  0  0
 28 29  2  0  0  0
 28 30  1  0  0  0
 30 31  1  0  0  0
 30 32  1  0  0  0
 32 33  1  0  0  0
 33 34  2  0  0  0
 34 35  1  0  0  0
 35 25  1  0  0  0
 25 26  1  0  0  0
 25  1  1  0  0  0
  1  2  2  0  0  0
  1  3  1  0  0  0
  3  5  1  0  0  0
  5  6  2  0  0  0
  6  7  1  0  0  0
  7  8  2  0  0  0
  8  9  1  0  0  0
  9 10  2  0  0  0
  9 11  1  0  0  0
 11 12  2  0  0  0
 12 13  1  0  0  0
 13 14  2  0  0  0
 14 15  1  0  0  0
 15 16  2  0  0  0
 14 17  1  0  0  0
 17 18  1  0  0  0
 18 19  1  0  0  0
 19 20  1  0  0  0
 20 21  1  0  0  0
 20 22  1  0  0  0
 22 23  1  0  0  0
 22 24  1  0  0  0
 35 36  1  0  0  0
 36 37  1  0  0  0
 37 38  2  0  0  0
 37 27  1  0  0  0
 36 32  2  0  0  0
 10  5  1  0  0  0
 16 11  1  0  0  0
 21 17  1  0  0  0
 22 19  1  0  0  0
  3  4  1  0  0  0
M  END
> <minimizedAffinity>
-7.57839

> <CNNscore>
0.1464652568

> <CNNaffinity>
6.5613136292

> <CNN_VS>
0.9610044956

> <CNNaffinity_variance>
0.3512946367

$$$$
[H]c1nc([H])c(N([H])C(=O)[C@@]([H])(n2c([H])nc3c2c(=O)n(C([H])([H])C(=O)C([H])([H])C([H])([H])[H])c(=O)n3C([H])([H])[H])C([H])([H])[H])nc1-c1c([H])nc(N2C([H])([H])C3([H])C(F)(F)C3([H])C2([H])[H])c([H])c1[H]


 43 48  0  0  0  0  0  0  0  0999 V2000
  153.7818  133.8055  184.4104 C   0  0  0  0  0  0  0  0  0  0  0  0
  153.3806  134.3238  183.3355 O   0  0  0  0  0  0  0  0  0  0  0  0
  153.9247  134.4557  185.6450 N   0  0  0  0  0  0  0  0  0  0  0  0
  154.2806  133.8486  186.4622 H   0  0  0  0  0  0  0  0  0  0  0  0
  153.6714  135.7870  185.9291 C   0  0  0  0  0  0  0  0  0  0  0  0
  152.8976  136.2289  186.9506 C   0  0  0  0  0  0  0  0  0  0  0  0
  152.6620  137.5490  187.2190 N   0  0  0  0  0  0  0  0  0  0  0  0
  153.2263  138.4681  186.4296 C   0  0  0  0  0  0  0  0  0  0  0  0
  154.0255  138.0820  185.3728 C   0  0  0  0  0  0  0  0  0  0  0  0
  154.2255  136.7800  185.1512 N   0  0  0  0  0  0  0  0  0  0  0  0
  154.6650  139.0540  184.4947 C   0  0  0  0  0  0  0  0  0  0  0  0
  155.9854  139.3837  184.7582 C   0  0  0  0  0  0  0  0  0  0  0  0
  156.6059  140.2961  183.9469 C   0  0  0  0  0  0  0  0  0  0  0  0
  155.9663  140.8920  182.8860 C   0  0  0  0  0  0  0  0  0  0  0  0
  154.6900  140.5388  182.6732 N   0  0  0  0  0  0  0  0  0  0  0  0
  154.0226  139.6449  183.4381 C   0  0  0  0  0  0  0  0  0  0  0  0
  156.6575  141.8305  182.0875 N   0  0  0  0  0  0  0  0  0  0  0  0
  156.4029  143.2550  181.9328 C   0  0  0  0  0  0  0  0  0  0  0  0
  157.7554  143.8661  181.6783 C   0  0  0  0  0  0  0  0  0  0  0  0
  158.6832  142.7762  181.3183 C   0  0  0  0  0  0  0  0  0  0  0  0
  157.7866  141.5546  181.2496 C   0  0  0  0  0  0  0  0  0  0  0  0
  158.8515  143.4940  182.6069 C   0  0  0  0  0  0  0  0  0  0  0  0
  159.9374  144.3388  182.6973 F   0  0  0  0  0  0  0  0  0  0  0  0
  158.4573  142.9039  183.7868 F   0  0  0  0  0  0  0  0  0  0  0  0
  154.1200  132.3382  184.2847 C   0  0  0  0  0  0  0  0  0  0  0  0
  154.1960  131.7225  185.6346 C   0  0  0  0  0  0  0  0  0  0  0  0
  154.6665  131.1898  179.8759 N   0  0  0  0  0  0  0  0  0  0  0  0
  155.9580  131.1905  179.5316 C   0  0  0  0  0  0  0  0  0  0  0  0
  156.2664  130.8953  178.3544 O   0  0  0  0  0  0  0  0  0  0  0  0
  156.9306  131.4933  180.3964 N   0  0  0  0  0  0  0  0  0  0  0  0
  158.3181  131.4760  179.9671 C   0  0  0  0  0  0  0  0  0  0  0  0
  156.6120  131.8108  181.6611 C   0  0  0  0  0  0  0  0  0  0  0  0
  157.3681  132.1547  182.7321 N   0  0  0  0  0  0  0  0  0  0  0  0
  156.5606  132.3756  183.7680 C   0  0  0  0  0  0  0  0  0  0  0  0
  155.2509  132.1851  183.4143 N   0  0  0  0  0  0  0  0  0  0  0  0
  155.2895  131.8368  182.1130 C   0  0  0  0  0  0  0  0  0  0  0  0
  154.3490  131.5130  181.1626 C   0  0  0  0  0  0  0  0  0  0  0  0
  153.1297  131.5159  181.5005 O   0  0  0  0  0  0  0  0  0  0  0  0
  153.5936  130.8711  178.9865 C   0  0  0  0  0  0  0  0  0  0  0  0
  152.9381  131.9909  178.3259 C   0  0  0  0  0  0  0  0  0  0  0  0
  153.5625  133.0020  178.0785 O   0  0  0  0  0  0  0  0  0  0  0  0
  150.5585  132.1255  179.0985 C   0  0  0  0  0  0  0  0  0  0  0  0
  151.5118  131.9358  177.9397 C   0  0  0  0  0  0  0  0  0  0  0  0
 42 43  1  0  0  0
 43 40  1  0  0  0
 40 41  2  0  0  0
 40 39  1  0  0  0
 39 27  1  0  0  0
 27 28  1  0  0  0
 28 29  2  0  0  0
 28 30  1  0  0  0
 30 31  1  0  0  0
 30 32  1  0  0  0
 32 33  1  0  0  0
 33 34  2  0  0  0
 34 35  1  0  0  0
 35 25  1  0  0  0
 25 26  1  0  0  0
 25  1  1  0  0  0
  1  2  2  0  0  0
  1  3  1  0  0  0
  3  5  1  0  0  0
  5  6  2  0  0  0
  6  7  1  0  0  0
  7  8  2  0  0  0
  8  9  1  0  0  0
  9 10  2  0  0  0
  9 11  1  0  0  0
 11 12  2  0  0  0
 12 13  1  0  0  0
 13 14  2  0  0  0
 14 15  1  0  0  0
 15 16  2  0  0  0
 14 17  1  0  0  0
 17 18  1  0  0  0
 18 19  1  0  0  0
 19 20  1  0  0  0
 20 21  1  0  0  0
 20 22  1  0  0  0
 22 23  1  0  0  0
 22 24  1  0  0  0
 35 36  1  0  0  0
 36 37  1  0  0  0
 37 38  2  0  0  0
 37 27  1  0  0  0
 36 32  2  0  0  0
 10  5  1  0  0  0
 16 11  1  0  0  0
 21 17  1  0  0  0
 22 19  1  0  0  0
  3  4  1  0  0  0
M  END
> <minimizedAffinity>
-6.45602

> <CNNscore>
0.1442434788

> <CNNaffinity>
6.4233322144

> <CNN_VS>
0.9265238047

> <CNNaffinity_variance>
0.0375899896

$$$$
[H]c1nc([H])c(N([H])C(=O)[C@@]([H])(n2c([H])nc3c2c(=O)n(C([H])([H])C(=O)C([H])([H])C([H])([H])[H])c(=O)n3C([H])([H])[H])C([H])([H])[H])nc1-c1c([H])nc(N2C([H])([H])C3([H])C(F)(F)C3([H])C2([H])[H])c([H])c1[H]


 43 48  0  0  0  0  0  0  0  0999 V2000
  151.7566  136.6465  184.6302 C   0  0  0  0  0  0  0  0  0  0  0  0
  150.7312  137.3534  184.8147 O   0  0  0  0  0  0  0  0  0  0  0  0
  152.9348  137.0435  183.9809 N   0  0  0  0  0  0  0  0  0  0  0  0
  153.7148  136.3013  183.9183 H   0  0  0  0  0  0  0  0  0  0  0  0
  153.2043  138.2729  183.4038 C   0  0  0  0  0  0  0  0  0  0  0  0
  152.3297  138.9860  182.6528 C   0  0  0  0  0  0  0  0  0  0  0  0
  152.6120  140.2018  182.0940 N   0  0  0  0  0  0  0  0  0  0  0  0
  153.8241  140.7275  182.2959 C   0  0  0  0  0  0  0  0  0  0  0  0
  154.7593  140.0506  183.0519 C   0  0  0  0  0  0  0  0  0  0  0  0
  154.4360  138.8655  183.5769 N   0  0  0  0  0  0  0  0  0  0  0  0
  156.0885  140.5942  183.3016 C   0  0  0  0  0  0  0  0  0  0  0  0
  156.2337  141.9724  183.2662 C   0  0  0  0  0  0  0  0  0  0  0  0
  157.4742  142.5052  183.4963 C   0  0  0  0  0  0  0  0  0  0  0  0
  158.5735  141.7231  183.7598 C   0  0  0  0  0  0  0  0  0  0  0  0
  158.3802  140.3961  183.7832 N   0  0  0  0  0  0  0  0  0  0  0  0
  157.1811  139.8098  183.5641 C   0  0  0  0  0  0  0  0  0  0  0  0
  159.8292  142.3307  183.9839 N   0  0  0  0  0  0  0  0  0  0  0  0
  160.1324  143.7370  184.2041 C   0  0  0  0  0  0  0  0  0  0  0  0
  161.3327  143.7379  185.1132 C   0  0  0  0  0  0  0  0  0  0  0  0
  161.9173  142.3830  185.0914 C   0  0  0  0  0  0  0  0  0  0  0  0
  161.0923  141.6570  184.0459 C   0  0  0  0  0  0  0  0  0  0  0  0
  161.2637  142.8855  186.3260 C   0  0  0  0  0  0  0  0  0  0  0  0
  162.1004  143.1895  187.3789 F   0  0  0  0  0  0  0  0  0  0  0  0
  160.0059  142.4460  186.6736 F   0  0  0  0  0  0  0  0  0  0  0  0
  151.6367  135.2491  185.1923 C   0  0  0  0  0  0  0  0  0  0  0  0
  150.8248  134.4069  184.2767 C   0  0  0  0  0  0  0  0  0  0  0  0
  153.5195  136.9390  189.0205 N   0  0  0  0  0  0  0  0  0  0  0  0
  152.7196  136.7557  190.0755 C   0  0  0  0  0  0  0  0  0  0  0  0
  153.0992  137.1657  191.1961 O   0  0  0  0  0  0  0  0  0  0  0  0
  151.5318  136.1512  189.9785 N   0  0  0  0  0  0  0  0  0  0  0  0
  150.7046  135.9775  191.1598 C   0  0  0  0  0  0  0  0  0  0  0  0
  151.1146  135.7071  188.7825 C   0  0  0  0  0  0  0  0  0  0  0  0
  149.9829  135.0728  188.3904 N   0  0  0  0  0  0  0  0  0  0  0  0
  150.0553  134.8473  187.0798 C   0  0  0  0  0  0  0  0  0  0  0  0
  151.2330  135.3242  186.5676 N   0  0  0  0  0  0  0  0  0  0  0  0
  151.8820  135.8536  187.6234 C   0  0  0  0  0  0  0  0  0  0  0  0
  153.0901  136.4853  187.8078 C   0  0  0  0  0  0  0  0  0  0  0  0
  153.8386  136.6531  186.8015 O   0  0  0  0  0  0  0  0  0  0  0  0
  154.7973  137.5775  189.0769 C   0  0  0  0  0  0  0  0  0  0  0  0
  155.9128  136.7663  189.5435 C   0  0  0  0  0  0  0  0  0  0  0  0
  156.1897  135.7289  188.9775 O   0  0  0  0  0  0  0  0  0  0  0  0
  156.4012  136.4261  191.9772 C   0  0  0  0  0  0  0  0  0  0  0  0
  156.7339  137.1721  190.7044 C   0  0  0  0  0  0  0  0  0  0  0  0
 42 43  1  0  0  0
 43 40  1  0  0  0
 40 41  2  0  0  0
 40 39  1  0  0  0
 39 27  1  0  0  0
 27 28  1  0  0  0
 28 29  2  0  0  0
 28 30  1  0  0  0
 30 31  1  0  0  0
 30 32  1  0  0  0
 32 33  1  0  0  0
 33 34  2  0  0  0
 34 35  1  0  0  0
 35 25  1  0  0  0
 25 26  1  0  0  0
 25  1  1  0  0  0
  1  2  2  0  0  0
  1  3  1  0  0  0
  3  5  1  0  0  0
  5  6  2  0  0  0
  6  7  1  0  0  0
  7  8  2  0  0  0
  8  9  1  0  0  0
  9 10  2  0  0  0
  9 11  1  0  0  0
 11 12  2  0  0  0
 12 13  1  0  0  0
 13 14  2  0  0  0
 14 15  1  0  0  0
 15 16  2  0  0  0
 14 17  1  0  0  0
 17 18  1  0  0  0
 18 19  1  0  0  0
 19 20  1  0  0  0
 20 21  1  0  0  0
 20 22  1  0  0  0
 22 23  1  0  0  0
 22 24  1  0  0  0
 35 36  1  0  0  0
 36 37  1  0  0  0
 37 38  2  0  0  0
 37 27  1  0  0  0
 36 32  2  0  0  0
 10  5  1  0  0  0
 16 11  1  0  0  0
 21 17  1  0  0  0
 22 19  1  0  0  0
  3  4  1  0  0  0
M  END
> <minimizedAffinity>
-8.68065

> <CNNscore>
0.1394272894

> <CNNaffinity>
6.7161154747

> <CNN_VS>
0.9364097714

> <CNNaffinity_variance>
0.2325525284

$$$$
[H]c1nc2c(c(C([H])([H])C(=O)N([H])c3nc(-c4c([H])c(F)c(OC([H])([H])C(F)(F)F)c(F)c4[H])c([H])s3)c1[H])c(=O)n(C([H])([H])[H])c(=O)n2C([H])([H])[H]


 38 41  0  0  0  0  0  0  0  0999 V2000
  154.5629  138.1311  186.1810 C   0  0  0  0  0  0  0  0  0  0  0  0
  153.5810  138.8143  186.5304 O   0  0  0  0  0  0  0  0  0  0  0  0
  155.3791  137.4905  187.1122 N   0  0  0  0  0  0  0  0  0  0  0  0
  156.2037  136.9160  186.8437 H   0  0  0  0  0  0  0  0  0  0  0  0
  155.1260  137.5747  188.5341 C   0  0  0  0  0  0  0  0  0  0  0  0
  154.0614  137.1420  189.1841 N   0  0  0  0  0  0  0  0  0  0  0  0
  153.9887  137.2947  190.4714 C   0  0  0  0  0  0  0  0  0  0  0  0
  155.0484  137.9115  191.0920 C   0  0  0  0  0  0  0  0  0  0  0  0
  156.0848  138.2330  189.7741 S   0  0  0  0  0  0  0  0  0  0  0  0
  152.8078  136.8150  191.2484 C   0  0  0  0  0  0  0  0  0  0  0  0
  152.8175  136.7788  192.6226 C   0  0  0  0  0  0  0  0  0  0  0  0
  151.7165  136.3247  193.3252 C   0  0  0  0  0  0  0  0  0  0  0  0
  151.7696  136.3074  194.6786 F   0  0  0  0  0  0  0  0  0  0  0  0
  150.5781  135.8953  192.6850 C   0  0  0  0  0  0  0  0  0  0  0  0
  150.5719  135.9335  191.3068 C   0  0  0  0  0  0  0  0  0  0  0  0
  149.4740  135.5223  190.6278 F   0  0  0  0  0  0  0  0  0  0  0  0
  151.6832  136.3914  190.6058 C   0  0  0  0  0  0  0  0  0  0  0  0
  149.4895  135.4469  193.4095 O   0  0  0  0  0  0  0  0  0  0  0  0
  149.4370  134.1590  193.9983 C   0  0  0  0  0  0  0  0  0  0  0  0
  148.8502  133.2041  193.0043 C   0  0  0  0  0  0  0  0  0  0  0  0
  149.8425  132.7463  192.1484 F   0  0  0  0  0  0  0  0  0  0  0  0
  148.3504  132.1000  193.6678 F   0  0  0  0  0  0  0  0  0  0  0  0
  147.8300  133.7880  192.2713 F   0  0  0  0  0  0  0  0  0  0  0  0
  154.8709  137.9934  184.7415 C   0  0  0  0  0  0  0  0  0  0  0  0
  151.1129  140.3138  180.3825 C   0  0  0  0  0  0  0  0  0  0  0  0
  151.6592  139.2998  181.2901 N   0  0  0  0  0  0  0  0  0  0  0  0
  152.6772  139.6391  182.1035 C   0  0  0  0  0  0  0  0  0  0  0  0
  153.1842  140.8962  182.1044 N   0  0  0  0  0  0  0  0  0  0  0  0
  154.1750  141.1917  182.9328 C   0  0  0  0  0  0  0  0  0  0  0  0
  154.6821  140.2538  183.7725 C   0  0  0  0  0  0  0  0  0  0  0  0
  154.2233  138.9232  183.8441 C   0  0  0  0  0  0  0  0  0  0  0  0
  153.1863  138.6559  182.9635 C   0  0  0  0  0  0  0  0  0  0  0  0
  152.6351  137.4122  182.9417 C   0  0  0  0  0  0  0  0  0  0  0  0
  153.0665  136.5193  183.6987 O   0  0  0  0  0  0  0  0  0  0  0  0
  151.6194  137.1054  182.1177 N   0  0  0  0  0  0  0  0  0  0  0  0
  151.0803  135.7762  182.1426 C   0  0  0  0  0  0  0  0  0  0  0  0
  151.1473  138.0586  181.3026 C   0  0  0  0  0  0  0  0  0  0  0  0
  150.1949  137.8043  180.5163 O   0  0  0  0  0  0  0  0  0  0  0  0
 25 26  1  0  0  0
 26 27  1  0  0  0
 27 28  2  0  0  0
 28 29  1  0  0  0
 29 30  2  0  0  0
 30 31  1  0  0  0
 31 24  1  0  0  0
 24  1  1  0  0  0
  1  2  2  0  0  0
  1  3  1  0  0  0
  3  5  1  0  0  0
  5  6  2  0  0  0
  6  7  1  0  0  0
  7  8  2  0  0  0
  8  9  1  0  0  0
  7 10  1  0  0  0
 10 11  2  0  0  0
 11 12  1  0  0  0
 12 13  1  0  0  0
 12 14  2  0  0  0
 14 18  1  0  0  0
 18 19  1  0  0  0
 19 20  1  0  0  0
 20 21  1  0  0  0
 20 22  1  0  0  0
 20 23  1  0  0  0
 14 15  1  0  0  0
 15 16  1  0  0  0
 15 17  2  0  0  0
 31 32  2  0  0  0
 32 33  1  0  0  0
 33 34  2  0  0  0
 33 35  1  0  0  0
 35 36  1  0  0  0
 35 37  1  0  0  0
 37 38  2  0  0  0
 37 26  1  0  0  0
 32 27  1  0  0  0
  9  5  1  0  0  0
 17 10  1  0  0  0
  3  4  1  0  0  0
M  END
> <minimizedAffinity>
-7.39349

> <CNNscore>
0.4069209099

> <CNNaffinity>
6.1278066635

> <CNN_VS>
2.4935326576

> <CNNaffinity_variance>
0.1340799332

$$$$
[H]c1nc2c(c(C([H])([H])C(=O)N([H])c3nc(-c4c([H])c(F)c(OC([H])([H])C(F)(F)F)c(F)c4[H])c([H])s3)c1[H])c(=O)n(C([H])([H])[H])c(=O)n2C([H])([H])[H]


 38 41  0  0  0  0  0  0  0  0999 V2000
  154.8119  138.4114  185.8436 C   0  0  0  0  0  0  0  0  0  0  0  0
  153.7979  138.9883  186.2816 O   0  0  0  0  0  0  0  0  0  0  0  0
  155.7179  137.7762  186.6918 N   0  0  0  0  0  0  0  0  0  0  0  0
  156.5708  137.2893  186.3487 H   0  0  0  0  0  0  0  0  0  0  0  0
  155.5261  137.7425  188.1253 C   0  0  0  0  0  0  0  0  0  0  0  0
  154.4292  137.4050  188.7779 N   0  0  0  0  0  0  0  0  0  0  0  0
  154.4219  137.4264  190.0761 C   0  0  0  0  0  0  0  0  0  0  0  0
  155.5827  137.8080  190.7050 C   0  0  0  0  0  0  0  0  0  0  0  0
  156.6134  138.1128  189.3787 S   0  0  0  0  0  0  0  0  0  0  0  0
  153.2070  137.0462  190.8557 C   0  0  0  0  0  0  0  0  0  0  0  0
  153.1079  137.3013  192.2029 C   0  0  0  0  0  0  0  0  0  0  0  0
  151.9772  136.9355  192.9099 C   0  0  0  0  0  0  0  0  0  0  0  0
  151.9222  137.2074  194.2357 F   0  0  0  0  0  0  0  0  0  0  0  0
  150.9162  136.3082  192.3010 C   0  0  0  0  0  0  0  0  0  0  0  0
  151.0190  136.0544  190.9497 C   0  0  0  0  0  0  0  0  0  0  0  0
  150.0004  135.4393  190.3018 F   0  0  0  0  0  0  0  0  0  0  0  0
  152.1596  136.4249  190.2441 C   0  0  0  0  0  0  0  0  0  0  0  0
  149.7958  135.9534  193.0290 O   0  0  0  0  0  0  0  0  0  0  0  0
  149.7652  134.8296  193.8918 C   0  0  0  0  0  0  0  0  0  0  0  0
  149.2902  133.6424  193.1115 C   0  0  0  0  0  0  0  0  0  0  0  0
  148.8118  132.6696  193.9785 F   0  0  0  0  0  0  0  0  0  0  0  0
  148.2333  134.0164  192.3041 F   0  0  0  0  0  0  0  0  0  0  0  0
  150.2955  133.1125  192.3194 F   0  0  0  0  0  0  0  0  0  0  0  0
  155.0616  138.3975  184.3864 C   0  0  0  0  0  0  0  0  0  0  0  0
  156.3957  144.0068  182.0922 C   0  0  0  0  0  0  0  0  0  0  0  0
  156.6513  142.7347  182.7754 N   0  0  0  0  0  0  0  0  0  0  0  0
  155.6461  141.8459  182.8874 C   0  0  0  0  0  0  0  0  0  0  0  0
  154.4212  142.1041  182.3673 N   0  0  0  0  0  0  0  0  0  0  0  0
  153.4652  141.1946  182.4858 C   0  0  0  0  0  0  0  0  0  0  0  0
  153.7003  140.0173  183.1186 C   0  0  0  0  0  0  0  0  0  0  0  0
  154.9371  139.6587  183.6912 C   0  0  0  0  0  0  0  0  0  0  0  0
  155.9097  140.6357  183.5443 C   0  0  0  0  0  0  0  0  0  0  0  0
  157.1586  140.4112  184.0352 C   0  0  0  0  0  0  0  0  0  0  0  0
  157.4216  139.3417  184.6211 O   0  0  0  0  0  0  0  0  0  0  0  0
  158.1405  141.3191  183.9069 N   0  0  0  0  0  0  0  0  0  0  0  0
  159.4368  141.0228  184.4450 C   0  0  0  0  0  0  0  0  0  0  0  0
  157.8685  142.4701  183.2766 C   0  0  0  0  0  0  0  0  0  0  0  0
  158.7670  143.3440  183.1391 O   0  0  0  0  0  0  0  0  0  0  0  0
 25 26  1  0  0  0
 26 27  1  0  0  0
 27 28  2  0  0  0
 28 29  1  0  0  0
 29 30  2  0  0  0
 30 31  1  0  0  0
 31 24  1  0  0  0
 24  1  1  0  0  0
  1  2  2  0  0  0
  1  3  1  0  0  0
  3  5  1  0  0  0
  5  6  2  0  0  0
  6  7  1  0  0  0
  7  8  2  0  0  0
  8  9  1  0  0  0
  7 10  1  0  0  0
 10 11  2  0  0  0
 11 12  1  0  0  0
 12 13  1  0  0  0
 12 14  2  0  0  0
 14 18  1  0  0  0
 18 19  1  0  0  0
 19 20  1  0  0  0
 20 21  1  0  0  0
 20 22  1  0  0  0
 20 23  1  0  0  0
 14 15  1  0  0  0
 15 16  1  0  0  0
 15 17  2  0  0  0
 31 32  2  0  0  0
 32 33  1  0  0  0
 33 34  2  0  0  0
 33 35  1  0  0  0
 35 36  1  0  0  0
 35 37  1  0  0  0
 37 38  2  0  0  0
 37 26  1  0  0  0
 32 27  1  0  0  0
  9  5  1  0  0  0
 17 10  1  0  0  0
  3  4  1  0  0  0
M  END
> <minimizedAffinity>
-8.31796

> <CNNscore>
0.3294556737

> <CNNaffinity>
6.4239530563

> <CNN_VS>
2.1164078712

> <CNNaffinity_variance>
0.0919787809

$$$$
[H]c1nc2c(c(C([H])([H])C(=O)N([H])c3nc(-c4c([H])c(F)c(OC([H])([H])C(F)(F)F)c(F)c4[H])c([H])s3)c1[H])c(=O)n(C([H])([H])[H])c(=O)n2C([H])([H])[H]


 38 41  0  0  0  0  0  0  0  0999 V2000
  152.4229  139.4812  181.0461 C   0  0  0  0  0  0  0  0  0  0  0  0
  152.8915  140.0129  180.0211 O   0  0  0  0  0  0  0  0  0  0  0  0
  152.8226  139.8724  182.3232 N   0  0  0  0  0  0  0  0  0  0  0  0
  152.4456  139.4424  183.1922 H   0  0  0  0  0  0  0  0  0  0  0  0
  153.7950  140.9233  182.5297 C   0  0  0  0  0  0  0  0  0  0  0  0
  155.0730  140.7830  182.8298 N   0  0  0  0  0  0  0  0  0  0  0  0
  155.8166  141.8365  182.9819 C   0  0  0  0  0  0  0  0  0  0  0  0
  155.2136  143.0604  182.8177 C   0  0  0  0  0  0  0  0  0  0  0  0
  153.6073  142.6113  182.4536 S   0  0  0  0  0  0  0  0  0  0  0  0
  157.2676  141.7258  183.3144 C   0  0  0  0  0  0  0  0  0  0  0  0
  157.8314  140.5278  183.6841 C   0  0  0  0  0  0  0  0  0  0  0  0
  159.1763  140.4460  183.9952 C   0  0  0  0  0  0  0  0  0  0  0  0
  159.6897  139.2449  184.3535 F   0  0  0  0  0  0  0  0  0  0  0  0
  159.9968  141.5481  183.9478 C   0  0  0  0  0  0  0  0  0  0  0  0
  159.4279  142.7478  183.5761 C   0  0  0  0  0  0  0  0  0  0  0  0
  160.1933  143.8638  183.5127 F   0  0  0  0  0  0  0  0  0  0  0  0
  158.0738  142.8233  183.2646 C   0  0  0  0  0  0  0  0  0  0  0  0
  161.3387  141.4409  184.2620 O   0  0  0  0  0  0  0  0  0  0  0  0
  162.1125  142.5404  184.7101 C   0  0  0  0  0  0  0  0  0  0  0  0
  161.8738  142.7246  186.1775 C   0  0  0  0  0  0  0  0  0  0  0  0
  162.9969  142.3285  186.8907 F   0  0  0  0  0  0  0  0  0  0  0  0
  161.6790  144.0658  186.4463 F   0  0  0  0  0  0  0  0  0  0  0  0
  160.7669  142.0137  186.6113 F   0  0  0  0  0  0  0  0  0  0  0  0
  151.4150  138.4084  180.9063 C   0  0  0  0  0  0  0  0  0  0  0  0
  146.8255  137.9249  185.0549 C   0  0  0  0  0  0  0  0  0  0  0  0
  148.1568  137.6940  184.4852 N   0  0  0  0  0  0  0  0  0  0  0  0
  148.4678  138.2722  183.3096 C   0  0  0  0  0  0  0  0  0  0  0  0
  147.5809  139.0686  182.6641 N   0  0  0  0  0  0  0  0  0  0  0  0
  147.9341  139.6309  181.5177 C   0  0  0  0  0  0  0  0  0  0  0  0
  149.1655  139.4172  180.9890 C   0  0  0  0  0  0  0  0  0  0  0  0
  150.1534  138.6066  181.5834 C   0  0  0  0  0  0  0  0  0  0  0  0
  149.7450  138.0391  182.7806 C   0  0  0  0  0  0  0  0  0  0  0  0
  150.6095  137.2473  183.4712 C   0  0  0  0  0  0  0  0  0  0  0  0
  151.7534  137.0259  183.0253 O   0  0  0  0  0  0  0  0  0  0  0  0
  150.2684  136.6848  184.6426 N   0  0  0  0  0  0  0  0  0  0  0  0
  151.2250  135.8607  185.3235 C   0  0  0  0  0  0  0  0  0  0  0  0
  149.0427  136.9189  185.1312 C   0  0  0  0  0  0  0  0  0  0  0  0
  148.6900  136.4063  186.2279 O   0  0  0  0  0  0  0  0  0  0  0  0
 25 26  1  0  0  0
 26 27  1  0  0  0
 27 28  2  0  0  0
 28 29  1  0  0  0
 29 30  2  0  0  0
 30 31  1  0  0  0
 31 24  1  0  0  0
 24  1  1  0  0  0
  1  2  2  0  0  0
  1  3  1  0  0  0
  3  5  1  0  0  0
  5  6  2  0  0  0
  6  7  1  0  0  0
  7  8  2  0  0  0
  8  9  1  0  0  0
  7 10  1  0  0  0
 10 11  2  0  0  0
 11 12  1  0  0  0
 12 13  1  0  0  0
 12 14  2  0  0  0
 14 18  1  0  0  0
 18 19  1  0  0  0
 19 20  1  0  0  0
 20 21  1  0  0  0
 20 22  1  0  0  0
 20 23  1  0  0  0
 14 15  1  0  0  0
 15 16  1  0  0  0
 15 17  2  0  0  0
 31 32  2  0  0  0
 32 33  1  0  0  0
 33 34  2  0  0  0
 33 35  1  0  0  0
 35 36  1  0  0  0
 35 37  1  0  0  0
 37 38  2  0  0  0
 37 26  1  0  0  0
 32 27  1  0  0  0
  9  5  1  0  0  0
 17 10  1  0  0  0
  3  4  1  0  0  0
M  END
> <minimizedAffinity>
-9.27411

> <CNNscore>
0.3230368495

> <CNNaffinity>
6.6902799606

> <CNN_VS>
2.1612069607

> <CNNaffinity_variance>
0.1900480390

$$$$
[H]c1nc2c(c(C([H])([H])C(=O)N([H])c3nc(-c4c([H])c(F)c(OC([H])([H])C(F)(F)F)c(F)c4[H])c([H])s3)c1[H])c(=O)n(C([H])([H])[H])c(=O)n2C([H])([H])[H]


 38 41  0  0  0  0  0  0  0  0999 V2000
  157.4392  139.5553  184.5897 C   0  0  0  0  0  0  0  0  0  0  0  0
  157.5043  139.9771  185.7605 O   0  0  0  0  0  0  0  0  0  0  0  0
  156.3257  138.8588  184.1222 N   0  0  0  0  0  0  0  0  0  0  0  0
  156.2499  138.4972  183.1497 H   0  0  0  0  0  0  0  0  0  0  0  0
  155.1805  138.5962  184.9661 C   0  0  0  0  0  0  0  0  0  0  0  0
  155.1887  138.2353  186.2361 N   0  0  0  0  0  0  0  0  0  0  0  0
  154.0645  138.0381  186.8551 C   0  0  0  0  0  0  0  0  0  0  0  0
  152.9092  138.2213  186.1337 C   0  0  0  0  0  0  0  0  0  0  0  0
  153.5211  138.6673  184.6036 S   0  0  0  0  0  0  0  0  0  0  0  0
  154.0253  137.6361  188.2922 C   0  0  0  0  0  0  0  0  0  0  0  0
  154.4221  138.4942  189.2901 C   0  0  0  0  0  0  0  0  0  0  0  0
  154.3853  138.1016  190.6155 C   0  0  0  0  0  0  0  0  0  0  0  0
  154.7847  138.9801  191.5661 F   0  0  0  0  0  0  0  0  0  0  0  0
  153.9543  136.8498  190.9862 C   0  0  0  0  0  0  0  0  0  0  0  0
  153.5567  135.9921  189.9826 C   0  0  0  0  0  0  0  0  0  0  0  0
  153.1224  134.7474  190.2948 F   0  0  0  0  0  0  0  0  0  0  0  0
  153.5964  136.3934  188.6508 C   0  0  0  0  0  0  0  0  0  0  0  0
  153.9253  136.4810  192.3182 O   0  0  0  0  0  0  0  0  0  0  0  0
  152.7752  135.9315  192.9377 C   0  0  0  0  0  0  0  0  0  0  0  0
  151.7531  137.0157  193.0920 C   0  0  0  0  0  0  0  0  0  0  0  0
  151.0806  137.2034  191.8922 F   0  0  0  0  0  0  0  0  0  0  0  0
  150.8105  136.6289  194.0252 F   0  0  0  0  0  0  0  0  0  0  0  0
  152.3270  138.2085  193.5005 F   0  0  0  0  0  0  0  0  0  0  0  0
  158.5708  139.8005  183.6702 C   0  0  0  0  0  0  0  0  0  0  0  0
  159.2202  145.5979  181.5543 C   0  0  0  0  0  0  0  0  0  0  0  0
  159.4224  144.4641  182.4621 N   0  0  0  0  0  0  0  0  0  0  0  0
  158.8333  143.2886  182.1721 C   0  0  0  0  0  0  0  0  0  0  0  0
  158.0790  143.1394  181.0557 N   0  0  0  0  0  0  0  0  0  0  0  0
  157.5310  141.9606  180.8001 C   0  0  0  0  0  0  0  0  0  0  0  0
  157.7167  140.9110  181.6400 C   0  0  0  0  0  0  0  0  0  0  0  0
  158.4812  140.9679  182.8225 C   0  0  0  0  0  0  0  0  0  0  0  0
  159.0379  142.2168  183.0522 C   0  0  0  0  0  0  0  0  0  0  0  0
  159.8170  142.4065  184.1514 C   0  0  0  0  0  0  0  0  0  0  0  0
  160.0186  141.4690  184.9494 O   0  0  0  0  0  0  0  0  0  0  0  0
  160.3912  143.5927  184.4125 N   0  0  0  0  0  0  0  0  0  0  0  0
  161.2029  143.7292  185.5874 C   0  0  0  0  0  0  0  0  0  0  0  0
  160.1828  144.6052  183.5597 C   0  0  0  0  0  0  0  0  0  0  0  0
  160.7065  145.7319  183.7749 O   0  0  0  0  0  0  0  0  0  0  0  0
 25 26  1  0  0  0
 26 27  1  0  0  0
 27 28  2  0  0  0
 28 29  1  0  0  0
 29 30  2  0  0  0
 30 31  1  0  0  0
 31 24  1  0  0  0
 24  1  1  0  0  0
  1  2  2  0  0  0
  1  3  1  0  0  0
  3  5  1  0  0  0
  5  6  2  0  0  0
  6  7  1  0  0  0
  7  8  2  0  0  0
  8  9  1  0  0  0
  7 10  1  0  0  0
 10 11  2  0  0  0
 11 12  1  0  0  0
 12 13  1  0  0  0
 12 14  2  0  0  0
 14 18  1  0  0  0
 18 19  1  0  0  0
 19 20  1  0  0  0
 20 21  1  0  0  0
 20 22  1  0  0  0
 20 23  1  0  0  0
 14 15  1  0  0  0
 15 16  1  0  0  0
 15 17  2  0  0  0
 31 32  2  0  0  0
 32 33  1  0  0  0
 33 34  2  0  0  0
 33 35  1  0  0  0
 35 36  1  0  0  0
 35 37  1  0  0  0
 37 38  2  0  0  0
 37 26  1  0  0  0
 32 27  1  0  0  0
  9  5  1  0  0  0
 17 10  1  0  0  0
  3  4  1  0  0  0
M  END
> <minimizedAffinity>
-8.50871

> <CNNscore>
0.2338867337

> <CNNaffinity>
6.5879797935

> <CNN_VS>
1.5408411026

> <CNNaffinity_variance>
0.0757220387

$$$$
[H]c1nc2c(c(C([H])([H])C(=O)N([H])c3nc(-c4c([H])c(F)c(OC([H])([H])C(F)(F)F)c(F)c4[H])c([H])s3)c1[H])c(=O)n(C([H])([H])[H])c(=O)n2C([H])([H])[H]


 38 41  0  0  0  0  0  0  0  0999 V2000
  152.0128  137.4645  182.2272 C   0  0  0  0  0  0  0  0  0  0  0  0
  151.8887  137.8720  181.0561 O   0  0  0  0  0  0  0  0  0  0  0  0
  152.7537  138.1699  183.1743 N   0  0  0  0  0  0  0  0  0  0  0  0
  152.8713  137.8486  184.1567 H   0  0  0  0  0  0  0  0  0  0  0  0
  153.4106  139.4182  182.8536 C   0  0  0  0  0  0  0  0  0  0  0  0
  154.6477  139.7706  183.1510 N   0  0  0  0  0  0  0  0  0  0  0  0
  155.0888  140.9362  182.7868 C   0  0  0  0  0  0  0  0  0  0  0  0
  154.2208  141.7497  182.0987 C   0  0  0  0  0  0  0  0  0  0  0  0
  152.8195  140.7778  182.0215 S   0  0  0  0  0  0  0  0  0  0  0  0
  156.4821  141.3743  183.0949 C   0  0  0  0  0  0  0  0  0  0  0  0
  156.9996  142.5400  182.5820 C   0  0  0  0  0  0  0  0  0  0  0  0
  158.2952  142.9261  182.8731 C   0  0  0  0  0  0  0  0  0  0  0  0
  158.7635  144.0830  182.3468 F   0  0  0  0  0  0  0  0  0  0  0  0
  159.1107  142.1681  183.6795 C   0  0  0  0  0  0  0  0  0  0  0  0
  158.5881  140.9998  184.1924 C   0  0  0  0  0  0  0  0  0  0  0  0
  159.3503  140.2171  184.9936 F   0  0  0  0  0  0  0  0  0  0  0  0
  157.2838  140.6169  183.8955 C   0  0  0  0  0  0  0  0  0  0  0  0
  160.4021  142.5758  183.9571 O   0  0  0  0  0  0  0  0  0  0  0  0
  160.6963  143.6504  184.8329 C   0  0  0  0  0  0  0  0  0  0  0  0
  161.3690  143.1003  186.0532 C   0  0  0  0  0  0  0  0  0  0  0  0
  160.4690  142.3357  186.7829 F   0  0  0  0  0  0  0  0  0  0  0  0
  162.3955  142.2579  185.6714 F   0  0  0  0  0  0  0  0  0  0  0  0
  161.8867  144.1065  186.8522 F   0  0  0  0  0  0  0  0  0  0  0  0
  151.3562  136.2009  182.6251 C   0  0  0  0  0  0  0  0  0  0  0  0
  147.6747  133.1714  178.6532 C   0  0  0  0  0  0  0  0  0  0  0  0
  148.8983  133.4501  179.4117 N   0  0  0  0  0  0  0  0  0  0  0  0
  148.9141  134.5014  180.2528 C   0  0  0  0  0  0  0  0  0  0  0  0
  147.8196  135.2844  180.4164 N   0  0  0  0  0  0  0  0  0  0  0  0
  147.8734  136.2989  181.2667 C   0  0  0  0  0  0  0  0  0  0  0  0
  149.0055  136.5584  181.9685 C   0  0  0  0  0  0  0  0  0  0  0  0
  150.1916  135.8040  181.8665 C   0  0  0  0  0  0  0  0  0  0  0  0
  150.0931  134.7522  180.9686 C   0  0  0  0  0  0  0  0  0  0  0  0
  151.1617  133.9298  180.7866 C   0  0  0  0  0  0  0  0  0  0  0  0
  152.2221  134.1278  181.4132 O   0  0  0  0  0  0  0  0  0  0  0  0
  151.1137  132.8884  179.9393 N   0  0  0  0  0  0  0  0  0  0  0  0
  152.2736  132.0572  179.7921 C   0  0  0  0  0  0  0  0  0  0  0  0
  149.9780  132.6658  179.2636 C   0  0  0  0  0  0  0  0  0  0  0  0
  149.8991  131.6973  178.4600 O   0  0  0  0  0  0  0  0  0  0  0  0
 25 26  1  0  0  0
 26 27  1  0  0  0
 27 28  2  0  0  0
 28 29  1  0  0  0
 29 30  2  0  0  0
 30 31  1  0  0  0
 31 24  1  0  0  0
 24  1  1  0  0  0
  1  2  2  0  0  0
  1  3  1  0  0  0
  3  5  1  0  0  0
  5  6  2  0  0  0
  6  7  1  0  0  0
  7  8  2  0  0  0
  8  9  1  0  0  0
  7 10  1  0  0  0
 10 11  2  0  0  0
 11 12  1  0  0  0
 12 13  1  0  0  0
 12 14  2  0  0  0
 14 18  1  0  0  0
 18 19  1  0  0  0
 19 20  1  0  0  0
 20 21  1  0  0  0
 20 22  1  0  0  0
 20 23  1  0  0  0
 14 15  1  0  0  0
 15 16  1  0  0  0
 15 17  2  0  0  0
 31 32  2  0  0  0
 32 33  1  0  0  0
 33 34  2  0  0  0
 33 35  1  0  0  0
 35 36  1  0  0  0
 35 37  1  0  0  0
 37 38  2  0  0  0
 37 26  1  0  0  0
 32 27  1  0  0  0
  9  5  1  0  0  0
 17 10  1  0  0  0
  3  4  1  0  0  0
M  END
> <minimizedAffinity>
-7.37898

> <CNNscore>
0.2223947197

> <CNNaffinity>
6.4162054062

> <CNN_VS>
1.4269301891

> <CNNaffinity_variance>
0.3065164685

$$$$
[H]c1nc2c(c(C([H])([H])C(=O)N([H])c3nc(-c4c([H])c(F)c(OC([H])([H])C(F)(F)F)c(F)c4[H])c([H])s3)c1[H])c(=O)n(C([H])([H])[H])c(=O)n2C([H])([H])[H]


 38 41  0  0  0  0  0  0  0  0999 V2000
  153.4581  136.1852  186.2908 C   0  0  0  0  0  0  0  0  0  0  0  0
  154.3040  135.6206  185.5706 O   0  0  0  0  0  0  0  0  0  0  0  0
  153.0301  137.4873  186.0360 N   0  0  0  0  0  0  0  0  0  0  0  0
  152.3261  137.9783  186.6237 H   0  0  0  0  0  0  0  0  0  0  0  0
  153.5359  138.2513  184.9165 C   0  0  0  0  0  0  0  0  0  0  0  0
  154.6648  138.9333  184.8582 N   0  0  0  0  0  0  0  0  0  0  0  0
  154.9756  139.5693  183.7697 C   0  0  0  0  0  0  0  0  0  0  0  0
  154.0900  139.4917  182.7218 C   0  0  0  0  0  0  0  0  0  0  0  0
  152.8616  138.5033  183.3763 S   0  0  0  0  0  0  0  0  0  0  0  0
  156.2445  140.3473  183.6560 C   0  0  0  0  0  0  0  0  0  0  0  0
  157.4647  139.7776  183.9326 C   0  0  0  0  0  0  0  0  0  0  0  0
  158.6291  140.5162  183.8283 C   0  0  0  0  0  0  0  0  0  0  0  0
  159.8093  139.9139  184.1094 F   0  0  0  0  0  0  0  0  0  0  0  0
  158.6148  141.8371  183.4474 C   0  0  0  0  0  0  0  0  0  0  0  0
  157.3893  142.4048  183.1704 C   0  0  0  0  0  0  0  0  0  0  0  0
  157.3204  143.7033  182.7898 F   0  0  0  0  0  0  0  0  0  0  0  0
  156.2213  141.6562  183.2775 C   0  0  0  0  0  0  0  0  0  0  0  0
  159.7925  142.5543  183.3491 O   0  0  0  0  0  0  0  0  0  0  0  0
  160.2367  143.4430  184.3596 C   0  0  0  0  0  0  0  0  0  0  0  0
  161.1776  142.7057  185.2627 C   0  0  0  0  0  0  0  0  0  0  0  0
  160.4576  141.9311  186.1618 F   0  0  0  0  0  0  0  0  0  0  0  0
  161.9493  141.8390  184.5130 F   0  0  0  0  0  0  0  0  0  0  0  0
  162.0125  143.5705  185.9510 F   0  0  0  0  0  0  0  0  0  0  0  0
  152.8910  135.4560  187.4453 C   0  0  0  0  0  0  0  0  0  0  0  0
  152.0926  137.2698  193.3258 C   0  0  0  0  0  0  0  0  0  0  0  0
  151.7416  136.6319  192.0529 N   0  0  0  0  0  0  0  0  0  0  0  0
  152.6365  136.6566  191.0471 C   0  0  0  0  0  0  0  0  0  0  0  0
  153.8491  137.2424  191.2024 N   0  0  0  0  0  0  0  0  0  0  0  0
  154.7060  137.2295  190.1921 C   0  0  0  0  0  0  0  0  0  0  0  0
  154.3819  136.6403  189.0133 C   0  0  0  0  0  0  0  0  0  0  0  0
  153.1489  136.0080  188.7560 C   0  0  0  0  0  0  0  0  0  0  0  0
  152.2825  136.0421  189.8378 C   0  0  0  0  0  0  0  0  0  0  0  0
  151.0618  135.4506  189.7322 C   0  0  0  0  0  0  0  0  0  0  0  0
  150.7224  134.8935  188.6688 O   0  0  0  0  0  0  0  0  0  0  0  0
  150.1910  135.4431  190.7551 N   0  0  0  0  0  0  0  0  0  0  0  0
  148.9196  134.8017  190.5818 C   0  0  0  0  0  0  0  0  0  0  0  0
  150.5475  136.0366  191.9025 C   0  0  0  0  0  0  0  0  0  0  0  0
  149.7539  136.0482  192.8823 O   0  0  0  0  0  0  0  0  0  0  0  0
 25 26  1  0  0  0
 26 27  1  0  0  0
 27 28  2  0  0  0
 28 29  1  0  0  0
 29 30  2  0  0  0
 30 31  1  0  0  0
 31 24  1  0  0  0
 24  1  1  0  0  0
  1  2  2  0  0  0
  1  3  1  0  0  0
  3  5  1  0  0  0
  5  6  2  0  0  0
  6  7  1  0  0  0
  7  8  2  0  0  0
  8  9  1  0  0  0
  7 10  1  0  0  0
 10 11  2  0  0  0
 11 12  1  0  0  0
 12 13  1  0  0  0
 12 14  2  0  0  0
 14 18  1  0  0  0
 18 19  1  0  0  0
 19 20  1  0  0  0
 20 21  1  0  0  0
 20 22  1  0  0  0
 20 23  1  0  0  0
 14 15  1  0  0  0
 15 16  1  0  0  0
 15 17  2  0  0  0
 31 32  2  0  0  0
 32 33  1  0  0  0
 33 34  2  0  0  0
 33 35  1  0  0  0
 35 36  1  0  0  0
 35 37  1  0  0  0
 37 38  2  0  0  0
 37 26  1  0  0  0
 32 27  1  0  0  0
  9  5  1  0  0  0
 17 10  1  0  0  0
  3  4  1  0  0  0
M  END
> <minimizedAffinity>
-8.27740

> <CNNscore>
0.2194303274

> <CNNaffinity>
6.5550127029

> <CNN_VS>
1.4383685589

> <CNNaffinity_variance>
0.1153116226

$$$$
[H]c1nc2c(c(C([H])([H])C(=O)N([H])c3nc(-c4c([H])c(F)c(OC([H])([H])C(F)(F)F)c(F)c4[H])c([H])s3)c1[H])c(=O)n(C([H])([H])[H])c(=O)n2C([H])([H])[H]


 38 41  0  0  0  0  0  0  0  0999 V2000
  157.8418  139.5426  183.8852 C   0  0  0  0  0  0  0  0  0  0  0  0
  158.1075  139.3806  185.0919 O   0  0  0  0  0  0  0  0  0  0  0  0
  156.5425  139.4127  183.3967 N   0  0  0  0  0  0  0  0  0  0  0  0
  156.2977  139.5426  182.3940 H   0  0  0  0  0  0  0  0  0  0  0  0
  155.4298  139.0931  184.2641 C   0  0  0  0  0  0  0  0  0  0  0  0
  155.4840  138.7063  185.5253 N   0  0  0  0  0  0  0  0  0  0  0  0
  154.3841  138.4576  186.1688 C   0  0  0  0  0  0  0  0  0  0  0  0
  153.2045  138.6156  185.4817 C   0  0  0  0  0  0  0  0  0  0  0  0
  153.7598  139.1141  183.9463 S   0  0  0  0  0  0  0  0  0  0  0  0
  154.3968  138.0246  187.5973 C   0  0  0  0  0  0  0  0  0  0  0  0
  155.5614  137.9855  188.3266 C   0  0  0  0  0  0  0  0  0  0  0  0
  155.5547  137.5751  189.6471 C   0  0  0  0  0  0  0  0  0  0  0  0
  156.7255  137.5530  190.3280 F   0  0  0  0  0  0  0  0  0  0  0  0
  154.3948  137.1934  190.2788 C   0  0  0  0  0  0  0  0  0  0  0  0
  153.2287  137.2344  189.5443 C   0  0  0  0  0  0  0  0  0  0  0  0
  152.0580  136.8694  190.1204 F   0  0  0  0  0  0  0  0  0  0  0  0
  153.2424  137.6482  188.2159 C   0  0  0  0  0  0  0  0  0  0  0  0
  154.4133  136.7881  191.6003 O   0  0  0  0  0  0  0  0  0  0  0  0
  153.9922  135.4998  192.0142 C   0  0  0  0  0  0  0  0  0  0  0  0
  154.9257  134.4833  191.4315 C   0  0  0  0  0  0  0  0  0  0  0  0
  154.6941  133.2438  192.0118 F   0  0  0  0  0  0  0  0  0  0  0  0
  154.6723  134.3484  190.0800 F   0  0  0  0  0  0  0  0  0  0  0  0
  156.2518  134.8436  191.6065 F   0  0  0  0  0  0  0  0  0  0  0  0
  158.9314  139.8834  182.9456 C   0  0  0  0  0  0  0  0  0  0  0  0
  159.2363  145.9108  181.5015 C   0  0  0  0  0  0  0  0  0  0  0  0
  159.4711  144.7026  182.2986 N   0  0  0  0  0  0  0  0  0  0  0  0
  159.0023  143.5250  181.8439 C   0  0  0  0  0  0  0  0  0  0  0  0
  158.3393  143.4431  180.6645 N   0  0  0  0  0  0  0  0  0  0  0  0
  157.9094  142.2617  180.2466 C   0  0  0  0  0  0  0  0  0  0  0  0
  158.1253  141.1430  180.9839 C   0  0  0  0  0  0  0  0  0  0  0  0
  158.8018  141.1269  182.2201 C   0  0  0  0  0  0  0  0  0  0  0  0
  159.2361  142.3813  182.6202 C   0  0  0  0  0  0  0  0  0  0  0  0
  159.9217  142.5072  183.7887 C   0  0  0  0  0  0  0  0  0  0  0  0
  160.1467  141.5054  184.4974 O   0  0  0  0  0  0  0  0  0  0  0  0
  160.3765  143.6973  184.2147 N   0  0  0  0  0  0  0  0  0  0  0  0
  161.0939  143.7646  185.4552 C   0  0  0  0  0  0  0  0  0  0  0  0
  160.1421  144.7789  183.4590 C   0  0  0  0  0  0  0  0  0  0  0  0
  160.5548  145.9114  183.8296 O   0  0  0  0  0  0  0  0  0  0  0  0
 25 26  1  0  0  0
 26 27  1  0  0  0
 27 28  2  0  0  0
 28 29  1  0  0  0
 29 30  2  0  0  0
 30 31  1  0  0  0
 31 24  1  0  0  0
 24  1  1  0  0  0
  1  2  2  0  0  0
  1  3  1  0  0  0
  3  5  1  0  0  0
  5  6  2  0  0  0
  6  7  1  0  0  0
  7  8  2  0  0  0
  8  9  1  0  0  0
  7 10  1  0  0  0
 10 11  2  0  0  0
 11 12  1  0  0  0
 12 13  1  0  0  0
 12 14  2  0  0  0
 14 18  1  0  0  0
 18 19  1  0  0  0
 19 20  1  0  0  0
 20 21  1  0  0  0
 20 22  1  0  0  0
 20 23  1  0  0  0
 14 15  1  0  0  0
 15 16  1  0  0  0
 15 17  2  0  0  0
 31 32  2  0  0  0
 32 33  1  0  0  0
 33 34  2  0  0  0
 33 35  1  0  0  0
 35 36  1  0  0  0
 35 37  1  0  0  0
 37 38  2  0  0  0
 37 26  1  0  0  0
 32 27  1  0  0  0
  9  5  1  0  0  0
 17 10  1  0  0  0
  3  4  1  0  0  0
M  END
> <minimizedAffinity>
-7.90210

> <CNNscore>
0.2033526301

> <CNNaffinity>
6.6942138672

> <CNN_VS>
1.3612860441

> <CNNaffinity_variance>
0.0596662834

$$$$
[H]c1nc2c(c(C([H])([H])C(=O)N([H])c3nc(-c4c([H])c(F)c(OC([H])([H])C(F)(F)F)c(F)c4[H])c([H])s3)c1[H])c(=O)n(C([H])([H])[H])c(=O)n2C([H])([H])[H]


 38 41  0  0  0  0  0  0  0  0999 V2000
  153.2802  136.8134  186.5024 C   0  0  0  0  0  0  0  0  0  0  0  0
  153.2556  137.9037  187.1054 O   0  0  0  0  0  0  0  0  0  0  0  0
  153.5875  136.7332  185.1449 N   0  0  0  0  0  0  0  0  0  0  0  0
  153.6133  135.8347  184.6212 H   0  0  0  0  0  0  0  0  0  0  0  0
  153.9048  137.9087  184.3638 C   0  0  0  0  0  0  0  0  0  0  0  0
  155.0390  138.5845  184.3600 N   0  0  0  0  0  0  0  0  0  0  0  0
  155.1640  139.6253  183.5939 C   0  0  0  0  0  0  0  0  0  0  0  0
  154.0833  139.9672  182.8169 C   0  0  0  0  0  0  0  0  0  0  0  0
  152.9524  138.7615  183.2430 S   0  0  0  0  0  0  0  0  0  0  0  0
  156.4298  140.4153  183.5517 C   0  0  0  0  0  0  0  0  0  0  0  0
  157.6408  139.8513  183.8758 C   0  0  0  0  0  0  0  0  0  0  0  0
  158.8022  140.6008  183.8375 C   0  0  0  0  0  0  0  0  0  0  0  0
  159.9735  140.0038  184.1638 F   0  0  0  0  0  0  0  0  0  0  0  0
  158.7939  141.9276  183.4771 C   0  0  0  0  0  0  0  0  0  0  0  0
  157.5776  142.4897  183.1523 C   0  0  0  0  0  0  0  0  0  0  0  0
  157.5150  143.7935  182.7894 F   0  0  0  0  0  0  0  0  0  0  0  0
  156.4126  141.7299  183.1931 C   0  0  0  0  0  0  0  0  0  0  0  0
  159.9685  142.6558  183.4451 O   0  0  0  0  0  0  0  0  0  0  0  0
  160.3429  143.5545  184.4749 C   0  0  0  0  0  0  0  0  0  0  0  0
  161.2152  142.8250  185.4502 C   0  0  0  0  0  0  0  0  0  0  0  0
  161.8884  143.7357  186.2528 F   0  0  0  0  0  0  0  0  0  0  0  0
  160.4273  142.0575  186.2863 F   0  0  0  0  0  0  0  0  0  0  0  0
  162.1256  142.0011  184.8089 F   0  0  0  0  0  0  0  0  0  0  0  0
  152.9776  135.5710  187.2447 C   0  0  0  0  0  0  0  0  0  0  0  0
  150.2337  135.8262  192.8047 C   0  0  0  0  0  0  0  0  0  0  0  0
  151.3481  135.7980  191.8520 N   0  0  0  0  0  0  0  0  0  0  0  0
  151.0736  135.7326  190.5354 C   0  0  0  0  0  0  0  0  0  0  0  0
  149.7948  135.7101  190.0865 N   0  0  0  0  0  0  0  0  0  0  0  0
  149.5697  135.6621  188.7818 C   0  0  0  0  0  0  0  0  0  0  0  0
  150.6002  135.6350  187.8992 C   0  0  0  0  0  0  0  0  0  0  0  0
  151.9603  135.6541  188.2681 C   0  0  0  0  0  0  0  0  0  0  0  0
  152.1523  135.7060  189.6402 C   0  0  0  0  0  0  0  0  0  0  0  0
  153.4193  135.7484  190.1342 C   0  0  0  0  0  0  0  0  0  0  0  0
  154.3975  135.7294  189.3601 O   0  0  0  0  0  0  0  0  0  0  0  0
  153.6597  135.8135  191.4543 N   0  0  0  0  0  0  0  0  0  0  0  0
  155.0182  135.8570  191.9129 C   0  0  0  0  0  0  0  0  0  0  0  0
  152.6154  135.8371  192.2938 C   0  0  0  0  0  0  0  0  0  0  0  0
  152.8055  135.8977  193.5389 O   0  0  0  0  0  0  0  0  0  0  0  0
 25 26  1  0  0  0
 26 27  1  0  0  0
 27 28  2  0  0  0
 28 29  1  0  0  0
 29 30  2  0  0  0
 30 31  1  0  0  0
 31 24  1  0  0  0
 24  1  1  0  0  0
  1  2  2  0  0  0
  1  3  1  0  0  0
  3  5  1  0  0  0
  5  6  2  0  0  0
  6  7  1  0  0  0
  7  8  2  0  0  0
  8  9  1  0  0  0
  7 10  1  0  0  0
 10 11  2  0  0  0
 11 12  1  0  0  0
 12 13  1  0  0  0
 12 14  2  0  0  0
 14 18  1  0  0  0
 18 19  1  0  0  0
 19 20  1  0  0  0
 20 21  1  0  0  0
 20 22  1  0  0  0
 20 23  1  0  0  0
 14 15  1  0  0  0
 15 16  1  0  0  0
 15 17  2  0  0  0
 31 32  2  0  0  0
 32 33  1  0  0  0
 33 34  2  0  0  0
 33 35  1  0  0  0
 35 36  1  0  0  0
 35 37  1  0  0  0
 37 38  2  0  0  0
 37 26  1  0  0  0
 32 27  1  0  0  0
  9  5  1  0  0  0
 17 10  1  0  0  0
  3  4  1  0  0  0
M  END
> <minimizedAffinity>
-8.04962

> <CNNscore>
0.2026402354

> <CNNaffinity>
6.3581347466

> <CNN_VS>
1.2884138823

> <CNNaffinity_variance>
0.1364794075

$$$$
[H]c1nc2c(c(C([H])([H])C(=O)N([H])c3nc(-c4c([H])c(F)c(OC([H])([H])C(F)(F)F)c(F)c4[H])c([H])s3)c1[H])c(=O)n(C([H])([H])[H])c(=O)n2C([H])([H])[H]


 38 41  0  0  0  0  0  0  0  0999 V2000
  155.0720  138.6434  186.0753 C   0  0  0  0  0  0  0  0  0  0  0  0
  154.0047  139.1342  186.4910 O   0  0  0  0  0  0  0  0  0  0  0  0
  155.9464  137.9651  186.9232 N   0  0  0  0  0  0  0  0  0  0  0  0
  156.8425  137.5482  186.5985 H   0  0  0  0  0  0  0  0  0  0  0  0
  155.6589  137.7844  188.3294 C   0  0  0  0  0  0  0  0  0  0  0  0
  154.5129  137.4142  188.8704 N   0  0  0  0  0  0  0  0  0  0  0  0
  154.4196  137.2968  190.1602 C   0  0  0  0  0  0  0  0  0  0  0  0
  155.5451  137.5716  190.8993 C   0  0  0  0  0  0  0  0  0  0  0  0
  156.6692  137.9835  189.6822 S   0  0  0  0  0  0  0  0  0  0  0  0
  153.1465  136.8743  190.8150 C   0  0  0  0  0  0  0  0  0  0  0  0
  152.9573  137.0041  192.1704 C   0  0  0  0  0  0  0  0  0  0  0  0
  151.7735  136.6008  192.7604 C   0  0  0  0  0  0  0  0  0  0  0  0
  151.6300  136.7482  194.0992 F   0  0  0  0  0  0  0  0  0  0  0  0
  150.7471  136.0592  192.0232 C   0  0  0  0  0  0  0  0  0  0  0  0
  150.9403  135.9311  190.6641 C   0  0  0  0  0  0  0  0  0  0  0  0
  149.9593  135.4043  189.8923 F   0  0  0  0  0  0  0  0  0  0  0  0
  152.1340  136.3387  190.0767 C   0  0  0  0  0  0  0  0  0  0  0  0
  149.5723  135.6647  192.6357 O   0  0  0  0  0  0  0  0  0  0  0  0
  149.5165  134.6129  193.5838 C   0  0  0  0  0  0  0  0  0  0  0  0
  148.8038  133.4500  192.9643 C   0  0  0  0  0  0  0  0  0  0  0  0
  149.2546  132.2654  193.5302 F   0  0  0  0  0  0  0  0  0  0  0  0
  147.4530  133.5392  193.2403 F   0  0  0  0  0  0  0  0  0  0  0  0
  148.9804  133.4116  191.5909 F   0  0  0  0  0  0  0  0  0  0  0  0
  155.4212  138.7814  184.6452 C   0  0  0  0  0  0  0  0  0  0  0  0
  158.5490  143.6992  182.5146 C   0  0  0  0  0  0  0  0  0  0  0  0
  157.3705  142.8921  182.8462 N   0  0  0  0  0  0  0  0  0  0  0  0
  157.5509  141.6846  183.4141 C   0  0  0  0  0  0  0  0  0  0  0  0
  158.7933  141.2206  183.6943 N   0  0  0  0  0  0  0  0  0  0  0  0
  158.9246  140.0339  184.2684 C   0  0  0  0  0  0  0  0  0  0  0  0
  157.8347  139.2857  184.5750 C   0  0  0  0  0  0  0  0  0  0  0  0
  156.5057  139.6809  184.3224 C   0  0  0  0  0  0  0  0  0  0  0  0
  156.4121  140.9276  183.7232 C   0  0  0  0  0  0  0  0  0  0  0  0
  155.1838  141.4401  183.4407 C   0  0  0  0  0  0  0  0  0  0  0  0
  154.1536  140.7893  183.7083 O   0  0  0  0  0  0  0  0  0  0  0  0
  155.0377  142.6491  182.8735 N   0  0  0  0  0  0  0  0  0  0  0  0
  153.7156  143.1348  182.6015 C   0  0  0  0  0  0  0  0  0  0  0  0
  156.1383  143.3570  182.5848 C   0  0  0  0  0  0  0  0  0  0  0  0
  156.0370  144.4952  182.0517 O   0  0  0  0  0  0  0  0  0  0  0  0
 25 26  1  0  0  0
 26 27  1  0  0  0
 27 28  2  0  0  0
 28 29  1  0  0  0
 29 30  2  0  0  0
 30 31  1  0  0  0
 31 24  1  0  0  0
 24  1  1  0  0  0
  1  2  2  0  0  0
  1  3  1  0  0  0
  3  5  1  0  0  0
  5  6  2  0  0  0
  6  7  1  0  0  0
  7  8  2  0  0  0
  8  9  1  0  0  0
  7 10  1  0  0  0
 10 11  2  0  0  0
 11 12  1  0  0  0
 12 13  1  0  0  0
 12 14  2  0  0  0
 14 18  1  0  0  0
 18 19  1  0  0  0
 19 20  1  0  0  0
 20 21  1  0  0  0
 20 22  1  0  0  0
 20 23  1  0  0  0
 14 15  1  0  0  0
 15 16  1  0  0  0
 15 17  2  0  0  0
 31 32  2  0  0  0
 32 33  1  0  0  0
 33 34  2  0  0  0
 33 35  1  0  0  0
 35 36  1  0  0  0
 35 37  1  0  0  0
 37 38  2  0  0  0
 37 26  1  0  0  0
 32 27  1  0  0  0
  9  5  1  0  0  0
 17 10  1  0  0  0
  3  4  1  0  0  0
M  END
> <minimizedAffinity>
-8.01657

> <CNNscore>
0.1975224614

> <CNNaffinity>
6.3383989334

> <CNN_VS>
1.2519761324

> <CNNaffinity_variance>
0.0561453328

$$$$
[H]c1nc(C(F)(F)F)c(C([H])([H])[H])c([H])c1-c1nc(N([H])C(=O)[C@@]([H])(n2c([H])nc3c2c(=O)n(C([H])([H])C(=O)C([H])([H])[H])c(=O)n3C([H])([H])[H])C([H])([H])[H])c([H])s1


 38 41  0  0  0  0  0  0  0  0999 V2000
  154.8185  136.3958  188.7793 C   0  0  0  0  0  0  0  0  0  0  0  0
  155.0904  135.3594  189.5325 O   0  0  0  0  0  0  0  0  0  0  0  0
  155.2545  136.2598  187.4637 N   0  0  0  0  0  0  0  0  0  0  0  0
  155.7622  135.3592  187.1824 H   0  0  0  0  0  0  0  0  0  0  0  0
  155.0431  137.2324  186.4281 C   0  0  0  0  0  0  0  0  0  0  0  0
  155.9429  138.2831  186.2404 C   0  0  0  0  0  0  0  0  0  0  0  0
  155.2508  139.0970  184.9099 S   0  0  0  0  0  0  0  0  0  0  0  0
  153.8984  138.0973  184.6650 C   0  0  0  0  0  0  0  0  0  0  0  0
  154.0462  137.1973  185.6096 N   0  0  0  0  0  0  0  0  0  0  0  0
  152.8165  138.1864  183.6585 C   0  0  0  0  0  0  0  0  0  0  0  0
  151.7470  137.3368  183.6835 C   0  0  0  0  0  0  0  0  0  0  0  0
  150.7865  137.4575  182.7428 N   0  0  0  0  0  0  0  0  0  0  0  0
  150.8477  138.4028  181.7638 C   0  0  0  0  0  0  0  0  0  0  0  0
  151.9261  139.2596  181.7383 C   0  0  0  0  0  0  0  0  0  0  0  0
  152.0594  140.3182  180.7008 C   0  0  0  0  0  0  0  0  0  0  0  0
  152.9150  139.1501  182.6908 C   0  0  0  0  0  0  0  0  0  0  0  0
  149.7612  138.4967  180.7434 C   0  0  0  0  0  0  0  0  0  0  0  0
  148.9424  137.3870  180.8733 F   0  0  0  0  0  0  0  0  0  0  0  0
  150.2832  138.4310  179.4521 F   0  0  0  0  0  0  0  0  0  0  0  0
  148.9860  139.6250  180.9020 F   0  0  0  0  0  0  0  0  0  0  0  0
  155.1410  138.4416  190.0856 C   0  0  0  0  0  0  0  0  0  0  0  0
  154.1148  137.5335  189.4028 C   0  0  0  0  0  0  0  0  0  0  0  0
  153.2054  136.9753  190.4053 N   0  0  0  0  0  0  0  0  0  0  0  0
  153.4523  136.9308  191.7381 C   0  0  0  0  0  0  0  0  0  0  0  0
  152.4062  136.3556  192.3495 N   0  0  0  0  0  0  0  0  0  0  0  0
  151.5127  136.0447  191.3891 C   0  0  0  0  0  0  0  0  0  0  0  0
  150.2923  135.4559  191.4115 N   0  0  0  0  0  0  0  0  0  0  0  0
  149.8117  135.0640  192.7440 C   0  0  0  0  0  0  0  0  0  0  0  0
  149.5645  135.2406  190.3019 C   0  0  0  0  0  0  0  0  0  0  0  0
  148.4317  134.6799  190.4398 O   0  0  0  0  0  0  0  0  0  0  0  0
  150.0067  135.6004  189.0831 N   0  0  0  0  0  0  0  0  0  0  0  0
  151.2316  136.1945  189.0350 C   0  0  0  0  0  0  0  0  0  0  0  0
  151.6511  136.5322  187.9007 O   0  0  0  0  0  0  0  0  0  0  0  0
  152.0078  136.4334  190.1425 C   0  0  0  0  0  0  0  0  0  0  0  0
  149.2240  135.3718  187.8859 C   0  0  0  0  0  0  0  0  0  0  0  0
  148.4271  136.5329  187.4713 C   0  0  0  0  0  0  0  0  0  0  0  0
  148.6823  137.1517  186.1526 C   0  0  0  0  0  0  0  0  0  0  0  0
  147.5732  136.9809  188.1938 O   0  0  0  0  0  0  0  0  0  0  0  0
 21 22  1  0  0  0
 22  1  1  0  0  0
  1  2  2  0  0  0
  1  3  1  0  0  0
  3  5  1  0  0  0
  5  6  2  0  0  0
  6  7  1  0  0  0
  7  8  1  0  0  0
  8  9  2  0  0  0
  8 10  1  0  0  0
 10 11  2  0  0  0
 11 12  1  0  0  0
 12 13  2  0  0  0
 13 14  1  0  0  0
 14 15  1  0  0  0
 14 16  2  0  0  0
 13 17  1  0  0  0
 17 18  1  0  0  0
 17 19  1  0  0  0
 17 20  1  0  0  0
 22 23  1  0  0  0
 23 24  1  0  0  0
 24 25  2  0  0  0
 25 26  1  0  0  0
 26 27  1  0  0  0
 27 28  1  0  0  0
 27 29  1  0  0  0
 29 30  2  0  0  0
 29 31  1  0  0  0
 31 35  1  0  0  0
 35 36  1  0  0  0
 36 37  1  0  0  0
 36 38  2  0  0  0
 31 32  1  0  0  0
 32 33  2  0  0  0
 32 34  1  0  0  0
  9  5  1  0  0  0
 16 10  1  0  0  0
 34 23  1  0  0  0
 34 26  2  0  0  0
  3  4  1  0  0  0
M  END
> <minimizedAffinity>
-6.55693

> <CNNscore>
0.4798476100

> <CNNaffinity>
6.2696366310

> <CNN_VS>
3.0084700584

> <CNNaffinity_variance>
0.2673428655

$$$$
[H]c1nc(C(F)(F)F)c(C([H])([H])[H])c([H])c1-c1nc(N([H])C(=O)[C@@]([H])(n2c([H])nc3c2c(=O)n(C([H])([H])C(=O)C([H])([H])[H])c(=O)n3C([H])([H])[H])C([H])([H])[H])c([H])s1


 38 41  0  0  0  0  0  0  0  0999 V2000
  153.4180  136.5915  186.0730 C   0  0  0  0  0  0  0  0  0  0  0  0
  153.7248  135.4728  186.6809 O   0  0  0  0  0  0  0  0  0  0  0  0
  154.1754  136.8314  184.9292 N   0  0  0  0  0  0  0  0  0  0  0  0
  154.9227  136.1161  184.6498 H   0  0  0  0  0  0  0  0  0  0  0  0
  154.0076  137.9628  184.0605 C   0  0  0  0  0  0  0  0  0  0  0  0
  152.8469  138.1134  183.2996 C   0  0  0  0  0  0  0  0  0  0  0  0
  153.1497  139.5880  182.4961 S   0  0  0  0  0  0  0  0  0  0  0  0
  154.6833  139.9300  183.1435 C   0  0  0  0  0  0  0  0  0  0  0  0
  154.8829  138.9029  183.9368 N   0  0  0  0  0  0  0  0  0  0  0  0
  155.5866  141.0773  182.9008 C   0  0  0  0  0  0  0  0  0  0  0  0
  155.1587  142.3662  183.0488 C   0  0  0  0  0  0  0  0  0  0  0  0
  156.0205  143.3784  182.8147 N   0  0  0  0  0  0  0  0  0  0  0  0
  157.3096  143.1573  182.4336 C   0  0  0  0  0  0  0  0  0  0  0  0
  157.7413  141.8577  182.2841 C   0  0  0  0  0  0  0  0  0  0  0  0
  159.1357  141.5394  181.8730 C   0  0  0  0  0  0  0  0  0  0  0  0
  156.8748  140.8131  182.5191 C   0  0  0  0  0  0  0  0  0  0  0  0
  158.2258  144.3101  182.1843 C   0  0  0  0  0  0  0  0  0  0  0  0
  159.2708  144.2421  183.0910 F   0  0  0  0  0  0  0  0  0  0  0  0
  157.5837  145.5212  182.4392 F   0  0  0  0  0  0  0  0  0  0  0  0
  158.7571  144.2950  180.9128 F   0  0  0  0  0  0  0  0  0  0  0  0
  152.9426  138.7733  187.0777 C   0  0  0  0  0  0  0  0  0  0  0  0
  152.3509  137.4240  186.6615 C   0  0  0  0  0  0  0  0  0  0  0  0
  151.8597  136.7146  187.8445 N   0  0  0  0  0  0  0  0  0  0  0  0
  150.7032  136.0087  187.9016 C   0  0  0  0  0  0  0  0  0  0  0  0
  150.5739  135.4957  189.1342 N   0  0  0  0  0  0  0  0  0  0  0  0
  151.6548  135.8879  189.8378 C   0  0  0  0  0  0  0  0  0  0  0  0
  152.0584  135.6774  191.1143 N   0  0  0  0  0  0  0  0  0  0  0  0
  151.1542  134.8524  191.9279 C   0  0  0  0  0  0  0  0  0  0  0  0
  153.2011  136.1814  191.6118 C   0  0  0  0  0  0  0  0  0  0  0  0
  153.4817  135.9204  192.8241 O   0  0  0  0  0  0  0  0  0  0  0  0
  154.0273  136.9364  190.8648 N   0  0  0  0  0  0  0  0  0  0  0  0
  153.6427  137.1619  189.5777 C   0  0  0  0  0  0  0  0  0  0  0  0
  154.4086  137.8664  188.8749 O   0  0  0  0  0  0  0  0  0  0  0  0
  152.4851  136.6669  189.0292 C   0  0  0  0  0  0  0  0  0  0  0  0
  155.2603  137.4790  191.3972 C   0  0  0  0  0  0  0  0  0  0  0  0
  156.3268  136.4819  191.5491 C   0  0  0  0  0  0  0  0  0  0  0  0
  156.7140  135.6540  190.3865 C   0  0  0  0  0  0  0  0  0  0  0  0
  156.8839  136.3352  192.6075 O   0  0  0  0  0  0  0  0  0  0  0  0
 21 22  1  0  0  0
 22  1  1  0  0  0
  1  2  2  0  0  0
  1  3  1  0  0  0
  3  5  1  0  0  0
  5  6  2  0  0  0
  6  7  1  0  0  0
  7  8  1  0  0  0
  8  9  2  0  0  0
  8 10  1  0  0  0
 10 11  2  0  0  0
 11 12  1  0  0  0
 12 13  2  0  0  0
 13 14  1  0  0  0
 14 15  1  0  0  0
 14 16  2  0  0  0
 13 17  1  0  0  0
 17 18  1  0  0  0
 17 19  1  0  0  0
 17 20  1  0  0  0
 22 23  1  0  0  0
 23 24  1  0  0  0
 24 25  2  0  0  0
 25 26  1  0  0  0
 26 27  1  0  0  0
 27 28  1  0  0  0
 27 29  1  0  0  0
 29 30  2  0  0  0
 29 31  1  0  0  0
 31 35  1  0  0  0
 35 36  1  0  0  0
 36 37  1  0  0  0
 36 38  2  0  0  0
 31 32  1  0  0  0
 32 33  2  0  0  0
 32 34  1  0  0  0
  9  5  1  0  0  0
 16 10  1  0  0  0
 34 23  1  0  0  0
 34 26  2  0  0  0
  3  4  1  0  0  0
M  END
> <minimizedAffinity>
-8.12131

> <CNNscore>
0.3211561739

> <CNNaffinity>
6.4868149757

> <CNN_VS>
2.0832805634

> <CNNaffinity_variance>
0.1487633288

$$$$
[H]c1nc(C(F)(F)F)c(C([H])([H])[H])c([H])c1-c1nc(N([H])C(=O)[C@@]([H])(n2c([H])nc3c2c(=O)n(C([H])([H])C(=O)C([H])([H])[H])c(=O)n3C([H])([H])[H])C([H])([H])[H])c([H])s1


 38 41  0  0  0  0  0  0  0  0999 V2000
  153.6331  136.8362  185.8536 C   0  0  0  0  0  0  0  0  0  0  0  0
  153.2586  135.5856  185.9588 O   0  0  0  0  0  0  0  0  0  0  0  0
  154.3553  137.1073  184.6941 N   0  0  0  0  0  0  0  0  0  0  0  0
  154.5460  136.3052  184.0096 H   0  0  0  0  0  0  0  0  0  0  0  0
  154.8429  138.4053  184.3198 C   0  0  0  0  0  0  0  0  0  0  0  0
  153.9957  139.3428  183.7261 C   0  0  0  0  0  0  0  0  0  0  0  0
  155.0443  140.6728  183.5181 S   0  0  0  0  0  0  0  0  0  0  0  0
  156.4593  139.9968  184.1728 C   0  0  0  0  0  0  0  0  0  0  0  0
  156.0577  138.7943  184.5148 N   0  0  0  0  0  0  0  0  0  0  0  0
  157.8096  140.5817  184.3335 C   0  0  0  0  0  0  0  0  0  0  0  0
  158.7627  140.4538  183.3632 C   0  0  0  0  0  0  0  0  0  0  0  0
  159.9798  141.0044  183.5574 N   0  0  0  0  0  0  0  0  0  0  0  0
  160.2918  141.6869  184.6944 C   0  0  0  0  0  0  0  0  0  0  0  0
  159.3309  141.8159  185.6730 C   0  0  0  0  0  0  0  0  0  0  0  0
  159.5986  142.5494  186.9399 C   0  0  0  0  0  0  0  0  0  0  0  0
  158.0838  141.2602  185.4908 C   0  0  0  0  0  0  0  0  0  0  0  0
  161.6531  142.2773  184.8646 C   0  0  0  0  0  0  0  0  0  0  0  0
  161.5878  143.6246  184.5499 F   0  0  0  0  0  0  0  0  0  0  0  0
  162.5544  141.7215  183.9575 F   0  0  0  0  0  0  0  0  0  0  0  0
  162.1208  142.1587  186.1555 F   0  0  0  0  0  0  0  0  0  0  0  0
  153.3532  139.1998  186.4285 C   0  0  0  0  0  0  0  0  0  0  0  0
  153.2580  137.7604  186.9414 C   0  0  0  0  0  0  0  0  0  0  0  0
  154.2218  137.5578  188.0249 N   0  0  0  0  0  0  0  0  0  0  0  0
  155.5178  137.9562  187.9954 C   0  0  0  0  0  0  0  0  0  0  0  0
  156.1003  137.6079  189.1523 N   0  0  0  0  0  0  0  0  0  0  0  0
  155.1591  136.9926  189.8959 C   0  0  0  0  0  0  0  0  0  0  0  0
  155.1688  136.4365  191.1317 N   0  0  0  0  0  0  0  0  0  0  0  0
  156.4568  136.5022  191.8367 C   0  0  0  0  0  0  0  0  0  0  0  0
  154.0853  135.8633  191.6836 C   0  0  0  0  0  0  0  0  0  0  0  0
  154.2079  135.3723  192.8499 O   0  0  0  0  0  0  0  0  0  0  0  0
  152.9072  135.8044  191.0361 N   0  0  0  0  0  0  0  0  0  0  0  0
  152.8726  136.3571  189.7916 C   0  0  0  0  0  0  0  0  0  0  0  0
  151.7766  136.3051  189.1811 O   0  0  0  0  0  0  0  0  0  0  0  0
  153.9546  136.9522  189.1906 C   0  0  0  0  0  0  0  0  0  0  0  0
  151.7372  135.1895  191.6288 C   0  0  0  0  0  0  0  0  0  0  0  0
  150.9720  136.0925  192.4972 C   0  0  0  0  0  0  0  0  0  0  0  0
  149.8479  135.5518  193.2917 C   0  0  0  0  0  0  0  0  0  0  0  0
  151.2525  137.2624  192.5656 O   0  0  0  0  0  0  0  0  0  0  0  0
 21 22  1  0  0  0
 22  1  1  0  0  0
  1  2  2  0  0  0
  1  3  1  0  0  0
  3  5  1  0  0  0
  5  6  2  0  0  0
  6  7  1  0  0  0
  7  8  1  0  0  0
  8  9  2  0  0  0
  8 10  1  0  0  0
 10 11  2  0  0  0
 11 12  1  0  0  0
 12 13  2  0  0  0
 13 14  1  0  0  0
 14 15  1  0  0  0
 14 16  2  0  0  0
 13 17  1  0  0  0
 17 18  1  0  0  0
 17 19  1  0  0  0
 17 20  1  0  0  0
 22 23  1  0  0  0
 23 24  1  0  0  0
 24 25  2  0  0  0
 25 26  1  0  0  0
 26 27  1  0  0  0
 27 28  1  0  0  0
 27 29  1  0  0  0
 29 30  2  0  0  0
 29 31  1  0  0  0
 31 35  1  0  0  0
 35 36  1  0  0  0
 36 37  1  0  0  0
 36 38  2  0  0  0
 31 32  1  0  0  0
 32 33  2  0  0  0
 32 34  1  0  0  0
  9  5  1  0  0  0
 16 10  1  0  0  0
 34 23  1  0  0  0
 34 26  2  0  0  0
  3  4  1  0  0  0
M  END
> <minimizedAffinity>
-8.53070

> <CNNscore>
0.3154973984

> <CNNaffinity>
6.5765929222

> <CNN_VS>
2.0748980045

> <CNNaffinity_variance>
0.2223195732

$$$$
[H]c1nc(C(F)(F)F)c(C([H])([H])[H])c([H])c1-c1nc(N([H])C(=O)[C@@]([H])(n2c([H])nc3c2c(=O)n(C([H])([H])C(=O)C([H])([H])[H])c(=O)n3C([H])([H])[H])C([H])([H])[H])c([H])s1


 38 41  0  0  0  0  0  0  0  0999 V2000
  155.8802  140.2967  182.9544 C   0  0  0  0  0  0  0  0  0  0  0  0
  156.6733  140.4310  181.9209 O   0  0  0  0  0  0  0  0  0  0  0  0
  155.5668  138.9722  183.2495 N   0  0  0  0  0  0  0  0  0  0  0  0
  155.9761  138.1986  182.6314 H   0  0  0  0  0  0  0  0  0  0  0  0
  154.7532  138.5521  184.3561 C   0  0  0  0  0  0  0  0  0  0  0  0
  153.3619  138.5151  184.2465 C   0  0  0  0  0  0  0  0  0  0  0  0
  152.9093  137.9400  185.7879 S   0  0  0  0  0  0  0  0  0  0  0  0
  154.4561  137.7800  186.4733 C   0  0  0  0  0  0  0  0  0  0  0  0
  155.2346  138.1731  185.4917 N   0  0  0  0  0  0  0  0  0  0  0  0
  154.8589  137.3192  187.8212 C   0  0  0  0  0  0  0  0  0  0  0  0
  155.2922  136.0420  188.0387 C   0  0  0  0  0  0  0  0  0  0  0  0
  155.6474  135.6695  189.2866 N   0  0  0  0  0  0  0  0  0  0  0  0
  155.5880  136.5284  190.3423 C   0  0  0  0  0  0  0  0  0  0  0  0
  155.1510  137.8163  190.1232 C   0  0  0  0  0  0  0  0  0  0  0  0
  155.0621  138.8103  191.2272 C   0  0  0  0  0  0  0  0  0  0  0  0
  154.7848  138.2128  188.8560 C   0  0  0  0  0  0  0  0  0  0  0  0
  155.9902  136.0696  191.7055 C   0  0  0  0  0  0  0  0  0  0  0  0
  156.5258  134.7967  191.5981 F   0  0  0  0  0  0  0  0  0  0  0  0
  154.8779  135.9417  192.5366 F   0  0  0  0  0  0  0  0  0  0  0  0
  156.9386  136.8890  192.2784 F   0  0  0  0  0  0  0  0  0  0  0  0
  153.9765  141.8039  183.2706 C   0  0  0  0  0  0  0  0  0  0  0  0
  155.4346  141.5234  183.6436 C   0  0  0  0  0  0  0  0  0  0  0  0
  156.2853  142.6148  183.1648 N   0  0  0  0  0  0  0  0  0  0  0  0
  155.8947  143.5785  182.2943 C   0  0  0  0  0  0  0  0  0  0  0  0
  156.9265  144.4087  182.0818 N   0  0  0  0  0  0  0  0  0  0  0  0
  157.9556  143.9536  182.8241 C   0  0  0  0  0  0  0  0  0  0  0  0
  159.2295  144.3791  183.0055 N   0  0  0  0  0  0  0  0  0  0  0  0
  159.5984  145.5864  182.2529 C   0  0  0  0  0  0  0  0  0  0  0  0
  160.1017  143.7509  183.8129 C   0  0  0  0  0  0  0  0  0  0  0  0
  161.2723  144.2378  183.9082 O   0  0  0  0  0  0  0  0  0  0  0  0
  159.7615  142.6457  184.5008 N   0  0  0  0  0  0  0  0  0  0  0  0
  158.4855  142.1985  184.3347 C   0  0  0  0  0  0  0  0  0  0  0  0
  158.1612  141.1671  184.9731 O   0  0  0  0  0  0  0  0  0  0  0  0
  157.5629  142.8091  183.5211 C   0  0  0  0  0  0  0  0  0  0  0  0
  160.6982  141.9677  185.3732 C   0  0  0  0  0  0  0  0  0  0  0  0
  160.9447  142.6733  186.6367 C   0  0  0  0  0  0  0  0  0  0  0  0
  162.3377  142.9258  187.0644 C   0  0  0  0  0  0  0  0  0  0  0  0
  160.0257  143.0447  187.3218 O   0  0  0  0  0  0  0  0  0  0  0  0
 21 22  1  0  0  0
 22  1  1  0  0  0
  1  2  2  0  0  0
  1  3  1  0  0  0
  3  5  1  0  0  0
  5  6  2  0  0  0
  6  7  1  0  0  0
  7  8  1  0  0  0
  8  9  2  0  0  0
  8 10  1  0  0  0
 10 11  2  0  0  0
 11 12  1  0  0  0
 12 13  2  0  0  0
 13 14  1  0  0  0
 14 15  1  0  0  0
 14 16  2  0  0  0
 13 17  1  0  0  0
 17 18  1  0  0  0
 17 19  1  0  0  0
 17 20  1  0  0  0
 22 23  1  0  0  0
 23 24  1  0  0  0
 24 25  2  0  0  0
 25 26  1  0  0  0
 26 27  1  0  0  0
 27 28  1  0  0  0
 27 29  1  0  0  0
 29 30  2  0  0  0
 29 31  1  0  0  0
 31 35  1  0  0  0
 35 36  1  0  0  0
 36 37  1  0  0  0
 36 38  2  0  0  0
 31 32  1  0  0  0
 32 33  2  0  0  0
 32 34  1  0  0  0
  9  5  1  0  0  0
 16 10  1  0  0  0
 34 23  1  0  0  0
 34 26  2  0  0  0
  3  4  1  0  0  0
M  END
> <minimizedAffinity>
-8.21399

> <CNNscore>
0.3154418468

> <CNNaffinity>
7.0604896545

> <CNN_VS>
2.2271738052

> <CNNaffinity_variance>
0.1076937318

$$$$
[H]c1nc(C(F)(F)F)c(C([H])([H])[H])c([H])c1-c1nc(N([H])C(=O)[C@@]([H])(n2c([H])nc3c2c(=O)n(C([H])([H])C(=O)C([H])([H])[H])c(=O)n3C([H])([H])[H])C([H])([H])[H])c([H])s1


 38 41  0  0  0  0  0  0  0  0999 V2000
  154.5609  136.3779  187.9399 C   0  0  0  0  0  0  0  0  0  0  0  0
  155.5619  136.4185  188.7835 O   0  0  0  0  0  0  0  0  0  0  0  0
  154.8077  135.5907  186.8179 N   0  0  0  0  0  0  0  0  0  0  0  0
  155.7587  135.1045  186.7319 H   0  0  0  0  0  0  0  0  0  0  0  0
  153.8601  135.3465  185.7666 C   0  0  0  0  0  0  0  0  0  0  0  0
  153.2173  134.1121  185.6566 C   0  0  0  0  0  0  0  0  0  0  0  0
  152.2152  134.3644  184.2987 S   0  0  0  0  0  0  0  0  0  0  0  0
  152.6465  135.9705  183.9487 C   0  0  0  0  0  0  0  0  0  0  0  0
  153.5307  136.2288  184.8845 N   0  0  0  0  0  0  0  0  0  0  0  0
  152.1693  136.8742  182.8777 C   0  0  0  0  0  0  0  0  0  0  0  0
  151.2360  136.4696  181.9658 C   0  0  0  0  0  0  0  0  0  0  0  0
  150.8338  137.3307  181.0072 N   0  0  0  0  0  0  0  0  0  0  0  0
  151.3296  138.5963  180.9176 C   0  0  0  0  0  0  0  0  0  0  0  0
  152.2708  139.0045  181.8369 C   0  0  0  0  0  0  0  0  0  0  0  0
  152.8552  140.3728  181.8028 C   0  0  0  0  0  0  0  0  0  0  0  0
  152.6922  138.1385  182.8216 C   0  0  0  0  0  0  0  0  0  0  0  0
  150.8549  139.5126  179.8380 C   0  0  0  0  0  0  0  0  0  0  0  0
  151.9589  139.9796  179.1440 F   0  0  0  0  0  0  0  0  0  0  0  0
  150.2428  140.6433  180.3774 F   0  0  0  0  0  0  0  0  0  0  0  0
  150.0182  138.8824  178.9425 F   0  0  0  0  0  0  0  0  0  0  0  0
  153.5812  138.6219  187.9323 C   0  0  0  0  0  0  0  0  0  0  0  0
  153.3474  137.1482  188.2749 C   0  0  0  0  0  0  0  0  0  0  0  0
  153.1350  137.0044  189.7164 N   0  0  0  0  0  0  0  0  0  0  0  0
  153.9911  137.4389  190.6742 C   0  0  0  0  0  0  0  0  0  0  0  0
  153.4770  137.1405  191.8767 N   0  0  0  0  0  0  0  0  0  0  0  0
  152.3006  136.5199  191.6575 C   0  0  0  0  0  0  0  0  0  0  0  0
  151.3576  135.9998  192.4801 N   0  0  0  0  0  0  0  0  0  0  0  0
  151.6444  136.1226  193.9164 C   0  0  0  0  0  0  0  0  0  0  0  0
  150.2367  135.4117  192.0272 C   0  0  0  0  0  0  0  0  0  0  0  0
  149.4197  134.9579  192.8892 O   0  0  0  0  0  0  0  0  0  0  0  0
  149.9765  135.3005  190.7118 N   0  0  0  0  0  0  0  0  0  0  0  0
  150.9102  135.8163  189.8646 C   0  0  0  0  0  0  0  0  0  0  0  0
  150.6743  135.7154  188.6354 O   0  0  0  0  0  0  0  0  0  0  0  0
  152.0677  136.4248  190.2839 C   0  0  0  0  0  0  0  0  0  0  0  0
  148.7688  134.6694  190.2205 C   0  0  0  0  0  0  0  0  0  0  0  0
  148.8307  133.2028  190.2122 C   0  0  0  0  0  0  0  0  0  0  0  0
  147.6030  132.4254  190.4868 C   0  0  0  0  0  0  0  0  0  0  0  0
  149.8681  132.6335  189.9848 O   0  0  0  0  0  0  0  0  0  0  0  0
 21 22  1  0  0  0
 22  1  1  0  0  0
  1  2  2  0  0  0
  1  3  1  0  0  0
  3  5  1  0  0  0
  5  6  2  0  0  0
  6  7  1  0  0  0
  7  8  1  0  0  0
  8  9  2  0  0  0
  8 10  1  0  0  0
 10 11  2  0  0  0
 11 12  1  0  0  0
 12 13  2  0  0  0
 13 14  1  0  0  0
 14 15  1  0  0  0
 14 16  2  0  0  0
 13 17  1  0  0  0
 17 18  1  0  0  0
 17 19  1  0  0  0
 17 20  1  0  0  0
 22 23  1  0  0  0
 23 24  1  0  0  0
 24 25  2  0  0  0
 25 26  1  0  0  0
 26 27  1  0  0  0
 27 28  1  0  0  0
 27 29  1  0  0  0
 29 30  2  0  0  0
 29 31  1  0  0  0
 31 35  1  0  0  0
 35 36  1  0  0  0
 36 37  1  0  0  0
 36 38  2  0  0  0
 31 32  1  0  0  0
 32 33  2  0  0  0
 32 34  1  0  0  0
  9  5  1  0  0  0
 16 10  1  0  0  0
 34 23  1  0  0  0
 34 26  2  0  0  0
  3  4  1  0  0  0
M  END
> <minimizedAffinity>
-6.52629

> <CNNscore>
0.3026027977

> <CNNaffinity>
5.8987421989

> <CNN_VS>
1.7849758863

> <CNNaffinity_variance>
0.1552340686

$$$$
[H]c1nc(C(F)(F)F)c(C([H])([H])[H])c([H])c1-c1nc(N([H])C(=O)[C@@]([H])(n2c([H])nc3c2c(=O)n(C([H])([H])C(=O)C([H])([H])[H])c(=O)n3C([H])([H])[H])C([H])([H])[H])c([H])s1


 38 41  0  0  0  0  0  0  0  0999 V2000
  154.9116  138.4146  185.8902 C   0  0  0  0  0  0  0  0  0  0  0  0
  155.8003  137.8257  186.6508 O   0  0  0  0  0  0  0  0  0  0  0  0
  155.4698  139.1969  184.8822 N   0  0  0  0  0  0  0  0  0  0  0  0
  156.5373  139.2588  184.8132 H   0  0  0  0  0  0  0  0  0  0  0  0
  154.7159  139.9110  183.8899 C   0  0  0  0  0  0  0  0  0  0  0  0
  155.0144  141.2404  183.5858 C   0  0  0  0  0  0  0  0  0  0  0  0
  153.8704  141.5808  182.3663 S   0  0  0  0  0  0  0  0  0  0  0  0
  153.0952  140.0698  182.3040 C   0  0  0  0  0  0  0  0  0  0  0  0
  153.7488  139.3868  183.2153 N   0  0  0  0  0  0  0  0  0  0  0  0
  151.9737  139.6077  181.4555 C   0  0  0  0  0  0  0  0  0  0  0  0
  151.9357  139.8736  180.1161 C   0  0  0  0  0  0  0  0  0  0  0  0
  150.8906  139.4313  179.3851 N   0  0  0  0  0  0  0  0  0  0  0  0
  149.8668  138.7250  179.9407 C   0  0  0  0  0  0  0  0  0  0  0  0
  149.9048  138.4568  181.2913 C   0  0  0  0  0  0  0  0  0  0  0  0
  148.8236  137.6889  181.9668 C   0  0  0  0  0  0  0  0  0  0  0  0
  150.9639  138.9007  182.0518 C   0  0  0  0  0  0  0  0  0  0  0  0
  148.7306  138.2579  179.0912 C   0  0  0  0  0  0  0  0  0  0  0  0
  148.9393  138.7059  177.7971 F   0  0  0  0  0  0  0  0  0  0  0  0
  147.5305  138.8370  179.5017 F   0  0  0  0  0  0  0  0  0  0  0  0
  148.6266  136.8841  179.0599 F   0  0  0  0  0  0  0  0  0  0  0  0
  153.3209  137.9917  187.7030 C   0  0  0  0  0  0  0  0  0  0  0  0
  153.4857  138.1841  186.1932 C   0  0  0  0  0  0  0  0  0  0  0  0
  153.0935  136.9588  185.4939 N   0  0  0  0  0  0  0  0  0  0  0  0
  153.9549  136.0874  184.9126 C   0  0  0  0  0  0  0  0  0  0  0  0
  153.2492  135.0845  184.3693 N   0  0  0  0  0  0  0  0  0  0  0  0
  151.9490  135.3402  184.6170 C   0  0  0  0  0  0  0  0  0  0  0  0
  150.8001  134.6889  184.3133 N   0  0  0  0  0  0  0  0  0  0  0  0
  150.9708  133.4389  183.5591 C   0  0  0  0  0  0  0  0  0  0  0  0
  149.5863  135.1431  184.6705 C   0  0  0  0  0  0  0  0  0  0  0  0
  148.5750  134.4506  184.3323 O   0  0  0  0  0  0  0  0  0  0  0  0
  149.4327  136.2877  185.3609 N   0  0  0  0  0  0  0  0  0  0  0  0
  150.5738  136.9606  185.6781 C   0  0  0  0  0  0  0  0  0  0  0  0
  150.4380  138.0302  186.3218 O   0  0  0  0  0  0  0  0  0  0  0  0
  151.8326  136.5331  185.3337 C   0  0  0  0  0  0  0  0  0  0  0  0
  148.1264  136.7787  185.7493 C   0  0  0  0  0  0  0  0  0  0  0  0
  147.8244  136.5897  187.1733 C   0  0  0  0  0  0  0  0  0  0  0  0
  148.0954  135.2791  187.8026 C   0  0  0  0  0  0  0  0  0  0  0  0
  147.3603  137.4893  187.8271 O   0  0  0  0  0  0  0  0  0  0  0  0
 21 22  1  0  0  0
 22  1  1  0  0  0
  1  2  2  0  0  0
  1  3  1  0  0  0
  3  5  1  0  0  0
  5  6  2  0  0  0
  6  7  1  0  0  0
  7  8  1  0  0  0
  8  9  2  0  0  0
  8 10  1  0  0  0
 10 11  2  0  0  0
 11 12  1  0  0  0
 12 13  2  0  0  0
 13 14  1  0  0  0
 14 15  1  0  0  0
 14 16  2  0  0  0
 13 17  1  0  0  0
 17 18  1  0  0  0
 17 19  1  0  0  0
 17 20  1  0  0  0
 22 23  1  0  0  0
 23 24  1  0  0  0
 24 25  2  0  0  0
 25 26  1  0  0  0
 26 27  1  0  0  0
 27 28  1  0  0  0
 27 29  1  0  0  0
 29 30  2  0  0  0
 29 31  1  0  0  0
 31 35  1  0  0  0
 35 36  1  0  0  0
 36 37  1  0  0  0
 36 38  2  0  0  0
 31 32  1  0  0  0
 32 33  2  0  0  0
 32 34  1  0  0  0
  9  5  1  0  0  0
 16 10  1  0  0  0
 34 23  1  0  0  0
 34 26  2  0  0  0
  3  4  1  0  0  0
M  END
> <minimizedAffinity>
-6.48104

> <CNNscore>
0.3010178804

> <CNNaffinity>
6.0610909462

> <CNN_VS>
1.8244967461

> <CNNaffinity_variance>
0.4337343574

$$$$
[H]c1nc(C(F)(F)F)c(C([H])([H])[H])c([H])c1-c1nc(N([H])C(=O)[C@@]([H])(n2c([H])nc3c2c(=O)n(C([H])([H])C(=O)C([H])([H])[H])c(=O)n3C([H])([H])[H])C([H])([H])[H])c([H])s1


 38 41  0  0  0  0  0  0  0  0999 V2000
  154.2495  136.1127  186.2243 C   0  0  0  0  0  0  0  0  0  0  0  0
  154.5841  134.9078  186.6137 O   0  0  0  0  0  0  0  0  0  0  0  0
  154.5007  136.3536  184.8758 N   0  0  0  0  0  0  0  0  0  0  0  0
  154.9351  135.5706  184.2874 H   0  0  0  0  0  0  0  0  0  0  0  0
  154.1861  137.5768  184.1918 C   0  0  0  0  0  0  0  0  0  0  0  0
  152.8996  137.8118  183.7035 C   0  0  0  0  0  0  0  0  0  0  0  0
  153.0664  139.3691  183.0263 S   0  0  0  0  0  0  0  0  0  0  0  0
  154.7060  139.6369  183.3840 C   0  0  0  0  0  0  0  0  0  0  0  0
  155.0388  138.5261  184.0000 N   0  0  0  0  0  0  0  0  0  0  0  0
  155.5667  140.8059  183.0940 C   0  0  0  0  0  0  0  0  0  0  0  0
  155.1030  142.0840  183.2268 C   0  0  0  0  0  0  0  0  0  0  0  0
  155.9266  143.1168  182.9492 N   0  0  0  0  0  0  0  0  0  0  0  0
  157.2116  142.9270  182.5387 C   0  0  0  0  0  0  0  0  0  0  0  0
  157.6795  141.6383  182.4046 C   0  0  0  0  0  0  0  0  0  0  0  0
  159.0720  141.3539  181.9633 C   0  0  0  0  0  0  0  0  0  0  0  0
  156.8522  140.5730  182.6839 C   0  0  0  0  0  0  0  0  0  0  0  0
  158.0849  144.1015  182.2416 C   0  0  0  0  0  0  0  0  0  0  0  0
  157.3463  145.2566  182.4390 F   0  0  0  0  0  0  0  0  0  0  0  0
  158.4584  144.1178  180.8983 F   0  0  0  0  0  0  0  0  0  0  0  0
  159.1930  144.1540  183.0592 F   0  0  0  0  0  0  0  0  0  0  0  0
  154.6115  137.0892  188.4403 C   0  0  0  0  0  0  0  0  0  0  0  0
  153.6748  137.0262  187.2309 C   0  0  0  0  0  0  0  0  0  0  0  0
  152.3858  136.4607  187.6340 N   0  0  0  0  0  0  0  0  0  0  0  0
  151.4636  135.9467  186.7828 C   0  0  0  0  0  0  0  0  0  0  0  0
  150.4108  135.5211  187.4966 N   0  0  0  0  0  0  0  0  0  0  0  0
  150.6864  135.7746  188.7916 C   0  0  0  0  0  0  0  0  0  0  0  0
  150.0045  135.5669  189.9442 N   0  0  0  0  0  0  0  0  0  0  0  0
  148.6877  134.9334  189.7860 C   0  0  0  0  0  0  0  0  0  0  0  0
  150.4870  135.9110  191.1508 C   0  0  0  0  0  0  0  0  0  0  0  0
  149.7613  135.6694  192.1664 O   0  0  0  0  0  0  0  0  0  0  0  0
  151.6928  136.4909  191.2930 N   0  0  0  0  0  0  0  0  0  0  0  0
  152.3976  136.7100  190.1481 C   0  0  0  0  0  0  0  0  0  0  0  0
  153.5235  137.2516  190.2731 O   0  0  0  0  0  0  0  0  0  0  0  0
  151.9431  136.3745  188.8963 C   0  0  0  0  0  0  0  0  0  0  0  0
  152.2166  136.8609  192.5919 C   0  0  0  0  0  0  0  0  0  0  0  0
  152.9146  135.7680  193.2798 C   0  0  0  0  0  0  0  0  0  0  0  0
  152.3346  135.2055  194.5185 C   0  0  0  0  0  0  0  0  0  0  0  0
  153.9494  135.3302  192.8443 O   0  0  0  0  0  0  0  0  0  0  0  0
 21 22  1  0  0  0
 22  1  1  0  0  0
  1  2  2  0  0  0
  1  3  1  0  0  0
  3  5  1  0  0  0
  5  6  2  0  0  0
  6  7  1  0  0  0
  7  8  1  0  0  0
  8  9  2  0  0  0
  8 10  1  0  0  0
 10 11  2  0  0  0
 11 12  1  0  0  0
 12 13  2  0  0  0
 13 14  1  0  0  0
 14 15  1  0  0  0
 14 16  2  0  0  0
 13 17  1  0  0  0
 17 18  1  0  0  0
 17 19  1  0  0  0
 17 20  1  0  0  0
 22 23  1  0  0  0
 23 24  1  0  0  0
 24 25  2  0  0  0
 25 26  1  0  0  0
 26 27  1  0  0  0
 27 28  1  0  0  0
 27 29  1  0  0  0
 29 30  2  0  0  0
 29 31  1  0  0  0
 31 35  1  0  0  0
 35 36  1  0  0  0
 36 37  1  0  0  0
 36 38  2  0  0  0
 31 32  1  0  0  0
 32 33  2  0  0  0
 32 34  1  0  0  0
  9  5  1  0  0  0
 16 10  1  0  0  0
 34 23  1  0  0  0
 34 26  2  0  0  0
  3  4  1  0  0  0
M  END
> <minimizedAffinity>
-7.22639

> <CNNscore>
0.2957053185

> <CNNaffinity>
6.4662909508

> <CNN_VS>
1.9121166468

> <CNNaffinity_variance>
0.1405936182

$$$$
[H]c1nc(C(F)(F)F)c(C([H])([H])[H])c([H])c1-c1nc(N([H])C(=O)[C@@]([H])(n2c([H])nc3c2c(=O)n(C([H])([H])C(=O)C([H])([H])[H])c(=O)n3C([H])([H])[H])C([H])([H])[H])c([H])s1


 38 41  0  0  0  0  0  0  0  0999 V2000
  153.5270  139.5365  182.5061 C   0  0  0  0  0  0  0  0  0  0  0  0
  153.2097  140.3060  181.4949 O   0  0  0  0  0  0  0  0  0  0  0  0
  152.6115  138.5129  182.7377 N   0  0  0  0  0  0  0  0  0  0  0  0
  151.7520  138.4403  182.1020 H   0  0  0  0  0  0  0  0  0  0  0  0
  152.7483  137.5091  183.7558 C   0  0  0  0  0  0  0  0  0  0  0  0
  152.6898  136.1520  183.4336 C   0  0  0  0  0  0  0  0  0  0  0  0
  152.9268  135.4245  184.9588 S   0  0  0  0  0  0  0  0  0  0  0  0
  153.0833  136.8312  185.8995 C   0  0  0  0  0  0  0  0  0  0  0  0
  152.9467  137.7798  185.0018 N   0  0  0  0  0  0  0  0  0  0  0  0
  153.3155  136.9852  187.3533 C   0  0  0  0  0  0  0  0  0  0  0  0
  152.3462  136.6817  188.2668 C   0  0  0  0  0  0  0  0  0  0  0  0
  152.6062  136.8401  189.5819 N   0  0  0  0  0  0  0  0  0  0  0  0
  153.8089  137.2950  190.0317 C   0  0  0  0  0  0  0  0  0  0  0  0
  154.7865  137.6012  189.1108 C   0  0  0  0  0  0  0  0  0  0  0  0
  156.1250  138.1006  189.5279 C   0  0  0  0  0  0  0  0  0  0  0  0
  154.5378  137.4452  187.7650 C   0  0  0  0  0  0  0  0  0  0  0  0
  154.0493  137.4555  191.4969 C   0  0  0  0  0  0  0  0  0  0  0  0
  154.4325  138.7649  191.7363 F   0  0  0  0  0  0  0  0  0  0  0  0
  155.1202  136.6667  191.9157 F   0  0  0  0  0  0  0  0  0  0  0  0
  152.9237  137.1921  192.2471 F   0  0  0  0  0  0  0  0  0  0  0  0
  154.4968  139.7259  184.7464 C   0  0  0  0  0  0  0  0  0  0  0  0
  154.7667  139.8469  183.2443 C   0  0  0  0  0  0  0  0  0  0  0  0
  155.1239  141.2285  182.9167 N   0  0  0  0  0  0  0  0  0  0  0  0
  154.2412  142.1950  182.5618 C   0  0  0  0  0  0  0  0  0  0  0  0
  154.9171  143.3313  182.3356 N   0  0  0  0  0  0  0  0  0  0  0  0
  156.2202  143.0625  182.5517 C   0  0  0  0  0  0  0  0  0  0  0  0
  157.3477  143.8108  182.4769 N   0  0  0  0  0  0  0  0  0  0  0  0
  157.1431  145.2119  182.0829 C   0  0  0  0  0  0  0  0  0  0  0  0
  158.5703  143.3184  182.7416 C   0  0  0  0  0  0  0  0  0  0  0  0
  159.5594  144.1108  182.6399 O   0  0  0  0  0  0  0  0  0  0  0  0
  158.7550  142.0353  183.1022 N   0  0  0  0  0  0  0  0  0  0  0  0
  157.6359  141.2629  183.1844 C   0  0  0  0  0  0  0  0  0  0  0  0
  157.8008  140.0641  183.5195 O   0  0  0  0  0  0  0  0  0  0  0  0
  156.3692  141.7246  182.9231 C   0  0  0  0  0  0  0  0  0  0  0  0
  160.0707  141.5023  183.3902 C   0  0  0  0  0  0  0  0  0  0  0  0
  160.5854  141.8830  184.7112 C   0  0  0  0  0  0  0  0  0  0  0  0
  161.9534  142.4335  184.8235 C   0  0  0  0  0  0  0  0  0  0  0  0
  159.9048  141.7504  185.6968 O   0  0  0  0  0  0  0  0  0  0  0  0
 21 22  1  0  0  0
 22  1  1  0  0  0
  1  2  2  0  0  0
  1  3  1  0  0  0
  3  5  1  0  0  0
  5  6  2  0  0  0
  6  7  1  0  0  0
  7  8  1  0  0  0
  8  9  2  0  0  0
  8 10  1  0  0  0
 10 11  2  0  0  0
 11 12  1  0  0  0
 12 13  2  0  0  0
 13 14  1  0  0  0
 14 15  1  0  0  0
 14 16  2  0  0  0
 13 17  1  0  0  0
 17 18  1  0  0  0
 17 19  1  0  0  0
 17 20  1  0  0  0
 22 23  1  0  0  0
 23 24  1  0  0  0
 24 25  2  0  0  0
 25 26  1  0  0  0
 26 27  1  0  0  0
 27 28  1  0  0  0
 27 29  1  0  0  0
 29 30  2  0  0  0
 29 31  1  0  0  0
 31 35  1  0  0  0
 35 36  1  0  0  0
 36 37  1  0  0  0
 36 38  2  0  0  0
 31 32  1  0  0  0
 32 33  2  0  0  0
 32 34  1  0  0  0
  9  5  1  0  0  0
 16 10  1  0  0  0
 34 23  1  0  0  0
 34 26  2  0  0  0
  3  4  1  0  0  0
M  END
> <minimizedAffinity>
-8.68571

> <CNNscore>
0.2919354439

> <CNNaffinity>
6.8050651550

> <CNN_VS>
1.9866397381

> <CNNaffinity_variance>
0.2356652021

$$$$
[H]c1nc(C(F)(F)F)c(C([H])([H])[H])c([H])c1-c1nc(N([H])C(=O)[C@@]([H])(n2c([H])nc3c2c(=O)n(C([H])([H])C(=O)C([H])([H])[H])c(=O)n3C([H])([H])[H])C([H])([H])[H])c([H])s1


 38 41  0  0  0  0  0  0  0  0999 V2000
  155.1850  138.4845  185.7281 C   0  0  0  0  0  0  0  0  0  0  0  0
  156.1121  137.9426  186.4778 O   0  0  0  0  0  0  0  0  0  0  0  0
  155.6735  139.4359  184.8360 N   0  0  0  0  0  0  0  0  0  0  0  0
  156.7241  139.6466  184.8358 H   0  0  0  0  0  0  0  0  0  0  0  0
  154.8726  140.1434  183.8764 C   0  0  0  0  0  0  0  0  0  0  0  0
  155.1117  141.4910  183.6012 C   0  0  0  0  0  0  0  0  0  0  0  0
  153.9318  141.8152  182.4120 S   0  0  0  0  0  0  0  0  0  0  0  0
  153.2166  140.2761  182.3250 C   0  0  0  0  0  0  0  0  0  0  0  0
  153.9145  139.5975  183.2063 N   0  0  0  0  0  0  0  0  0  0  0  0
  152.0983  139.7902  181.4854 C   0  0  0  0  0  0  0  0  0  0  0  0
  152.1072  139.9418  180.1278 C   0  0  0  0  0  0  0  0  0  0  0  0
  151.0631  139.4827  179.4059 N   0  0  0  0  0  0  0  0  0  0  0  0
  149.9948  138.8699  179.9884 C   0  0  0  0  0  0  0  0  0  0  0  0
  149.9857  138.7169  181.3573 C   0  0  0  0  0  0  0  0  0  0  0  0
  148.8543  138.0556  182.0627 C   0  0  0  0  0  0  0  0  0  0  0  0
  151.0431  139.1797  182.1089 C   0  0  0  0  0  0  0  0  0  0  0  0
  148.8618  138.3797  179.1478 C   0  0  0  0  0  0  0  0  0  0  0  0
  149.0606  138.8162  177.8484 F   0  0  0  0  0  0  0  0  0  0  0  0
  147.6559  138.9483  179.5562 F   0  0  0  0  0  0  0  0  0  0  0  0
  148.7747  137.0044  179.1317 F   0  0  0  0  0  0  0  0  0  0  0  0
  153.1871  138.7881  187.1109 C   0  0  0  0  0  0  0  0  0  0  0  0
  153.7928  138.0352  185.9234 C   0  0  0  0  0  0  0  0  0  0  0  0
  153.8445  136.6027  186.2217 N   0  0  0  0  0  0  0  0  0  0  0  0
  153.9741  136.0727  187.4633 C   0  0  0  0  0  0  0  0  0  0  0  0
  153.9845  134.7354  187.3601 N   0  0  0  0  0  0  0  0  0  0  0  0
  153.8613  134.4419  186.0502 C   0  0  0  0  0  0  0  0  0  0  0  0
  153.8135  133.2766  185.3601 N   0  0  0  0  0  0  0  0  0  0  0  0
  153.9116  132.0603  186.1795 C   0  0  0  0  0  0  0  0  0  0  0  0
  153.6856  133.2240  184.0229 C   0  0  0  0  0  0  0  0  0  0  0  0
  153.6516  132.0753  183.4789 O   0  0  0  0  0  0  0  0  0  0  0  0
  153.5959  134.3389  183.2749 N   0  0  0  0  0  0  0  0  0  0  0  0
  153.6416  135.5231  183.9465 C   0  0  0  0  0  0  0  0  0  0  0  0
  153.5593  136.5679  183.2548 O   0  0  0  0  0  0  0  0  0  0  0  0
  153.7711  135.6226  185.3101 C   0  0  0  0  0  0  0  0  0  0  0  0
  153.4559  134.2856  181.8342 C   0  0  0  0  0  0  0  0  0  0  0  0
  152.0816  134.0337  181.3838 C   0  0  0  0  0  0  0  0  0  0  0  0
  151.1105  135.1489  181.3653 C   0  0  0  0  0  0  0  0  0  0  0  0
  151.7431  132.9320  181.0322 O   0  0  0  0  0  0  0  0  0  0  0  0
 21 22  1  0  0  0
 22  1  1  0  0  0
  1  2  2  0  0  0
  1  3  1  0  0  0
  3  5  1  0  0  0
  5  6  2  0  0  0
  6  7  1  0  0  0
  7  8  1  0  0  0
  8  9  2  0  0  0
  8 10  1  0  0  0
 10 11  2  0  0  0
 11 12  1  0  0  0
 12 13  2  0  0  0
 13 14  1  0  0  0
 14 15  1  0  0  0
 14 16  2  0  0  0
 13 17  1  0  0  0
 17 18  1  0  0  0
 17 19  1  0  0  0
 17 20  1  0  0  0
 22 23  1  0  0  0
 23 24  1  0  0  0
 24 25  2  0  0  0
 25 26  1  0  0  0
 26 27  1  0  0  0
 27 28  1  0  0  0
 27 29  1  0  0  0
 29 30  2  0  0  0
 29 31  1  0  0  0
 31 35  1  0  0  0
 35 36  1  0  0  0
 36 37  1  0  0  0
 36 38  2  0  0  0
 31 32  1  0  0  0
 32 33  2  0  0  0
 32 34  1  0  0  0
  9  5  1  0  0  0
 16 10  1  0  0  0
 34 23  1  0  0  0
 34 26  2  0  0  0
  3  4  1  0  0  0
M  END
> <minimizedAffinity>
-6.47760

> <CNNscore>
0.2917072177

> <CNNaffinity>
5.9467020035

> <CNN_VS>
1.7346959114

> <CNNaffinity_variance>
0.5987989306

$$$$
[H]c1nc(C(F)(F)F)c(C([H])([H])[H])c([H])c1-c1nc(N([H])C(=O)C([H])([H])n2c([H])nc3c2c(=O)n(C([H])([H])c2nc(C([H])([H])[H])no2)c(=O)n3C([H])([H])[H])c([H])c([H])c1[H]


 41 45  0  0  0  0  0  0  0  0999 V2000
  153.9024  138.4518  184.4619 C   0  0  0  0  0  0  0  0  0  0  0  0
  153.0670  138.5040  183.4766 O   0  0  0  0  0  0  0  0  0  0  0  0
  153.3643  137.9661  185.6608 N   0  0  0  0  0  0  0  0  0  0  0  0
  152.3258  137.6971  185.6035 H   0  0  0  0  0  0  0  0  0  0  0  0
  153.9591  137.7936  186.9200 C   0  0  0  0  0  0  0  0  0  0  0  0
  153.6332  138.6862  187.9519 C   0  0  0  0  0  0  0  0  0  0  0  0
  154.1865  138.5778  189.2085 C   0  0  0  0  0  0  0  0  0  0  0  0
  155.0871  137.5548  189.4449 C   0  0  0  0  0  0  0  0  0  0  0  0
  155.4214  136.6666  188.4465 C   0  0  0  0  0  0  0  0  0  0  0  0
  154.8372  136.8457  187.2565 N   0  0  0  0  0  0  0  0  0  0  0  0
  156.3659  135.5654  188.6609 C   0  0  0  0  0  0  0  0  0  0  0  0
  155.9726  134.4177  189.3372 C   0  0  0  0  0  0  0  0  0  0  0  0
  156.8530  133.4066  189.5310 N   0  0  0  0  0  0  0  0  0  0  0  0
  158.1243  133.4477  189.0945 C   0  0  0  0  0  0  0  0  0  0  0  0
  158.5639  134.5597  188.4199 C   0  0  0  0  0  0  0  0  0  0  0  0
  159.9489  134.6828  187.9096 C   0  0  0  0  0  0  0  0  0  0  0  0
  157.6500  135.6010  188.2233 C   0  0  0  0  0  0  0  0  0  0  0  0
  159.0550  132.2903  189.3425 C   0  0  0  0  0  0  0  0  0  0  0  0
  160.1161  132.7766  190.1191 F   0  0  0  0  0  0  0  0  0  0  0  0
  159.5883  131.7930  188.1928 F   0  0  0  0  0  0  0  0  0  0  0  0
  158.4639  131.3175  190.1280 F   0  0  0  0  0  0  0  0  0  0  0  0
  155.2618  138.9049  184.1712 C   0  0  0  0  0  0  0  0  0  0  0  0
  158.6476  141.7922  183.1605 N   0  0  0  0  0  0  0  0  0  0  0  0
  158.2607  142.9948  182.7173 C   0  0  0  0  0  0  0  0  0  0  0  0
  159.1276  143.8842  182.4113 O   0  0  0  0  0  0  0  0  0  0  0  0
  156.9497  143.2332  182.6068 N   0  0  0  0  0  0  0  0  0  0  0  0
  156.5265  144.5308  182.1266 C   0  0  0  0  0  0  0  0  0  0  0  0
  156.0593  142.2790  182.9368 C   0  0  0  0  0  0  0  0  0  0  0  0
  154.7056  142.2363  182.9174 N   0  0  0  0  0  0  0  0  0  0  0  0
  154.3094  141.0293  183.3441 C   0  0  0  0  0  0  0  0  0  0  0  0
  155.3637  140.2536  183.6522 N   0  0  0  0  0  0  0  0  0  0  0  0
  156.4477  141.0178  183.4022 C   0  0  0  0  0  0  0  0  0  0  0  0
  157.7863  140.8029  183.5038 C   0  0  0  0  0  0  0  0  0  0  0  0
  158.2109  139.6909  183.9118 O   0  0  0  0  0  0  0  0  0  0  0  0
  160.0655  141.5140  183.2904 C   0  0  0  0  0  0  0  0  0  0  0  0
  162.9942  142.8838  187.1643 C   0  0  0  0  0  0  0  0  0  0  0  0
  161.8546  142.5392  186.2885 C   0  0  0  0  0  0  0  0  0  0  0  0
  160.5544  142.5415  186.6358 N   0  0  0  0  0  0  0  0  0  0  0  0
  159.8289  142.1890  185.6342 O   0  0  0  0  0  0  0  0  0  0  0  0
  160.5983  141.9410  184.5948 C   0  0  0  0  0  0  0  0  0  0  0  0
  161.8625  142.1591  185.0014 N   0  0  0  0  0  0  0  0  0  0  0  0
 36 37  1  0  0  0
 37 38  2  0  0  0
 38 39  1  0  0  0
 39 40  1  0  0  0
 40 35  1  0  0  0
 35 23  1  0  0  0
 23 24  1  0  0  0
 24 25  2  0  0  0
 24 26  1  0  0  0
 26 27  1  0  0  0
 26 28  1  0  0  0
 28 29  1  0  0  0
 29 30  2  0  0  0
 30 31  1  0  0  0
 31 22  1  0  0  0
 22  1  1  0  0  0
  1  2  2  0  0  0
  1  3  1  0  0  0
  3  5  1  0  0  0
  5  6  2  0  0  0
  6  7  1  0  0  0
  7  8  2  0  0  0
  8  9  1  0  0  0
  9 10  2  0  0  0
  9 11  1  0  0  0
 11 12  2  0  0  0
 12 13  1  0  0  0
 13 14  2  0  0  0
 14 15  1  0  0  0
 15 16  1  0  0  0
 15 17  2  0  0  0
 14 18  1  0  0  0
 18 19  1  0  0  0
 18 20  1  0  0  0
 18 21  1  0  0  0
 31 32  1  0  0  0
 32 33  1  0  0  0
 33 34  2  0  0  0
 40 41  2  0  0  0
 41 37  1  0  0  0
 33 23  1  0  0  0
 32 28  2  0  0  0
 10  5  1  0  0  0
 17 11  1  0  0  0
  3  4  1  0  0  0
M  END
> <minimizedAffinity>
-10.02678

> <CNNscore>
0.5550367236

> <CNNaffinity>
7.2990865707

> <CNN_VS>
4.0512609482

> <CNNaffinity_variance>
0.3313035965

$$$$
[H]c1nc(C(F)(F)F)c(C([H])([H])[H])c([H])c1-c1nc(N([H])C(=O)C([H])([H])n2c([H])nc3c2c(=O)n(C([H])([H])c2nc(C([H])([H])[H])no2)c(=O)n3C([H])([H])[H])c([H])c([H])c1[H]


 41 45  0  0  0  0  0  0  0  0999 V2000
  153.3677  139.3671  182.5334 C   0  0  0  0  0  0  0  0  0  0  0  0
  153.1927  139.9793  181.4082 O   0  0  0  0  0  0  0  0  0  0  0  0
  152.8221  138.0779  182.5897 N   0  0  0  0  0  0  0  0  0  0  0  0
  152.3310  137.7648  181.6869 H   0  0  0  0  0  0  0  0  0  0  0  0
  152.8008  137.1450  183.6377 C   0  0  0  0  0  0  0  0  0  0  0  0
  152.3779  135.8345  183.3704 C   0  0  0  0  0  0  0  0  0  0  0  0
  152.3262  134.8723  184.3546 C   0  0  0  0  0  0  0  0  0  0  0  0
  152.7053  135.2229  185.6379 C   0  0  0  0  0  0  0  0  0  0  0  0
  153.1243  136.5037  185.9230 C   0  0  0  0  0  0  0  0  0  0  0  0
  153.1434  137.3744  184.9076 N   0  0  0  0  0  0  0  0  0  0  0  0
  153.5409  136.9108  187.2689 C   0  0  0  0  0  0  0  0  0  0  0  0
  152.6353  136.9040  188.3220 C   0  0  0  0  0  0  0  0  0  0  0  0
  153.0298  137.2828  189.5613 N   0  0  0  0  0  0  0  0  0  0  0  0
  154.2843  137.6772  189.8427 C   0  0  0  0  0  0  0  0  0  0  0  0
  155.2187  137.7021  188.8372 C   0  0  0  0  0  0  0  0  0  0  0  0
  156.6196  138.1258  189.0654 C   0  0  0  0  0  0  0  0  0  0  0  0
  154.8050  137.3100  187.5591 C   0  0  0  0  0  0  0  0  0  0  0  0
  154.6605  138.0874  191.2418 C   0  0  0  0  0  0  0  0  0  0  0  0
  153.5697  137.7791  192.0668 F   0  0  0  0  0  0  0  0  0  0  0  0
  154.8864  139.4255  191.3511 F   0  0  0  0  0  0  0  0  0  0  0  0
  155.7008  137.3224  191.7371 F   0  0  0  0  0  0  0  0  0  0  0  0
  154.0985  140.1110  183.5582 C   0  0  0  0  0  0  0  0  0  0  0  0
  158.2428  141.9802  183.1670 N   0  0  0  0  0  0  0  0  0  0  0  0
  158.2601  143.2490  182.7399 C   0  0  0  0  0  0  0  0  0  0  0  0
  159.3682  143.8726  182.6010 O   0  0  0  0  0  0  0  0  0  0  0  0
  157.0909  143.8372  182.4666 N   0  0  0  0  0  0  0  0  0  0  0  0
  157.1044  145.2078  182.0032 C   0  0  0  0  0  0  0  0  0  0  0  0
  155.9397  143.1573  182.6227 C   0  0  0  0  0  0  0  0  0  0  0  0
  154.6413  143.4855  182.4190 N   0  0  0  0  0  0  0  0  0  0  0  0
  153.8792  142.4262  182.7239 C   0  0  0  0  0  0  0  0  0  0  0  0
  154.6315  141.3882  183.1297 N   0  0  0  0  0  0  0  0  0  0  0  0
  155.9049  141.8314  183.0688 C   0  0  0  0  0  0  0  0  0  0  0  0
  157.1080  141.2583  183.3383 C   0  0  0  0  0  0  0  0  0  0  0  0
  157.1559  140.0670  183.7403 O   0  0  0  0  0  0  0  0  0  0  0  0
  159.5004  141.3242  183.4717 C   0  0  0  0  0  0  0  0  0  0  0  0
  162.6096  142.9298  187.1070 C   0  0  0  0  0  0  0  0  0  0  0  0
  161.4313  142.5196  186.3149 C   0  0  0  0  0  0  0  0  0  0  0  0
  160.1539  142.5025  186.7384 N   0  0  0  0  0  0  0  0  0  0  0  0
  159.3816  142.0899  185.7965 O   0  0  0  0  0  0  0  0  0  0  0  0
  160.0959  141.8189  184.7241 C   0  0  0  0  0  0  0  0  0  0  0  0
  161.3750  142.0865  185.0458 N   0  0  0  0  0  0  0  0  0  0  0  0
 36 37  1  0  0  0
 37 38  2  0  0  0
 38 39  1  0  0  0
 39 40  1  0  0  0
 40 35  1  0  0  0
 35 23  1  0  0  0
 23 24  1  0  0  0
 24 25  2  0  0  0
 24 26  1  0  0  0
 26 27  1  0  0  0
 26 28  1  0  0  0
 28 29  1  0  0  0
 29 30  2  0  0  0
 30 31  1  0  0  0
 31 22  1  0  0  0
 22  1  1  0  0  0
  1  2  2  0  0  0
  1  3  1  0  0  0
  3  5  1  0  0  0
  5  6  2  0  0  0
  6  7  1  0  0  0
  7  8  2  0  0  0
  8  9  1  0  0  0
  9 10  2  0  0  0
  9 11  1  0  0  0
 11 12  2  0  0  0
 12 13  1  0  0  0
 13 14  2  0  0  0
 14 15  1  0  0  0
 15 16  1  0  0  0
 15 17  2  0  0  0
 14 18  1  0  0  0
 18 19  1  0  0  0
 18 20  1  0  0  0
 18 21  1  0  0  0
 31 32  1  0  0  0
 32 33  1  0  0  0
 33 34  2  0  0  0
 40 41  2  0  0  0
 41 37  1  0  0  0
 33 23  1  0  0  0
 32 28  2  0  0  0
 10  5  1  0  0  0
 17 11  1  0  0  0
  3  4  1  0  0  0
M  END
> <minimizedAffinity>
-9.75325

> <CNNscore>
0.4697158337

> <CNNaffinity>
7.1980886459

> <CNN_VS>
3.3810563087

> <CNNaffinity_variance>
0.4693110585

$$$$
[H]c1nc(C(F)(F)F)c(C([H])([H])[H])c([H])c1-c1nc(N([H])C(=O)C([H])([H])n2c([H])nc3c2c(=O)n(C([H])([H])c2nc(C([H])([H])[H])no2)c(=O)n3C([H])([H])[H])c([H])c([H])c1[H]


 41 45  0  0  0  0  0  0  0  0999 V2000
  153.2307  139.1446  182.4750 C   0  0  0  0  0  0  0  0  0  0  0  0
  153.1912  139.5397  181.2447 O   0  0  0  0  0  0  0  0  0  0  0  0
  152.2047  138.2633  182.8402 N   0  0  0  0  0  0  0  0  0  0  0  0
  151.5193  138.0281  182.0470 H   0  0  0  0  0  0  0  0  0  0  0  0
  151.9230  137.6577  184.0744 C   0  0  0  0  0  0  0  0  0  0  0  0
  150.7704  136.8673  184.1944 C   0  0  0  0  0  0  0  0  0  0  0  0
  150.4318  136.2510  185.3787 C   0  0  0  0  0  0  0  0  0  0  0  0
  151.2614  136.4253  186.4718 C   0  0  0  0  0  0  0  0  0  0  0  0
  152.3985  137.1969  186.3765 C   0  0  0  0  0  0  0  0  0  0  0  0
  152.6510  137.7587  185.1890 N   0  0  0  0  0  0  0  0  0  0  0  0
  153.3060  137.3988  187.5107 C   0  0  0  0  0  0  0  0  0  0  0  0
  154.6024  137.8541  187.3070 C   0  0  0  0  0  0  0  0  0  0  0  0
  155.4332  138.0365  188.3613 N   0  0  0  0  0  0  0  0  0  0  0  0
  155.0676  137.7961  189.6329 C   0  0  0  0  0  0  0  0  0  0  0  0
  153.7966  137.3446  189.8892 C   0  0  0  0  0  0  0  0  0  0  0  0
  153.3185  137.0548  191.2608 C   0  0  0  0  0  0  0  0  0  0  0  0
  152.9433  137.1578  188.7960 C   0  0  0  0  0  0  0  0  0  0  0  0
  156.0388  138.0179  190.7620 C   0  0  0  0  0  0  0  0  0  0  0  0
  157.2673  138.3668  190.1836 F   0  0  0  0  0  0  0  0  0  0  0  0
  156.2438  136.8945  191.5032 F   0  0  0  0  0  0  0  0  0  0  0  0
  155.6896  139.1143  191.5293 F   0  0  0  0  0  0  0  0  0  0  0  0
  154.3279  139.6765  183.2817 C   0  0  0  0  0  0  0  0  0  0  0  0
  158.2978  141.9124  183.0294 N   0  0  0  0  0  0  0  0  0  0  0  0
  158.2065  143.2030  182.6850 C   0  0  0  0  0  0  0  0  0  0  0  0
  159.2574  143.9261  182.5913 O   0  0  0  0  0  0  0  0  0  0  0  0
  156.9912  143.7062  182.4452 N   0  0  0  0  0  0  0  0  0  0  0  0
  156.8875  145.1000  182.0710 C   0  0  0  0  0  0  0  0  0  0  0  0
  155.9022  142.9222  182.5522 C   0  0  0  0  0  0  0  0  0  0  0  0
  154.5804  143.1514  182.3645 N   0  0  0  0  0  0  0  0  0  0  0  0
  153.9115  142.0137  182.5973 C   0  0  0  0  0  0  0  0  0  0  0  0
  154.7499  141.0193  182.9387 N   0  0  0  0  0  0  0  0  0  0  0  0
  155.9809  141.5721  182.9119 C   0  0  0  0  0  0  0  0  0  0  0  0
  157.2286  141.0871  183.1490 C   0  0  0  0  0  0  0  0  0  0  0  0
  157.3781  139.8807  183.4737 O   0  0  0  0  0  0  0  0  0  0  0  0
  159.6069  141.3473  183.2967 C   0  0  0  0  0  0  0  0  0  0  0  0
  162.5389  142.9869  187.0618 C   0  0  0  0  0  0  0  0  0  0  0  0
  161.4105  142.5078  186.2362 C   0  0  0  0  0  0  0  0  0  0  0  0
  160.1503  142.2938  186.6575 N   0  0  0  0  0  0  0  0  0  0  0  0
  159.4233  141.8764  185.6823 O   0  0  0  0  0  0  0  0  0  0  0  0
  160.1523  141.7954  184.5888 C   0  0  0  0  0  0  0  0  0  0  0  0
  161.3924  142.1890  184.9327 N   0  0  0  0  0  0  0  0  0  0  0  0
 36 37  1  0  0  0
 37 38  2  0  0  0
 38 39  1  0  0  0
 39 40  1  0  0  0
 40 35  1  0  0  0
 35 23  1  0  0  0
 23 24  1  0  0  0
 24 25  2  0  0  0
 24 26  1  0  0  0
 26 27  1  0  0  0
 26 28  1  0  0  0
 28 29  1  0  0  0
 29 30  2  0  0  0
 30 31  1  0  0  0
 31 22  1  0  0  0
 22  1  1  0  0  0
  1  2  2  0  0  0
  1  3  1  0  0  0
  3  5  1  0  0  0
  5  6  2  0  0  0
  6  7  1  0  0  0
  7  8  2  0  0  0
  8  9  1  0  0  0
  9 10  2  0  0  0
  9 11  1  0  0  0
 11 12  2  0  0  0
 12 13  1  0  0  0
 13 14  2  0  0  0
 14 15  1  0  0  0
 15 16  1  0  0  0
 15 17  2  0  0  0
 14 18  1  0  0  0
 18 19  1  0  0  0
 18 20  1  0  0  0
 18 21  1  0  0  0
 31 32  1  0  0  0
 32 33  1  0  0  0
 33 34  2  0  0  0
 40 41  2  0  0  0
 41 37  1  0  0  0
 33 23  1  0  0  0
 32 28  2  0  0  0
 10  5  1  0  0  0
 17 11  1  0  0  0
  3  4  1  0  0  0
M  END
> <minimizedAffinity>
-10.12803

> <CNNscore>
0.4484938383

> <CNNaffinity>
7.1669073105

> <CNN_VS>
3.2143137455

> <CNNaffinity_variance>
0.4441412091

$$$$
[H]c1nc(C(F)(F)F)c(C([H])([H])[H])c([H])c1-c1nc(N([H])C(=O)C([H])([H])n2c([H])nc3c2c(=O)n(C([H])([H])c2nc(C([H])([H])[H])no2)c(=O)n3C([H])([H])[H])c([H])c([H])c1[H]


 41 45  0  0  0  0  0  0  0  0999 V2000
  155.4077  138.4610  185.6618 C   0  0  0  0  0  0  0  0  0  0  0  0
  156.4585  138.8183  186.3248 O   0  0  0  0  0  0  0  0  0  0  0  0
  154.3342  138.0313  186.4528 N   0  0  0  0  0  0  0  0  0  0  0  0
  154.5242  138.0579  187.5099 H   0  0  0  0  0  0  0  0  0  0  0  0
  153.0656  137.5583  186.0840 C   0  0  0  0  0  0  0  0  0  0  0  0
  152.3395  136.7809  186.9984 C   0  0  0  0  0  0  0  0  0  0  0  0
  151.0926  136.2795  186.6972 C   0  0  0  0  0  0  0  0  0  0  0  0
  150.5538  136.5589  185.4541 C   0  0  0  0  0  0  0  0  0  0  0  0
  151.2489  137.3204  184.5407 C   0  0  0  0  0  0  0  0  0  0  0  0
  152.4529  137.7665  184.9161 N   0  0  0  0  0  0  0  0  0  0  0  0
  150.7079  137.6439  183.2166 C   0  0  0  0  0  0  0  0  0  0  0  0
  149.3783  137.3813  182.9122 C   0  0  0  0  0  0  0  0  0  0  0  0
  148.8885  137.6829  181.6858 N   0  0  0  0  0  0  0  0  0  0  0  0
  149.6346  138.2386  180.7148 C   0  0  0  0  0  0  0  0  0  0  0  0
  150.9553  138.5186  180.9639 C   0  0  0  0  0  0  0  0  0  0  0  0
  151.8433  139.1280  179.9470 C   0  0  0  0  0  0  0  0  0  0  0  0
  151.4556  138.2044  182.2325 C   0  0  0  0  0  0  0  0  0  0  0  0
  149.0309  138.5495  179.3708 C   0  0  0  0  0  0  0  0  0  0  0  0
  147.7434  139.0521  179.6060 F   0  0  0  0  0  0  0  0  0  0  0  0
  148.8980  137.4429  178.5891 F   0  0  0  0  0  0  0  0  0  0  0  0
  149.6986  139.5813  178.7363 F   0  0  0  0  0  0  0  0  0  0  0  0
  155.5068  138.5598  184.2064 C   0  0  0  0  0  0  0  0  0  0  0  0
  158.6399  141.6977  183.1297 N   0  0  0  0  0  0  0  0  0  0  0  0
  158.1531  142.8631  182.6855 C   0  0  0  0  0  0  0  0  0  0  0  0
  158.9429  143.8158  182.3617 O   0  0  0  0  0  0  0  0  0  0  0  0
  156.8260  142.9968  182.5930 N   0  0  0  0  0  0  0  0  0  0  0  0
  156.2952  144.2539  182.1119 C   0  0  0  0  0  0  0  0  0  0  0  0
  156.0184  141.9778  182.9414 C   0  0  0  0  0  0  0  0  0  0  0  0
  154.6720  141.8286  182.9423 N   0  0  0  0  0  0  0  0  0  0  0  0
  154.3783  140.5970  183.3815 C   0  0  0  0  0  0  0  0  0  0  0  0
  155.4947  139.9088  183.6784 N   0  0  0  0  0  0  0  0  0  0  0  0
  156.5115  140.7542  183.4082 C   0  0  0  0  0  0  0  0  0  0  0  0
  157.8642  140.6460  183.4912 C   0  0  0  0  0  0  0  0  0  0  0  0
  158.3808  139.5736  183.8991 O   0  0  0  0  0  0  0  0  0  0  0  0
  160.0770  141.5328  183.2402 C   0  0  0  0  0  0  0  0  0  0  0  0
  162.9357  142.9214  187.1595 C   0  0  0  0  0  0  0  0  0  0  0  0
  161.8122  142.5701  186.2657 C   0  0  0  0  0  0  0  0  0  0  0  0
  160.5065  142.5662  186.5919 N   0  0  0  0  0  0  0  0  0  0  0  0
  159.7991  142.2090  185.5791 O   0  0  0  0  0  0  0  0  0  0  0  0
  160.5865  141.9638  184.5526 C   0  0  0  0  0  0  0  0  0  0  0  0
  161.8428  142.1887  184.9793 N   0  0  0  0  0  0  0  0  0  0  0  0
 36 37  1  0  0  0
 37 38  2  0  0  0
 38 39  1  0  0  0
 39 40  1  0  0  0
 40 35  1  0  0  0
 35 23  1  0  0  0
 23 24  1  0  0  0
 24 25  2  0  0  0
 24 26  1  0  0  0
 26 27  1  0  0  0
 26 28  1  0  0  0
 28 29  1  0  0  0
 29 30  2  0  0  0
 30 31  1  0  0  0
 31 22  1  0  0  0
 22  1  1  0  0  0
  1  2  2  0  0  0
  1  3  1  0  0  0
  3  5  1  0  0  0
  5  6  2  0  0  0
  6  7  1  0  0  0
  7  8  2  0  0  0
  8  9  1  0  0  0
  9 10  2  0  0  0
  9 11  1  0  0  0
 11 12  2  0  0  0
 12 13  1  0  0  0
 13 14  2  0  0  0
 14 15  1  0  0  0
 15 16  1  0  0  0
 15 17  2  0  0  0
 14 18  1  0  0  0
 18 19  1  0  0  0
 18 20  1  0  0  0
 18 21  1  0  0  0
 31 32  1  0  0  0
 32 33  1  0  0  0
 33 34  2  0  0  0
 40 41  2  0  0  0
 41 37  1  0  0  0
 33 23  1  0  0  0
 32 28  2  0  0  0
 10  5  1  0  0  0
 17 11  1  0  0  0
  3  4  1  0  0  0
M  END
> <minimizedAffinity>
-9.23503

> <CNNscore>
0.4443252683

> <CNNaffinity>
6.9685120583

> <CNN_VS>
3.0962860584

> <CNNaffinity_variance>
0.3499177396

$$$$
[H]c1nc(C(F)(F)F)c(C([H])([H])[H])c([H])c1-c1nc(N([H])C(=O)C([H])([H])n2c([H])nc3c2c(=O)n(C([H])([H])c2nc(C([H])([H])[H])no2)c(=O)n3C([H])([H])[H])c([H])c([H])c1[H]


 41 45  0  0  0  0  0  0  0  0999 V2000
  155.7840  138.5381  186.0249 C   0  0  0  0  0  0  0  0  0  0  0  0
  156.9772  138.9382  186.3209 O   0  0  0  0  0  0  0  0  0  0  0  0
  155.0293  138.0890  187.1165 N   0  0  0  0  0  0  0  0  0  0  0  0
  155.5413  138.1389  188.0597 H   0  0  0  0  0  0  0  0  0  0  0  0
  153.7260  137.5715  187.1691 C   0  0  0  0  0  0  0  0  0  0  0  0
  152.9693  137.5185  185.9891 C   0  0  0  0  0  0  0  0  0  0  0  0
  151.6819  137.0294  185.9726 C   0  0  0  0  0  0  0  0  0  0  0  0
  151.1331  136.5812  187.1606 C   0  0  0  0  0  0  0  0  0  0  0  0
  151.8580  136.6235  188.3311 C   0  0  0  0  0  0  0  0  0  0  0  0
  153.1003  137.1140  188.2563 N   0  0  0  0  0  0  0  0  0  0  0  0
  151.3133  136.1508  189.6080 C   0  0  0  0  0  0  0  0  0  0  0  0
  150.1122  135.4545  189.6503 C   0  0  0  0  0  0  0  0  0  0  0  0
  149.6171  135.0230  190.8350 N   0  0  0  0  0  0  0  0  0  0  0  0
  150.2372  135.2343  192.0094 C   0  0  0  0  0  0  0  0  0  0  0  0
  151.4279  135.9175  192.0232 C   0  0  0  0  0  0  0  0  0  0  0  0
  152.1710  136.1925  193.2747 C   0  0  0  0  0  0  0  0  0  0  0  0
  151.9341  136.3611  190.7963 C   0  0  0  0  0  0  0  0  0  0  0  0
  149.6343  134.7294  193.2935 C   0  0  0  0  0  0  0  0  0  0  0  0
  148.3922  134.1657  192.9695 F   0  0  0  0  0  0  0  0  0  0  0  0
  149.4052  135.7272  194.1910 F   0  0  0  0  0  0  0  0  0  0  0  0
  150.3654  133.6828  193.8253 F   0  0  0  0  0  0  0  0  0  0  0  0
  155.4166  138.6156  184.6119 C   0  0  0  0  0  0  0  0  0  0  0  0
  158.5126  141.4488  182.8200 N   0  0  0  0  0  0  0  0  0  0  0  0
  158.0429  142.6441  182.4418 C   0  0  0  0  0  0  0  0  0  0  0  0
  158.8259  143.5184  181.9332 O   0  0  0  0  0  0  0  0  0  0  0  0
  156.7400  142.8914  182.6125 N   0  0  0  0  0  0  0  0  0  0  0  0
  156.2273  144.1811  182.2038 C   0  0  0  0  0  0  0  0  0  0  0  0
  155.9392  141.9530  183.1511 C   0  0  0  0  0  0  0  0  0  0  0  0
  154.6133  141.9218  183.4270 N   0  0  0  0  0  0  0  0  0  0  0  0
  154.3149  140.7285  183.9590 C   0  0  0  0  0  0  0  0  0  0  0  0
  155.4082  139.9510  184.0501 N   0  0  0  0  0  0  0  0  0  0  0  0
  156.4149  140.6996  183.5521 C   0  0  0  0  0  0  0  0  0  0  0  0
  157.7428  140.4753  183.3662 C   0  0  0  0  0  0  0  0  0  0  0  0
  158.2418  139.3694  183.6997 O   0  0  0  0  0  0  0  0  0  0  0  0
  159.9238  141.1612  182.6460 C   0  0  0  0  0  0  0  0  0  0  0  0
  161.6015  143.3494  186.8719 C   0  0  0  0  0  0  0  0  0  0  0  0
  161.4833  142.6147  185.5949 C   0  0  0  0  0  0  0  0  0  0  0  0
  162.4881  142.0300  184.9168 N   0  0  0  0  0  0  0  0  0  0  0  0
  162.0369  141.4806  183.8451 O   0  0  0  0  0  0  0  0  0  0  0  0
  160.7366  141.6709  183.7628 C   0  0  0  0  0  0  0  0  0  0  0  0
  160.3896  142.3783  184.8538 N   0  0  0  0  0  0  0  0  0  0  0  0
 36 37  1  0  0  0
 37 38  2  0  0  0
 38 39  1  0  0  0
 39 40  1  0  0  0
 40 35  1  0  0  0
 35 23  1  0  0  0
 23 24  1  0  0  0
 24 25  2  0  0  0
 24 26  1  0  0  0
 26 27  1  0  0  0
 26 28  1  0  0  0
 28 29  1  0  0  0
 29 30  2  0  0  0
 30 31  1  0  0  0
 31 22  1  0  0  0
 22  1  1  0  0  0
  1  2  2  0  0  0
  1  3  1  0  0  0
  3  5  1  0  0  0
  5  6  2  0  0  0
  6  7  1  0  0  0
  7  8  2  0  0  0
  8  9  1  0  0  0
  9 10  2  0  0  0
  9 11  1  0  0  0
 11 12  2  0  0  0
 12 13  1  0  0  0
 13 14  2  0  0  0
 14 15  1  0  0  0
 15 16  1  0  0  0
 15 17  2  0  0  0
 14 18  1  0  0  0
 18 19  1  0  0  0
 18 20  1  0  0  0
 18 21  1  0  0  0
 31 32  1  0  0  0
 32 33  1  0  0  0
 33 34  2  0  0  0
 40 41  2  0  0  0
 41 37  1  0  0  0
 33 23  1  0  0  0
 32 28  2  0  0  0
 10  5  1  0  0  0
 17 11  1  0  0  0
  3  4  1  0  0  0
M  END
> <minimizedAffinity>
-8.77775

> <CNNscore>
0.4301259816

> <CNNaffinity>
6.6072397232

> <CNN_VS>
2.8419454098

> <CNNaffinity_variance>
0.1199087128

$$$$
[H]c1nc(C(F)(F)F)c(C([H])([H])[H])c([H])c1-c1nc(N([H])C(=O)C([H])([H])n2c([H])nc3c2c(=O)n(C([H])([H])c2nc(C([H])([H])[H])no2)c(=O)n3C([H])([H])[H])c([H])c([H])c1[H]


 41 45  0  0  0  0  0  0  0  0999 V2000
  153.6609  139.1265  183.4017 C   0  0  0  0  0  0  0  0  0  0  0  0
  153.1806  139.7861  182.3989 O   0  0  0  0  0  0  0  0  0  0  0  0
  153.1892  137.8125  183.5183 N   0  0  0  0  0  0  0  0  0  0  0  0
  152.4905  137.5232  182.7551 H   0  0  0  0  0  0  0  0  0  0  0  0
  153.4698  136.8277  184.4777 C   0  0  0  0  0  0  0  0  0  0  0  0
  154.1286  135.6566  184.0748 C   0  0  0  0  0  0  0  0  0  0  0  0
  154.4273  134.6481  184.9639 C   0  0  0  0  0  0  0  0  0  0  0  0
  154.0615  134.8088  186.2883 C   0  0  0  0  0  0  0  0  0  0  0  0
  153.4143  135.9506  186.7062 C   0  0  0  0  0  0  0  0  0  0  0  0
  153.1632  136.8788  185.7762 N   0  0  0  0  0  0  0  0  0  0  0  0
  153.0175  136.1603  188.1023 C   0  0  0  0  0  0  0  0  0  0  0  0
  153.8558  136.8324  188.9826 C   0  0  0  0  0  0  0  0  0  0  0  0
  153.4804  137.0200  190.2706 N   0  0  0  0  0  0  0  0  0  0  0  0
  152.3089  136.5815  190.7641 C   0  0  0  0  0  0  0  0  0  0  0  0
  151.4434  135.9111  189.9356 C   0  0  0  0  0  0  0  0  0  0  0  0
  150.1360  135.3952  190.4031 C   0  0  0  0  0  0  0  0  0  0  0  0
  151.8369  135.7201  188.6064 C   0  0  0  0  0  0  0  0  0  0  0  0
  151.9498  136.8212  192.2067 C   0  0  0  0  0  0  0  0  0  0  0  0
  152.8650  137.7581  192.7068 F   0  0  0  0  0  0  0  0  0  0  0  0
  152.0631  135.6976  192.9670 F   0  0  0  0  0  0  0  0  0  0  0  0
  150.7169  137.4353  192.3319 F   0  0  0  0  0  0  0  0  0  0  0  0
  154.6091  139.8504  184.2471 C   0  0  0  0  0  0  0  0  0  0  0  0
  158.5385  141.7357  182.8951 N   0  0  0  0  0  0  0  0  0  0  0  0
  158.4573  143.0170  182.5155 C   0  0  0  0  0  0  0  0  0  0  0  0
  159.5003  143.6459  182.1245 O   0  0  0  0  0  0  0  0  0  0  0  0
  157.2608  143.6120  182.5591 N   0  0  0  0  0  0  0  0  0  0  0  0
  157.1677  144.9962  182.1483 C   0  0  0  0  0  0  0  0  0  0  0  0
  156.1800  142.9262  182.9757 C   0  0  0  0  0  0  0  0  0  0  0  0
  154.8739  143.2590  183.1109 N   0  0  0  0  0  0  0  0  0  0  0  0
  154.2045  142.1899  183.5635 C   0  0  0  0  0  0  0  0  0  0  0  0
  155.0273  141.1408  183.7383 N   0  0  0  0  0  0  0  0  0  0  0  0
  156.2485  141.5872  183.3764 C   0  0  0  0  0  0  0  0  0  0  0  0
  157.4770  141.0075  183.3211 C   0  0  0  0  0  0  0  0  0  0  0  0
  157.6155  139.8044  183.6627 O   0  0  0  0  0  0  0  0  0  0  0  0
  159.8280  141.0721  182.8580 C   0  0  0  0  0  0  0  0  0  0  0  0
  161.8869  143.1510  186.9689 C   0  0  0  0  0  0  0  0  0  0  0  0
  161.6540  142.4729  185.6766 C   0  0  0  0  0  0  0  0  0  0  0  0
  162.5988  141.9827  184.8530 N   0  0  0  0  0  0  0  0  0  0  0  0
  162.0509  141.4595  183.8138 O   0  0  0  0  0  0  0  0  0  0  0  0
  160.7419  141.5753  183.8969 C   0  0  0  0  0  0  0  0  0  0  0  0
  160.4926  142.2074  185.0586 N   0  0  0  0  0  0  0  0  0  0  0  0
 36 37  1  0  0  0
 37 38  2  0  0  0
 38 39  1  0  0  0
 39 40  1  0  0  0
 40 35  1  0  0  0
 35 23  1  0  0  0
 23 24  1  0  0  0
 24 25  2  0  0  0
 24 26  1  0  0  0
 26 27  1  0  0  0
 26 28  1  0  0  0
 28 29  1  0  0  0
 29 30  2  0  0  0
 30 31  1  0  0  0
 31 22  1  0  0  0
 22  1  1  0  0  0
  1  2  2  0  0  0
  1  3  1  0  0  0
  3  5  1  0  0  0
  5  6  2  0  0  0
  6  7  1  0  0  0
  7  8  2  0  0  0
  8  9  1  0  0  0
  9 10  2  0  0  0
  9 11  1  0  0  0
 11 12  2  0  0  0
 12 13  1  0  0  0
 13 14  2  0  0  0
 14 15  1  0  0  0
 15 16  1  0  0  0
 15 17  2  0  0  0
 14 18  1  0  0  0
 18 19  1  0  0  0
 18 20  1  0  0  0
 18 21  1  0  0  0
 31 32  1  0  0  0
 32 33  1  0  0  0
 33 34  2  0  0  0
 40 41  2  0  0  0
 41 37  1  0  0  0
 33 23  1  0  0  0
 32 28  2  0  0  0
 10  5  1  0  0  0
 17 11  1  0  0  0
  3  4  1  0  0  0
M  END
> <minimizedAffinity>
-9.24657

> <CNNscore>
0.4193628728

> <CNNaffinity>
6.9025421143

> <CNN_VS>
2.8946700096

> <CNNaffinity_variance>
0.1433406174

$$$$
[H]c1nc(C(F)(F)F)c(C([H])([H])[H])c([H])c1-c1nc(N([H])C(=O)C([H])([H])n2c([H])nc3c2c(=O)n(C([H])([H])c2nc(C([H])([H])[H])no2)c(=O)n3C([H])([H])[H])c([H])c([H])c1[H]


 41 45  0  0  0  0  0  0  0  0999 V2000
  153.0821  138.7608  182.7301 C   0  0  0  0  0  0  0  0  0  0  0  0
  152.7977  139.1948  181.5460 O   0  0  0  0  0  0  0  0  0  0  0  0
  152.1347  137.8850  183.2761 N   0  0  0  0  0  0  0  0  0  0  0  0
  151.2950  137.6857  182.6362 H   0  0  0  0  0  0  0  0  0  0  0  0
  152.1012  137.2456  184.5247 C   0  0  0  0  0  0  0  0  0  0  0  0
  150.8604  137.0265  185.1413 C   0  0  0  0  0  0  0  0  0  0  0  0
  150.7575  136.4116  186.3694 C   0  0  0  0  0  0  0  0  0  0  0  0
  151.9190  136.0038  187.0004 C   0  0  0  0  0  0  0  0  0  0  0  0
  153.1481  136.2084  186.4133 C   0  0  0  0  0  0  0  0  0  0  0  0
  153.1558  136.8132  185.2201 N   0  0  0  0  0  0  0  0  0  0  0  0
  154.4003  135.7836  187.0476 C   0  0  0  0  0  0  0  0  0  0  0  0
  155.0026  134.5840  186.6908 C   0  0  0  0  0  0  0  0  0  0  0  0
  156.1586  134.2002  187.2835 N   0  0  0  0  0  0  0  0  0  0  0  0
  156.7780  134.9331  188.2256 C   0  0  0  0  0  0  0  0  0  0  0  0
  156.2244  136.1277  188.6146 C   0  0  0  0  0  0  0  0  0  0  0  0
  156.8436  136.9911  189.6466 C   0  0  0  0  0  0  0  0  0  0  0  0
  155.0300  136.5185  187.9991 C   0  0  0  0  0  0  0  0  0  0  0  0
  158.0617  134.4507  188.8474 C   0  0  0  0  0  0  0  0  0  0  0  0
  158.3427  133.1966  188.2874 F   0  0  0  0  0  0  0  0  0  0  0  0
  157.9581  134.2797  190.1941 F   0  0  0  0  0  0  0  0  0  0  0  0
  159.1354  135.2438  188.4854 F   0  0  0  0  0  0  0  0  0  0  0  0
  154.3340  139.2497  183.3058 C   0  0  0  0  0  0  0  0  0  0  0  0
  158.1792  141.6950  183.0651 N   0  0  0  0  0  0  0  0  0  0  0  0
  158.0217  142.9743  182.7033 C   0  0  0  0  0  0  0  0  0  0  0  0
  159.0328  143.7524  182.6109 O   0  0  0  0  0  0  0  0  0  0  0  0
  156.7836  143.4077  182.4446 N   0  0  0  0  0  0  0  0  0  0  0  0
  156.6085  144.7891  182.0516 C   0  0  0  0  0  0  0  0  0  0  0  0
  155.7376  142.5670  182.5507 C   0  0  0  0  0  0  0  0  0  0  0  0
  154.4074  142.7216  182.3467 N   0  0  0  0  0  0  0  0  0  0  0  0
  153.7988  141.5522  182.5873 C   0  0  0  0  0  0  0  0  0  0  0  0
  154.6861  140.6092  182.9499 N   0  0  0  0  0  0  0  0  0  0  0  0
  155.8855  141.2278  182.9285 C   0  0  0  0  0  0  0  0  0  0  0  0
  157.1552  140.8143  183.1844 C   0  0  0  0  0  0  0  0  0  0  0  0
  157.3664  139.6219  183.5261 O   0  0  0  0  0  0  0  0  0  0  0  0
  159.5141  141.2052  183.3528 C   0  0  0  0  0  0  0  0  0  0  0  0
  162.3228  143.1467  187.0681 C   0  0  0  0  0  0  0  0  0  0  0  0
  161.2340  142.5585  186.2599 C   0  0  0  0  0  0  0  0  0  0  0  0
  160.0020  142.2381  186.6967 N   0  0  0  0  0  0  0  0  0  0  0  0
  159.3061  141.7455  185.7339 O   0  0  0  0  0  0  0  0  0  0  0  0
  160.0292  141.7162  184.6339 C   0  0  0  0  0  0  0  0  0  0  0  0
  161.2324  142.2232  184.9604 N   0  0  0  0  0  0  0  0  0  0  0  0
 36 37  1  0  0  0
 37 38  2  0  0  0
 38 39  1  0  0  0
 39 40  1  0  0  0
 40 35  1  0  0  0
 35 23  1  0  0  0
 23 24  1  0  0  0
 24 25  2  0  0  0
 24 26  1  0  0  0
 26 27  1  0  0  0
 26 28  1  0  0  0
 28 29  1  0  0  0
 29 30  2  0  0  0
 30 31  1  0  0  0
 31 22  1  0  0  0
 22  1  1  0  0  0
  1  2  2  0  0  0
  1  3  1  0  0  0
  3  5  1  0  0  0
  5  6  2  0  0  0
  6  7  1  0  0  0
  7  8  2  0  0  0
  8  9  1  0  0  0
  9 10  2  0  0  0
  9 11  1  0  0  0
 11 12  2  0  0  0
 12 13  1  0  0  0
 13 14  2  0  0  0
 14 15  1  0  0  0
 15 16  1  0  0  0
 15 17  2  0  0  0
 14 18  1  0  0  0
 18 19  1  0  0  0
 18 20  1  0  0  0
 18 21  1  0  0  0
 31 32  1  0  0  0
 32 33  1  0  0  0
 33 34  2  0  0  0
 40 41  2  0  0  0
 41 37  1  0  0  0
 33 23  1  0  0  0
 32 28  2  0  0  0
 10  5  1  0  0  0
 17 11  1  0  0  0
  3  4  1  0  0  0
M  END
> <minimizedAffinity>
-8.74783

> <CNNscore>
0.3478881419

> <CNNaffinity>
7.0206289291

> <CNN_VS>
2.4423935413

> <CNNaffinity_variance>
0.2628750205

$$$$
[H]c1nc(C(F)(F)F)c(C([H])([H])[H])c([H])c1-c1nc(N([H])C(=O)C([H])([H])n2c([H])nc3c2c(=O)n(C([H])([H])c2nc(C([H])([H])[H])no2)c(=O)n3C([H])([H])[H])c([H])c([H])c1[H]


 41 45  0  0  0  0  0  0  0  0999 V2000
  154.8895  138.3622  186.1115 C   0  0  0  0  0  0  0  0  0  0  0  0
  155.7006  137.5956  186.7642 O   0  0  0  0  0  0  0  0  0  0  0  0
  155.3888  138.8407  184.8931 N   0  0  0  0  0  0  0  0  0  0  0  0
  156.3819  138.5045  184.6585 H   0  0  0  0  0  0  0  0  0  0  0  0
  154.8073  139.6976  183.9462 C   0  0  0  0  0  0  0  0  0  0  0  0
  155.3370  140.9861  183.7822 C   0  0  0  0  0  0  0  0  0  0  0  0
  154.8091  141.8791  182.8762 C   0  0  0  0  0  0  0  0  0  0  0  0
  153.7263  141.4799  182.1134 C   0  0  0  0  0  0  0  0  0  0  0  0
  153.1903  140.2193  182.2576 C   0  0  0  0  0  0  0  0  0  0  0  0
  153.7647  139.4169  183.1607 N   0  0  0  0  0  0  0  0  0  0  0  0
  152.0480  139.7576  181.4621 C   0  0  0  0  0  0  0  0  0  0  0  0
  152.0331  139.9235  180.0831 C   0  0  0  0  0  0  0  0  0  0  0  0
  150.9727  139.4944  179.3575 N   0  0  0  0  0  0  0  0  0  0  0  0
  149.9003  138.8987  179.9083 C   0  0  0  0  0  0  0  0  0  0  0  0
  149.8648  138.7104  181.2677 C   0  0  0  0  0  0  0  0  0  0  0  0
  148.7196  138.0649  181.9502 C   0  0  0  0  0  0  0  0  0  0  0  0
  150.9628  139.1561  182.0119 C   0  0  0  0  0  0  0  0  0  0  0  0
  148.7520  138.4445  179.0466 C   0  0  0  0  0  0  0  0  0  0  0  0
  148.7238  137.0441  179.1059 F   0  0  0  0  0  0  0  0  0  0  0  0
  148.9098  138.7922  177.7398 F   0  0  0  0  0  0  0  0  0  0  0  0
  147.5336  138.8412  179.5671 F   0  0  0  0  0  0  0  0  0  0  0  0
  153.5940  138.6065  186.7435 C   0  0  0  0  0  0  0  0  0  0  0  0
  152.2833  135.0987  189.3512 N   0  0  0  0  0  0  0  0  0  0  0  0
  151.3536  134.3006  188.8114 C   0  0  0  0  0  0  0  0  0  0  0  0
  150.9191  133.2830  189.4531 O   0  0  0  0  0  0  0  0  0  0  0  0
  150.8992  134.5999  187.5901 N   0  0  0  0  0  0  0  0  0  0  0  0
  149.8933  133.7414  187.0031 C   0  0  0  0  0  0  0  0  0  0  0  0
  151.3750  135.6768  186.9373 C   0  0  0  0  0  0  0  0  0  0  0  0
  151.0996  136.2148  185.7250 N   0  0  0  0  0  0  0  0  0  0  0  0
  151.8574  137.3076  185.5597 C   0  0  0  0  0  0  0  0  0  0  0  0
  152.6400  137.5219  186.6320 N   0  0  0  0  0  0  0  0  0  0  0  0
  152.3469  136.5199  187.4874 C   0  0  0  0  0  0  0  0  0  0  0  0
  152.7901  136.1923  188.7302 C   0  0  0  0  0  0  0  0  0  0  0  0
  153.6615  136.9063  189.2905 O   0  0  0  0  0  0  0  0  0  0  0  0
  152.7918  134.7902  190.6744 C   0  0  0  0  0  0  0  0  0  0  0  0
  149.9911  135.2942  194.8413 C   0  0  0  0  0  0  0  0  0  0  0  0
  150.6694  135.4980  193.5441 C   0  0  0  0  0  0  0  0  0  0  0  0
  150.5624  136.5801  192.7510 N   0  0  0  0  0  0  0  0  0  0  0  0
  151.2832  136.4284  191.6969 O   0  0  0  0  0  0  0  0  0  0  0  0
  151.8910  135.2610  191.7395 C   0  0  0  0  0  0  0  0  0  0  0  0
  151.5091  134.6794  192.8914 N   0  0  0  0  0  0  0  0  0  0  0  0
 36 37  1  0  0  0
 37 38  2  0  0  0
 38 39  1  0  0  0
 39 40  1  0  0  0
 40 35  1  0  0  0
 35 23  1  0  0  0
 23 24  1  0  0  0
 24 25  2  0  0  0
 24 26  1  0  0  0
 26 27  1  0  0  0
 26 28  1  0  0  0
 28 29  1  0  0  0
 29 30  2  0  0  0
 30 31  1  0  0  0
 31 22  1  0  0  0
 22  1  1  0  0  0
  1  2  2  0  0  0
  1  3  1  0  0  0
  3  5  1  0  0  0
  5  6  2  0  0  0
  6  7  1  0  0  0
  7  8  2  0  0  0
  8  9  1  0  0  0
  9 10  2  0  0  0
  9 11  1  0  0  0
 11 12  2  0  0  0
 12 13  1  0  0  0
 13 14  2  0  0  0
 14 15  1  0  0  0
 15 16  1  0  0  0
 15 17  2  0  0  0
 14 18  1  0  0  0
 18 19  1  0  0  0
 18 20  1  0  0  0
 18 21  1  0  0  0
 31 32  1  0  0  0
 32 33  1  0  0  0
 33 34  2  0  0  0
 40 41  2  0  0  0
 41 37  1  0  0  0
 33 23  1  0  0  0
 32 28  2  0  0  0
 10  5  1  0  0  0
 17 11  1  0  0  0
  3  4  1  0  0  0
M  END
> <minimizedAffinity>
-7.82099

> <CNNscore>
0.3110217154

> <CNNaffinity>
6.1555490494

> <CNN_VS>
1.9145094156

> <CNNaffinity_variance>
0.1735376567

$$$$
[H]c1nc(C(F)(F)F)c(C([H])([H])[H])c([H])c1-c1nc(N([H])C(=O)C([H])([H])n2c([H])nc3c2c(=O)n(C([H])([H])c2nc(C([H])([H])[H])no2)c(=O)n3C([H])([H])[H])c([H])c([H])c1[H]


 41 45  0  0  0  0  0  0  0  0999 V2000
  155.3717  137.1870  188.4247 C   0  0  0  0  0  0  0  0  0  0  0  0
  155.9845  136.3264  189.1699 O   0  0  0  0  0  0  0  0  0  0  0  0
  155.7021  137.1243  187.0646 N   0  0  0  0  0  0  0  0  0  0  0  0
  156.4212  136.3651  186.8179 H   0  0  0  0  0  0  0  0  0  0  0  0
  155.2585  137.9026  185.9846 C   0  0  0  0  0  0  0  0  0  0  0  0
  154.0060  137.6245  185.4176 C   0  0  0  0  0  0  0  0  0  0  0  0
  153.5144  138.3450  184.3517 C   0  0  0  0  0  0  0  0  0  0  0  0
  154.2889  139.3689  183.8366 C   0  0  0  0  0  0  0  0  0  0  0  0
  155.5216  139.6598  184.3779 C   0  0  0  0  0  0  0  0  0  0  0  0
  155.9213  138.9098  185.4109 N   0  0  0  0  0  0  0  0  0  0  0  0
  156.3677  140.7419  183.8642 C   0  0  0  0  0  0  0  0  0  0  0  0
  155.8211  141.9805  183.5538 C   0  0  0  0  0  0  0  0  0  0  0  0
  156.6111  142.9733  183.0789 N   0  0  0  0  0  0  0  0  0  0  0  0
  157.9336  142.8279  182.8839 C   0  0  0  0  0  0  0  0  0  0  0  0
  158.5240  141.6231  183.1751 C   0  0  0  0  0  0  0  0  0  0  0  0
  159.9732  141.3827  182.9860 C   0  0  0  0  0  0  0  0  0  0  0  0
  157.7027  140.6014  183.6649 C   0  0  0  0  0  0  0  0  0  0  0  0
  158.7576  143.9705  182.3521 C   0  0  0  0  0  0  0  0  0  0  0  0
  157.9059  145.0798  182.2547 F   0  0  0  0  0  0  0  0  0  0  0  0
  159.2486  143.7253  181.1061 F   0  0  0  0  0  0  0  0  0  0  0  0
  159.7352  144.3580  183.2505 F   0  0  0  0  0  0  0  0  0  0  0  0
  154.4419  138.0807  189.1134 C   0  0  0  0  0  0  0  0  0  0  0  0
  150.6734  135.5219  189.3837 N   0  0  0  0  0  0  0  0  0  0  0  0
  150.2922  135.1944  190.6246 C   0  0  0  0  0  0  0  0  0  0  0  0
  149.2451  134.4852  190.8166 O   0  0  0  0  0  0  0  0  0  0  0  0
  151.0355  135.6297  191.6472 N   0  0  0  0  0  0  0  0  0  0  0  0
  150.6286  135.2770  192.9901 C   0  0  0  0  0  0  0  0  0  0  0  0
  152.1322  136.3753  191.4159 C   0  0  0  0  0  0  0  0  0  0  0  0
  153.0566  136.9323  192.2345 N   0  0  0  0  0  0  0  0  0  0  0  0
  153.9611  137.5756  191.4836 C   0  0  0  0  0  0  0  0  0  0  0  0
  153.6704  137.4675  190.1752 N   0  0  0  0  0  0  0  0  0  0  0  0
  152.5432  136.7267  190.1253 C   0  0  0  0  0  0  0  0  0  0  0  0
  151.7694  136.2698  189.1050 C   0  0  0  0  0  0  0  0  0  0  0  0
  152.0787  136.5429  187.9163 O   0  0  0  0  0  0  0  0  0  0  0  0
  149.8792  135.0619  188.2602 C   0  0  0  0  0  0  0  0  0  0  0  0
  147.5754  138.6598  185.5754 C   0  0  0  0  0  0  0  0  0  0  0  0
  147.9557  137.6693  186.6043 C   0  0  0  0  0  0  0  0  0  0  0  0
  147.2936  137.4154  187.7482 N   0  0  0  0  0  0  0  0  0  0  0  0
  147.8990  136.4971  188.4146 O   0  0  0  0  0  0  0  0  0  0  0  0
  148.9708  136.1058  187.7574 C   0  0  0  0  0  0  0  0  0  0  0  0
  149.0076  136.8362  186.6277 N   0  0  0  0  0  0  0  0  0  0  0  0
 36 37  1  0  0  0
 37 38  2  0  0  0
 38 39  1  0  0  0
 39 40  1  0  0  0
 40 35  1  0  0  0
 35 23  1  0  0  0
 23 24  1  0  0  0
 24 25  2  0  0  0
 24 26  1  0  0  0
 26 27  1  0  0  0
 26 28  1  0  0  0
 28 29  1  0  0  0
 29 30  2  0  0  0
 30 31  1  0  0  0
 31 22  1  0  0  0
 22  1  1  0  0  0
  1  2  2  0  0  0
  1  3  1  0  0  0
  3  5  1  0  0  0
  5  6  2  0  0  0
  6  7  1  0  0  0
  7  8  2  0  0  0
  8  9  1  0  0  0
  9 10  2  0  0  0
  9 11  1  0  0  0
 11 12  2  0  0  0
 12 13  1  0  0  0
 13 14  2  0  0  0
 14 15  1  0  0  0
 15 16  1  0  0  0
 15 17  2  0  0  0
 14 18  1  0  0  0
 18 19  1  0  0  0
 18 20  1  0  0  0
 18 21  1  0  0  0
 31 32  1  0  0  0
 32 33  1  0  0  0
 33 34  2  0  0  0
 40 41  2  0  0  0
 41 37  1  0  0  0
 33 23  1  0  0  0
 32 28  2  0  0  0
 10  5  1  0  0  0
 17 11  1  0  0  0
  3  4  1  0  0  0
M  END
> <minimizedAffinity>
-8.47790

> <CNNscore>
0.3083963692

> <CNNaffinity>
6.6521501541

> <CNN_VS>
2.0514988899

> <CNNaffinity_variance>
0.0907495841

$$$$
[H]c1nc(N2C([H])([H])C3([H])C([H])([H])C3([H])C2([H])[H])nc([H])c1-c1nc(N([H])C(=O)[C@@]([H])(n2c([H])nc3c2c(=O)n(C([H])([H])C#N)c(=O)n3C([H])([H])[H])C([H])([H])[H])c([H])c([H])c1[H]


 39 44  0  0  0  0  0  0  0  0999 V2000
  154.8849  137.3365  189.1099 C   0  0  0  0  0  0  0  0  0  0  0  0
  155.9496  137.1864  188.4671 O   0  0  0  0  0  0  0  0  0  0  0  0
  153.6955  137.6106  188.3946 N   0  0  0  0  0  0  0  0  0  0  0  0
  152.8146  137.7360  188.9105 H   0  0  0  0  0  0  0  0  0  0  0  0
  153.6657  137.7228  186.9608 C   0  0  0  0  0  0  0  0  0  0  0  0
  153.9518  138.9367  186.3518 C   0  0  0  0  0  0  0  0  0  0  0  0
  153.9357  139.0915  184.9890 C   0  0  0  0  0  0  0  0  0  0  0  0
  153.6197  137.9862  184.1853 C   0  0  0  0  0  0  0  0  0  0  0  0
  153.3416  136.8024  184.8013 C   0  0  0  0  0  0  0  0  0  0  0  0
  153.3680  136.6872  186.1691 N   0  0  0  0  0  0  0  0  0  0  0  0
  153.0051  135.6158  184.0060 C   0  0  0  0  0  0  0  0  0  0  0  0
  152.2025  134.6375  184.5090 C   0  0  0  0  0  0  0  0  0  0  0  0
  151.9326  133.5614  183.7101 N   0  0  0  0  0  0  0  0  0  0  0  0
  152.4089  133.4154  182.4697 C   0  0  0  0  0  0  0  0  0  0  0  0
  153.1914  134.3901  182.0065 N   0  0  0  0  0  0  0  0  0  0  0  0
  153.5108  135.4805  182.7148 C   0  0  0  0  0  0  0  0  0  0  0  0
  152.0867  132.2603  181.6841 N   0  0  0  0  0  0  0  0  0  0  0  0
  150.7409  131.7842  181.4859 C   0  0  0  0  0  0  0  0  0  0  0  0
  150.7959  130.9306  180.2323 C   0  0  0  0  0  0  0  0  0  0  0  0
  151.3549  131.5939  179.0297 C   0  0  0  0  0  0  0  0  0  0  0  0
  152.2271  130.7612  179.9005 C   0  0  0  0  0  0  0  0  0  0  0  0
  153.0291  131.4322  180.9994 C   0  0  0  0  0  0  0  0  0  0  0  0
  156.2101  137.8791  191.0482 C   0  0  0  0  0  0  0  0  0  0  0  0
  154.9226  137.2200  190.5840 C   0  0  0  0  0  0  0  0  0  0  0  0
  154.8083  135.8450  190.9779 N   0  0  0  0  0  0  0  0  0  0  0  0
  155.7242  134.8667  191.0536 C   0  0  0  0  0  0  0  0  0  0  0  0
  155.1694  133.7173  191.4771 N   0  0  0  0  0  0  0  0  0  0  0  0
  153.8587  133.9324  191.6877 C   0  0  0  0  0  0  0  0  0  0  0  0
  152.8698  133.1252  192.1072 N   0  0  0  0  0  0  0  0  0  0  0  0
  153.1975  131.7418  192.4130 C   0  0  0  0  0  0  0  0  0  0  0  0
  151.6421  133.6097  192.2275 C   0  0  0  0  0  0  0  0  0  0  0  0
  150.7239  132.8508  192.6195 O   0  0  0  0  0  0  0  0  0  0  0  0
  151.3736  134.9009  191.9344 N   0  0  0  0  0  0  0  0  0  0  0  0
  152.3458  135.7198  191.5152 C   0  0  0  0  0  0  0  0  0  0  0  0
  152.0547  136.8964  191.2574 O   0  0  0  0  0  0  0  0  0  0  0  0
  153.6471  135.2661  191.3717 C   0  0  0  0  0  0  0  0  0  0  0  0
  150.0309  135.4197  192.0689 C   0  0  0  0  0  0  0  0  0  0  0  0
  149.3936  135.2788  190.7443 C   0  0  0  0  0  0  0  0  0  0  0  0
  148.9055  135.1539  189.6994 N   0  0  0  0  0  0  0  0  0  0  0  0
 23 24  1  0  0  0
 24  1  1  0  0  0
  1  2  2  0  0  0
  1  3  1  0  0  0
  3  5  1  0  0  0
  5  6  2  0  0  0
  6  7  1  0  0  0
  7  8  2  0  0  0
  8  9  1  0  0  0
  9 10  2  0  0  0
  9 11  1  0  0  0
 11 12  2  0  0  0
 12 13  1  0  0  0
 13 14  2  0  0  0
 14 15  1  0  0  0
 15 16  2  0  0  0
 14 17  1  0  0  0
 17 18  1  0  0  0
 18 19  1  0  0  0
 19 20  1  0  0  0
 20 21  1  0  0  0
 21 22  1  0  0  0
 24 25  1  0  0  0
 25 26  1  0  0  0
 26 27  2  0  0  0
 27 28  1  0  0  0
 28 29  1  0  0  0
 29 30  1  0  0  0
 29 31  1  0  0  0
 31 32  2  0  0  0
 31 33  1  0  0  0
 33 37  1  0  0  0
 37 38  1  0  0  0
 38 39  3  0  0  0
 33 34  1  0  0  0
 34 35  2  0  0  0
 34 36  1  0  0  0
 10  5  1  0  0  0
 16 11  1  0  0  0
 22 17  1  0  0  0
 36 25  1  0  0  0
 21 19  1  0  0  0
 36 28  2  0  0  0
  3  4  1  0  0  0
M  END
> <minimizedAffinity>
-4.53941

> <CNNscore>
0.3989436328

> <CNNaffinity>
6.0262541771

> <CNN_VS>
2.4041357040

> <CNNaffinity_variance>
0.1891862005

$$$$
[H]c1nc(N2C([H])([H])C3([H])C([H])([H])C3([H])C2([H])[H])nc([H])c1-c1nc(N([H])C(=O)[C@@]([H])(n2c([H])nc3c2c(=O)n(C([H])([H])C#N)c(=O)n3C([H])([H])[H])C([H])([H])[H])c([H])c([H])c1[H]


 39 44  0  0  0  0  0  0  0  0999 V2000
  153.8180  136.6660  190.2390 C   0  0  0  0  0  0  0  0  0  0  0  0
  153.4175  137.6415  189.5629 O   0  0  0  0  0  0  0  0  0  0  0  0
  152.9138  135.6113  190.5065 N   0  0  0  0  0  0  0  0  0  0  0  0
  153.2303  134.8045  191.0606 H   0  0  0  0  0  0  0  0  0  0  0  0
  151.5562  135.6195  190.0314 C   0  0  0  0  0  0  0  0  0  0  0  0
  150.5183  135.2714  190.8847 C   0  0  0  0  0  0  0  0  0  0  0  0
  149.2088  135.2647  190.4767 C   0  0  0  0  0  0  0  0  0  0  0  0
  148.9095  135.6214  189.1536 C   0  0  0  0  0  0  0  0  0  0  0  0
  149.9419  135.9601  188.3304 C   0  0  0  0  0  0  0  0  0  0  0  0
  151.2403  135.9548  188.7762 N   0  0  0  0  0  0  0  0  0  0  0  0
  149.6825  136.3411  186.9370 C   0  0  0  0  0  0  0  0  0  0  0  0
  148.4246  136.2917  186.4178 C   0  0  0  0  0  0  0  0  0  0  0  0
  148.2593  136.6616  185.1120 N   0  0  0  0  0  0  0  0  0  0  0  0
  149.2568  137.0669  184.3199 C   0  0  0  0  0  0  0  0  0  0  0  0
  150.4758  137.1042  184.8578 N   0  0  0  0  0  0  0  0  0  0  0  0
  150.7345  136.7612  186.1259 C   0  0  0  0  0  0  0  0  0  0  0  0
  149.0146  137.4413  182.9574 N   0  0  0  0  0  0  0  0  0  0  0  0
  147.7245  137.3410  182.3229 C   0  0  0  0  0  0  0  0  0  0  0  0
  147.7823  138.2899  181.1399 C   0  0  0  0  0  0  0  0  0  0  0  0
  148.1604  139.6880  181.4581 C   0  0  0  0  0  0  0  0  0  0  0  0
  149.1926  138.7154  181.0097 C   0  0  0  0  0  0  0  0  0  0  0  0
  149.9926  137.9560  182.0511 C   0  0  0  0  0  0  0  0  0  0  0  0
  155.5944  138.1107  190.9908 C   0  0  0  0  0  0  0  0  0  0  0  0
  155.2152  136.6640  190.7246 C   0  0  0  0  0  0  0  0  0  0  0  0
  156.0713  136.0126  189.7751 N   0  0  0  0  0  0  0  0  0  0  0  0
  156.7549  136.4925  188.7244 C   0  0  0  0  0  0  0  0  0  0  0  0
  157.4363  135.5135  188.1034 N   0  0  0  0  0  0  0  0  0  0  0  0
  157.2029  134.3586  188.7516 C   0  0  0  0  0  0  0  0  0  0  0  0
  157.6359  133.1043  188.5405 N   0  0  0  0  0  0  0  0  0  0  0  0
  158.5306  132.8676  187.4188 C   0  0  0  0  0  0  0  0  0  0  0  0
  157.2386  132.1343  189.3516 C   0  0  0  0  0  0  0  0  0  0  0  0
  157.6465  130.9659  189.1489 O   0  0  0  0  0  0  0  0  0  0  0  0
  156.4064  132.3904  190.3845 N   0  0  0  0  0  0  0  0  0  0  0  0
  155.9647  133.6337  190.6103 C   0  0  0  0  0  0  0  0  0  0  0  0
  155.2027  133.8232  191.5689 O   0  0  0  0  0  0  0  0  0  0  0  0
  156.3483  134.6853  189.7939 C   0  0  0  0  0  0  0  0  0  0  0  0
  155.9787  131.3253  191.2636 C   0  0  0  0  0  0  0  0  0  0  0  0
  157.0604  131.1389  192.2514 C   0  0  0  0  0  0  0  0  0  0  0  0
  157.9232  130.9949  193.0133 N   0  0  0  0  0  0  0  0  0  0  0  0
 23 24  1  0  0  0
 24  1  1  0  0  0
  1  2  2  0  0  0
  1  3  1  0  0  0
  3  5  1  0  0  0
  5  6  2  0  0  0
  6  7  1  0  0  0
  7  8  2  0  0  0
  8  9  1  0  0  0
  9 10  2  0  0  0
  9 11  1  0  0  0
 11 12  2  0  0  0
 12 13  1  0  0  0
 13 14  2  0  0  0
 14 15  1  0  0  0
 15 16  2  0  0  0
 14 17  1  0  0  0
 17 18  1  0  0  0
 18 19  1  0  0  0
 19 20  1  0  0  0
 20 21  1  0  0  0
 21 22  1  0  0  0
 24 25  1  0  0  0
 25 26  1  0  0  0
 26 27  2  0  0  0
 27 28  1  0  0  0
 28 29  1  0  0  0
 29 30  1  0  0  0
 29 31  1  0  0  0
 31 32  2  0  0  0
 31 33  1  0  0  0
 33 37  1  0  0  0
 37 38  1  0  0  0
 38 39  3  0  0  0
 33 34  1  0  0  0
 34 35  2  0  0  0
 34 36  1  0  0  0
 10  5  1  0  0  0
 16 11  1  0  0  0
 22 17  1  0  0  0
 36 25  1  0  0  0
 21 19  1  0  0  0
 36 28  2  0  0  0
  3  4  1  0  0  0
M  END
> <minimizedAffinity>
-5.25562

> <CNNscore>
0.3004927933

> <CNNaffinity>
5.9770174026

> <CNN_VS>
1.7960506678

> <CNNaffinity_variance>
0.0073650852

$$$$
[H]c1nc(N2C([H])([H])C3([H])C([H])([H])C3([H])C2([H])[H])nc([H])c1-c1nc(N([H])C(=O)[C@@]([H])(n2c([H])nc3c2c(=O)n(C([H])([H])C#N)c(=O)n3C([H])([H])[H])C([H])([H])[H])c([H])c([H])c1[H]


 39 44  0  0  0  0  0  0  0  0999 V2000
  153.5696  137.0025  189.8826 C   0  0  0  0  0  0  0  0  0  0  0  0
  153.4355  137.9387  189.0612 O   0  0  0  0  0  0  0  0  0  0  0  0
  152.5780  135.9944  189.9275 N   0  0  0  0  0  0  0  0  0  0  0  0
  152.6763  135.2201  190.5974 H   0  0  0  0  0  0  0  0  0  0  0  0
  151.4256  136.0065  189.0667 C   0  0  0  0  0  0  0  0  0  0  0  0
  150.1863  135.6200  189.5577 C   0  0  0  0  0  0  0  0  0  0  0  0
  149.0600  135.6154  188.7749 C   0  0  0  0  0  0  0  0  0  0  0  0
  149.1650  136.0145  187.4343 C   0  0  0  0  0  0  0  0  0  0  0  0
  150.3902  136.3906  186.9701 C   0  0  0  0  0  0  0  0  0  0  0  0
  151.4948  136.3818  187.7852 N   0  0  0  0  0  0  0  0  0  0  0  0
  150.5538  136.8168  185.5753 C   0  0  0  0  0  0  0  0  0  0  0  0
  149.4766  136.9670  184.7557 C   0  0  0  0  0  0  0  0  0  0  0  0
  149.7063  137.3670  183.4687 N   0  0  0  0  0  0  0  0  0  0  0  0
  150.9213  137.6178  182.9713 C   0  0  0  0  0  0  0  0  0  0  0  0
  151.9548  137.4615  183.7986 N   0  0  0  0  0  0  0  0  0  0  0  0
  151.8280  137.0738  185.0739 C   0  0  0  0  0  0  0  0  0  0  0  0
  151.0926  138.0345  181.6103 N   0  0  0  0  0  0  0  0  0  0  0  0
  150.0154  138.0892  180.6544 C   0  0  0  0  0  0  0  0  0  0  0  0
  150.4869  139.0405  179.5700 C   0  0  0  0  0  0  0  0  0  0  0  0
  150.9122  140.3825  180.0356 C   0  0  0  0  0  0  0  0  0  0  0  0
  151.9176  139.3050  179.8345 C   0  0  0  0  0  0  0  0  0  0  0  0
  152.3257  138.4466  181.0167 C   0  0  0  0  0  0  0  0  0  0  0  0
  155.0928  138.4464  191.0669 C   0  0  0  0  0  0  0  0  0  0  0  0
  154.7569  136.9961  190.7648 C   0  0  0  0  0  0  0  0  0  0  0  0
  155.8327  136.2754  190.1466 N   0  0  0  0  0  0  0  0  0  0  0  0
  156.8046  136.6785  189.3132 C   0  0  0  0  0  0  0  0  0  0  0  0
  157.6088  135.6544  188.9777 N   0  0  0  0  0  0  0  0  0  0  0  0
  157.1652  134.5470  189.5986 C   0  0  0  0  0  0  0  0  0  0  0  0
  157.6054  133.2775  189.5990 N   0  0  0  0  0  0  0  0  0  0  0  0
  158.7797  132.9589  188.8025 C   0  0  0  0  0  0  0  0  0  0  0  0
  156.9631  132.3670  190.3166 C   0  0  0  0  0  0  0  0  0  0  0  0
  157.3793  131.1840  190.3124 O   0  0  0  0  0  0  0  0  0  0  0  0
  155.8749  132.6985  191.0452 N   0  0  0  0  0  0  0  0  0  0  0  0
  155.4219  133.9580  191.0571 C   0  0  0  0  0  0  0  0  0  0  0  0
  154.4205  134.2176  191.7393 O   0  0  0  0  0  0  0  0  0  0  0  0
  156.0549  134.9498  190.3255 C   0  0  0  0  0  0  0  0  0  0  0  0
  155.1812  131.6978  191.8247 C   0  0  0  0  0  0  0  0  0  0  0  0
  154.0860  131.1905  190.9741 C   0  0  0  0  0  0  0  0  0  0  0  0
  153.2222  130.8100  190.2997 N   0  0  0  0  0  0  0  0  0  0  0  0
 23 24  1  0  0  0
 24  1  1  0  0  0
  1  2  2  0  0  0
  1  3  1  0  0  0
  3  5  1  0  0  0
  5  6  2  0  0  0
  6  7  1  0  0  0
  7  8  2  0  0  0
  8  9  1  0  0  0
  9 10  2  0  0  0
  9 11  1  0  0  0
 11 12  2  0  0  0
 12 13  1  0  0  0
 13 14  2  0  0  0
 14 15  1  0  0  0
 15 16  2  0  0  0
 14 17  1  0  0  0
 17 18  1  0  0  0
 18 19  1  0  0  0
 19 20  1  0  0  0
 20 21  1  0  0  0
 21 22  1  0  0  0
 24 25  1  0  0  0
 25 26  1  0  0  0
 26 27  2  0  0  0
 27 28  1  0  0  0
 28 29  1  0  0  0
 29 30  1  0  0  0
 29 31  1  0  0  0
 31 32  2  0  0  0
 31 33  1  0  0  0
 33 37  1  0  0  0
 37 38  1  0  0  0
 38 39  3  0  0  0
 33 34  1  0  0  0
 34 35  2  0  0  0
 34 36  1  0  0  0
 10  5  1  0  0  0
 16 11  1  0  0  0
 22 17  1  0  0  0
 36 25  1  0  0  0
 21 19  1  0  0  0
 36 28  2  0  0  0
  3  4  1  0  0  0
M  END
> <minimizedAffinity>
-6.12201

> <CNNscore>
0.2856025100

> <CNNaffinity>
5.9488463402

> <CNN_VS>
1.6990054846

> <CNNaffinity_variance>
0.0599463210

$$$$
[H]c1nc(N2C([H])([H])C3([H])C([H])([H])C3([H])C2([H])[H])nc([H])c1-c1nc(N([H])C(=O)[C@@]([H])(n2c([H])nc3c2c(=O)n(C([H])([H])C#N)c(=O)n3C([H])([H])[H])C([H])([H])[H])c([H])c([H])c1[H]


 39 44  0  0  0  0  0  0  0  0999 V2000
  154.6618  138.0041  189.3529 C   0  0  0  0  0  0  0  0  0  0  0  0
  155.7066  138.0476  188.6632 O   0  0  0  0  0  0  0  0  0  0  0  0
  153.4148  137.9327  188.6885 N   0  0  0  0  0  0  0  0  0  0  0  0
  152.5495  137.8964  189.2433 H   0  0  0  0  0  0  0  0  0  0  0  0
  153.3047  137.9086  187.2545 C   0  0  0  0  0  0  0  0  0  0  0  0
  152.3524  137.1050  186.6432 C   0  0  0  0  0  0  0  0  0  0  0  0
  152.2104  137.0493  185.2800 C   0  0  0  0  0  0  0  0  0  0  0  0
  153.0557  137.8305  184.4783 C   0  0  0  0  0  0  0  0  0  0  0  0
  153.9847  138.6133  185.0966 C   0  0  0  0  0  0  0  0  0  0  0  0
  154.0961  138.6419  186.4646 N   0  0  0  0  0  0  0  0  0  0  0  0
  154.8932  139.4496  184.3035 C   0  0  0  0  0  0  0  0  0  0  0  0
  154.4651  140.0738  183.1714 C   0  0  0  0  0  0  0  0  0  0  0  0
  155.3680  140.8365  182.4842 N   0  0  0  0  0  0  0  0  0  0  0  0
  156.6404  141.0038  182.8580 C   0  0  0  0  0  0  0  0  0  0  0  0
  157.0283  140.3798  183.9702 N   0  0  0  0  0  0  0  0  0  0  0  0
  156.2164  139.6126  184.7083 C   0  0  0  0  0  0  0  0  0  0  0  0
  157.5364  141.8184  182.0906 N   0  0  0  0  0  0  0  0  0  0  0  0
  158.8545  141.3925  181.6928 C   0  0  0  0  0  0  0  0  0  0  0  0
  159.2234  142.2726  180.5128 C   0  0  0  0  0  0  0  0  0  0  0  0
  158.2560  142.2762  179.3891 C   0  0  0  0  0  0  0  0  0  0  0  0
  158.1922  143.3298  180.4371 C   0  0  0  0  0  0  0  0  0  0  0  0
  157.2608  143.1392  181.6193 C   0  0  0  0  0  0  0  0  0  0  0  0
  156.2581  137.8805  191.1542 C   0  0  0  0  0  0  0  0  0  0  0  0
  154.7821  138.0293  190.8270 C   0  0  0  0  0  0  0  0  0  0  0  0
  153.9599  137.0088  191.4112 N   0  0  0  0  0  0  0  0  0  0  0  0
  152.8290  137.0867  192.1301 C   0  0  0  0  0  0  0  0  0  0  0  0
  152.3929  135.8634  192.4788 N   0  0  0  0  0  0  0  0  0  0  0  0
  153.2489  134.9520  191.9836 C   0  0  0  0  0  0  0  0  0  0  0  0
  153.2710  133.6100  192.0468 N   0  0  0  0  0  0  0  0  0  0  0  0
  152.2013  132.9400  192.7689 C   0  0  0  0  0  0  0  0  0  0  0  0
  154.2554  132.9476  191.4561 C   0  0  0  0  0  0  0  0  0  0  0  0
  154.2699  131.6952  191.5190 O   0  0  0  0  0  0  0  0  0  0  0  0
  155.2333  133.6029  190.7934 N   0  0  0  0  0  0  0  0  0  0  0  0
  155.2278  134.9394  190.7199 C   0  0  0  0  0  0  0  0  0  0  0  0
  156.1445  135.4992  190.1021 O   0  0  0  0  0  0  0  0  0  0  0  0
  154.2230  135.6818  191.3189 C   0  0  0  0  0  0  0  0  0  0  0  0
  156.3027  132.8710  190.1524 C   0  0  0  0  0  0  0  0  0  0  0  0
  157.3401  132.6593  191.1818 C   0  0  0  0  0  0  0  0  0  0  0  0
  158.1550  132.5120  191.9942 N   0  0  0  0  0  0  0  0  0  0  0  0
 23 24  1  0  0  0
 24  1  1  0  0  0
  1  2  2  0  0  0
  1  3  1  0  0  0
  3  5  1  0  0  0
  5  6  2  0  0  0
  6  7  1  0  0  0
  7  8  2  0  0  0
  8  9  1  0  0  0
  9 10  2  0  0  0
  9 11  1  0  0  0
 11 12  2  0  0  0
 12 13  1  0  0  0
 13 14  2  0  0  0
 14 15  1  0  0  0
 15 16  2  0  0  0
 14 17  1  0  0  0
 17 18  1  0  0  0
 18 19  1  0  0  0
 19 20  1  0  0  0
 20 21  1  0  0  0
 21 22  1  0  0  0
 24 25  1  0  0  0
 25 26  1  0  0  0
 26 27  2  0  0  0
 27 28  1  0  0  0
 28 29  1  0  0  0
 29 30  1  0  0  0
 29 31  1  0  0  0
 31 32  2  0  0  0
 31 33  1  0  0  0
 33 37  1  0  0  0
 37 38  1  0  0  0
 38 39  3  0  0  0
 33 34  1  0  0  0
 34 35  2  0  0  0
 34 36  1  0  0  0
 10  5  1  0  0  0
 16 11  1  0  0  0
 22 17  1  0  0  0
 36 25  1  0  0  0
 21 19  1  0  0  0
 36 28  2  0  0  0
  3  4  1  0  0  0
M  END
> <minimizedAffinity>
-8.08966

> <CNNscore>
0.2734149992

> <CNNaffinity>
6.3054170609

> <CNN_VS>
1.7239955664

> <CNNaffinity_variance>
0.1271703690

$$$$
[H]c1nc(N2C([H])([H])C3([H])C([H])([H])C3([H])C2([H])[H])nc([H])c1-c1nc(N([H])C(=O)[C@@]([H])(n2c([H])nc3c2c(=O)n(C([H])([H])C#N)c(=O)n3C([H])([H])[H])C([H])([H])[H])c([H])c([H])c1[H]


 39 44  0  0  0  0  0  0  0  0999 V2000
  154.1684  138.5394  185.0136 C   0  0  0  0  0  0  0  0  0  0  0  0
  153.6564  138.9904  186.0641 O   0  0  0  0  0  0  0  0  0  0  0  0
  153.4275  137.6125  184.2434 N   0  0  0  0  0  0  0  0  0  0  0  0
  153.8366  137.2347  183.3786 H   0  0  0  0  0  0  0  0  0  0  0  0
  152.1120  137.1711  184.6226 C   0  0  0  0  0  0  0  0  0  0  0  0
  151.1037  137.0921  183.6721 C   0  0  0  0  0  0  0  0  0  0  0  0
  149.8347  136.6771  183.9866 C   0  0  0  0  0  0  0  0  0  0  0  0
  149.5475  136.3211  185.3126 C   0  0  0  0  0  0  0  0  0  0  0  0
  150.5504  136.4052  186.2320 C   0  0  0  0  0  0  0  0  0  0  0  0
  151.8085  136.8254  185.8781 N   0  0  0  0  0  0  0  0  0  0  0  0
  150.3020  136.0443  187.6327 C   0  0  0  0  0  0  0  0  0  0  0  0
  151.3242  135.9612  188.5286 C   0  0  0  0  0  0  0  0  0  0  0  0
  151.0166  135.6195  189.8162 N   0  0  0  0  0  0  0  0  0  0  0  0
  149.7763  135.3636  190.2438 C   0  0  0  0  0  0  0  0  0  0  0  0
  148.7981  135.4534  189.3427 N   0  0  0  0  0  0  0  0  0  0  0  0
  149.0025  135.7809  188.0607 C   0  0  0  0  0  0  0  0  0  0  0  0
  149.5224  135.0101  191.6097 N   0  0  0  0  0  0  0  0  0  0  0  0
  148.6414  133.9395  192.0030 C   0  0  0  0  0  0  0  0  0  0  0  0
  149.0583  133.5727  193.4154 C   0  0  0  0  0  0  0  0  0  0  0  0
  150.4909  133.2340  193.5929 C   0  0  0  0  0  0  0  0  0  0  0  0
  150.0083  134.6157  193.8584 C   0  0  0  0  0  0  0  0  0  0  0  0
  150.0914  135.6515  192.7533 C   0  0  0  0  0  0  0  0  0  0  0  0
  156.3818  138.9371  185.8801 C   0  0  0  0  0  0  0  0  0  0  0  0
  155.5216  138.9974  184.6296 C   0  0  0  0  0  0  0  0  0  0  0  0
  155.4565  140.3044  184.0411 N   0  0  0  0  0  0  0  0  0  0  0  0
  154.4137  141.1115  183.7906 C   0  0  0  0  0  0  0  0  0  0  0  0
  154.8181  142.2607  183.2213 N   0  0  0  0  0  0  0  0  0  0  0  0
  156.1558  142.2197  183.0893 C   0  0  0  0  0  0  0  0  0  0  0  0
  157.0384  143.1001  182.5880 N   0  0  0  0  0  0  0  0  0  0  0  0
  156.5306  144.3608  182.0708 C   0  0  0  0  0  0  0  0  0  0  0  0
  158.3282  142.7951  182.5808 C   0  0  0  0  0  0  0  0  0  0  0  0
  159.1465  143.6214  182.1114 O   0  0  0  0  0  0  0  0  0  0  0  0
  158.7648  141.6139  183.0698 N   0  0  0  0  0  0  0  0  0  0  0  0
  157.9003  140.7246  183.5732 C   0  0  0  0  0  0  0  0  0  0  0  0
  158.3446  139.6537  184.0108 O   0  0  0  0  0  0  0  0  0  0  0  0
  156.5412  140.9916  183.6056 C   0  0  0  0  0  0  0  0  0  0  0  0
  160.1739  141.2907  183.0574 C   0  0  0  0  0  0  0  0  0  0  0  0
  160.7528  141.8977  184.2728 C   0  0  0  0  0  0  0  0  0  0  0  0
  161.1904  142.3828  185.2314 N   0  0  0  0  0  0  0  0  0  0  0  0
 23 24  1  0  0  0
 24  1  1  0  0  0
  1  2  2  0  0  0
  1  3  1  0  0  0
  3  5  1  0  0  0
  5  6  2  0  0  0
  6  7  1  0  0  0
  7  8  2  0  0  0
  8  9  1  0  0  0
  9 10  2  0  0  0
  9 11  1  0  0  0
 11 12  2  0  0  0
 12 13  1  0  0  0
 13 14  2  0  0  0
 14 15  1  0  0  0
 15 16  2  0  0  0
 14 17  1  0  0  0
 17 18  1  0  0  0
 18 19  1  0  0  0
 19 20  1  0  0  0
 20 21  1  0  0  0
 21 22  1  0  0  0
 24 25  1  0  0  0
 25 26  1  0  0  0
 26 27  2  0  0  0
 27 28  1  0  0  0
 28 29  1  0  0  0
 29 30  1  0  0  0
 29 31  1  0  0  0
 31 32  2  0  0  0
 31 33  1  0  0  0
 33 37  1  0  0  0
 37 38  1  0  0  0
 38 39  3  0  0  0
 33 34  1  0  0  0
 34 35  2  0  0  0
 34 36  1  0  0  0
 10  5  1  0  0  0
 16 11  1  0  0  0
 22 17  1  0  0  0
 36 25  1  0  0  0
 21 19  1  0  0  0
 36 28  2  0  0  0
  3  4  1  0  0  0
M  END
> <minimizedAffinity>
-7.22634

> <CNNscore>
0.2343656570

> <CNNaffinity>
6.2260923386

> <CNN_VS>
1.4591822624

> <CNNaffinity_variance>
0.1043038145

$$$$
[H]c1nc(N2C([H])([H])C3([H])C([H])([H])C3([H])C2([H])[H])nc([H])c1-c1nc(N([H])C(=O)[C@@]([H])(n2c([H])nc3c2c(=O)n(C([H])([H])C#N)c(=O)n3C([H])([H])[H])C([H])([H])[H])c([H])c([H])c1[H]


 39 44  0  0  0  0  0  0  0  0999 V2000
  154.3212  137.7661  188.9848 C   0  0  0  0  0  0  0  0  0  0  0  0
  155.3819  137.8847  188.3291 O   0  0  0  0  0  0  0  0  0  0  0  0
  153.0934  137.7209  188.2834 N   0  0  0  0  0  0  0  0  0  0  0  0
  152.2153  137.6237  188.8100 H   0  0  0  0  0  0  0  0  0  0  0  0
  153.0204  137.8060  186.8493 C   0  0  0  0  0  0  0  0  0  0  0  0
  152.0490  137.0950  186.1586 C   0  0  0  0  0  0  0  0  0  0  0  0
  151.9408  137.1450  184.7922 C   0  0  0  0  0  0  0  0  0  0  0  0
  152.8418  137.9411  184.0699 C   0  0  0  0  0  0  0  0  0  0  0  0
  153.7889  138.6320  184.7655 C   0  0  0  0  0  0  0  0  0  0  0  0
  153.8652  138.5561  186.1340 N   0  0  0  0  0  0  0  0  0  0  0  0
  154.7555  139.4794  184.0572 C   0  0  0  0  0  0  0  0  0  0  0  0
  154.4130  140.1273  182.9094 C   0  0  0  0  0  0  0  0  0  0  0  0
  155.3660  140.8991  182.3049 N   0  0  0  0  0  0  0  0  0  0  0  0
  156.6082  141.0535  182.7737 C   0  0  0  0  0  0  0  0  0  0  0  0
  156.9120  140.4064  183.8988 N   0  0  0  0  0  0  0  0  0  0  0  0
  156.0460  139.6287  184.5605 C   0  0  0  0  0  0  0  0  0  0  0  0
  157.5603  141.8787  182.0898 N   0  0  0  0  0  0  0  0  0  0  0  0
  158.8707  141.4236  181.6989 C   0  0  0  0  0  0  0  0  0  0  0  0
  159.3116  142.3659  180.5940 C   0  0  0  0  0  0  0  0  0  0  0  0
  158.3793  142.4894  179.4476 C   0  0  0  0  0  0  0  0  0  0  0  0
  158.3284  143.4701  180.5648 C   0  0  0  0  0  0  0  0  0  0  0  0
  157.3548  143.2398  181.7050 C   0  0  0  0  0  0  0  0  0  0  0  0
  155.5077  138.6254  190.8984 C   0  0  0  0  0  0  0  0  0  0  0  0
  154.4034  137.6792  190.4592 C   0  0  0  0  0  0  0  0  0  0  0  0
  154.6174  136.3202  190.8667 N   0  0  0  0  0  0  0  0  0  0  0  0
  155.7448  135.6061  191.0106 C   0  0  0  0  0  0  0  0  0  0  0  0
  155.4746  134.3536  191.4185 N   0  0  0  0  0  0  0  0  0  0  0  0
  154.1420  134.2292  191.5490 C   0  0  0  0  0  0  0  0  0  0  0  0
  153.3662  133.1976  191.9224 N   0  0  0  0  0  0  0  0  0  0  0  0
  154.0144  131.9425  192.2679 C   0  0  0  0  0  0  0  0  0  0  0  0
  152.0508  133.3549  191.9635 C   0  0  0  0  0  0  0  0  0  0  0  0
  151.3328  132.3879  192.3128 O   0  0  0  0  0  0  0  0  0  0  0  0
  151.4824  134.5357  191.6356 N   0  0  0  0  0  0  0  0  0  0  0  0
  152.2391  135.5745  191.2613 C   0  0  0  0  0  0  0  0  0  0  0  0
  151.6757  136.6387  190.9691 O   0  0  0  0  0  0  0  0  0  0  0  0
  153.6190  135.4657  191.2009 C   0  0  0  0  0  0  0  0  0  0  0  0
  150.0465  134.6970  191.6835 C   0  0  0  0  0  0  0  0  0  0  0  0
  149.7263  135.1911  193.0378 C   0  0  0  0  0  0  0  0  0  0  0  0
  149.4938  135.5804  194.1055 N   0  0  0  0  0  0  0  0  0  0  0  0
 23 24  1  0  0  0
 24  1  1  0  0  0
  1  2  2  0  0  0
  1  3  1  0  0  0
  3  5  1  0  0  0
  5  6  2  0  0  0
  6  7  1  0  0  0
  7  8  2  0  0  0
  8  9  1  0  0  0
  9 10  2  0  0  0
  9 11  1  0  0  0
 11 12  2  0  0  0
 12 13  1  0  0  0
 13 14  2  0  0  0
 14 15  1  0  0  0
 15 16  2  0  0  0
 14 17  1  0  0  0
 17 18  1  0  0  0
 18 19  1  0  0  0
 19 20  1  0  0  0
 20 21  1  0  0  0
 21 22  1  0  0  0
 24 25  1  0  0  0
 25 26  1  0  0  0
 26 27  2  0  0  0
 27 28  1  0  0  0
 28 29  1  0  0  0
 29 30  1  0  0  0
 29 31  1  0  0  0
 31 32  2  0  0  0
 31 33  1  0  0  0
 33 37  1  0  0  0
 37 38  1  0  0  0
 38 39  3  0  0  0
 33 34  1  0  0  0
 34 35  2  0  0  0
 34 36  1  0  0  0
 10  5  1  0  0  0
 16 11  1  0  0  0
 22 17  1  0  0  0
 36 25  1  0  0  0
 21 19  1  0  0  0
 36 28  2  0  0  0
  3  4  1  0  0  0
M  END
> <minimizedAffinity>
-8.26040

> <CNNscore>
0.2327446789

> <CNNaffinity>
6.2234654427

> <CNN_VS>
1.4484784603

> <CNNaffinity_variance>
0.0650266632

$$$$
[H]c1nc(N2C([H])([H])C3([H])C([H])([H])C3([H])C2([H])[H])nc([H])c1-c1nc(N([H])C(=O)[C@@]([H])(n2c([H])nc3c2c(=O)n(C([H])([H])C#N)c(=O)n3C([H])([H])[H])C([H])([H])[H])c([H])c([H])c1[H]


 39 44  0  0  0  0  0  0  0  0999 V2000
  150.8118  134.5245  190.7300 C   0  0  0  0  0  0  0  0  0  0  0  0
  150.7667  133.5129  189.9926 O   0  0  0  0  0  0  0  0  0  0  0  0
  150.0366  135.6542  190.3772 N   0  0  0  0  0  0  0  0  0  0  0  0
  150.0648  136.4911  190.9743 H   0  0  0  0  0  0  0  0  0  0  0  0
  149.2019  135.6821  189.2061 C   0  0  0  0  0  0  0  0  0  0  0  0
  147.8806  135.2642  189.2833 C   0  0  0  0  0  0  0  0  0  0  0  0
  147.0473  135.2729  188.1938 C   0  0  0  0  0  0  0  0  0  0  0  0
  147.5476  135.7190  186.9617 C   0  0  0  0  0  0  0  0  0  0  0  0
  148.8475  136.1254  186.9054 C   0  0  0  0  0  0  0  0  0  0  0  0
  149.6506  136.1019  188.0185 N   0  0  0  0  0  0  0  0  0  0  0  0
  149.4196  136.6011  185.6403 C   0  0  0  0  0  0  0  0  0  0  0  0
  150.7630  136.5660  185.4197 C   0  0  0  0  0  0  0  0  0  0  0  0
  151.2233  137.0260  184.2173 N   0  0  0  0  0  0  0  0  0  0  0  0
  150.4343  137.5057  183.2508 C   0  0  0  0  0  0  0  0  0  0  0  0
  149.1245  137.5267  183.4976 N   0  0  0  0  0  0  0  0  0  0  0  0
  148.5819  137.0979  184.6441 C   0  0  0  0  0  0  0  0  0  0  0  0
  150.9825  137.9730  182.0114 N   0  0  0  0  0  0  0  0  0  0  0  0
  150.2965  137.8663  180.7484 C   0  0  0  0  0  0  0  0  0  0  0  0
  150.9422  138.9051  179.8500 C   0  0  0  0  0  0  0  0  0  0  0  0
  150.9593  140.2895  180.3808 C   0  0  0  0  0  0  0  0  0  0  0  0
  152.1363  139.3997  180.5686 C   0  0  0  0  0  0  0  0  0  0  0  0
  152.2580  138.5976  181.8503 C   0  0  0  0  0  0  0  0  0  0  0  0
  151.4936  135.8186  192.6452 C   0  0  0  0  0  0  0  0  0  0  0  0
  151.6723  134.4891  191.9326 C   0  0  0  0  0  0  0  0  0  0  0  0
  153.0317  134.2145  191.5642 N   0  0  0  0  0  0  0  0  0  0  0  0
  153.7878  133.1171  191.7242 C   0  0  0  0  0  0  0  0  0  0  0  0
  155.0212  133.3028  191.2218 N   0  0  0  0  0  0  0  0  0  0  0  0
  155.0897  134.5476  190.7175 C   0  0  0  0  0  0  0  0  0  0  0  0
  156.0827  135.2202  190.1118 N   0  0  0  0  0  0  0  0  0  0  0  0
  157.3567  134.5435  189.9282 C   0  0  0  0  0  0  0  0  0  0  0  0
  155.8721  136.4642  189.7059 C   0  0  0  0  0  0  0  0  0  0  0  0
  156.8033  137.0863  189.1415 O   0  0  0  0  0  0  0  0  0  0  0  0
  154.6752  137.0621  189.8931 N   0  0  0  0  0  0  0  0  0  0  0  0
  153.6743  136.4077  190.4944 C   0  0  0  0  0  0  0  0  0  0  0  0
  152.5935  136.9946  190.6455 O   0  0  0  0  0  0  0  0  0  0  0  0
  153.8394  135.1057  190.9383 C   0  0  0  0  0  0  0  0  0  0  0  0
  154.4556  138.4196  189.4467 C   0  0  0  0  0  0  0  0  0  0  0  0
  153.9909  138.3297  188.0479 C   0  0  0  0  0  0  0  0  0  0  0  0
  153.6076  138.2592  186.9553 N   0  0  0  0  0  0  0  0  0  0  0  0
 23 24  1  0  0  0
 24  1  1  0  0  0
  1  2  2  0  0  0
  1  3  1  0  0  0
  3  5  1  0  0  0
  5  6  2  0  0  0
  6  7  1  0  0  0
  7  8  2  0  0  0
  8  9  1  0  0  0
  9 10  2  0  0  0
  9 11  1  0  0  0
 11 12  2  0  0  0
 12 13  1  0  0  0
 13 14  2  0  0  0
 14 15  1  0  0  0
 15 16  2  0  0  0
 14 17  1  0  0  0
 17 18  1  0  0  0
 18 19  1  0  0  0
 19 20  1  0  0  0
 20 21  1  0  0  0
 21 22  1  0  0  0
 24 25  1  0  0  0
 25 26  1  0  0  0
 26 27  2  0  0  0
 27 28  1  0  0  0
 28 29  1  0  0  0
 29 30  1  0  0  0
 29 31  1  0  0  0
 31 32  2  0  0  0
 31 33  1  0  0  0
 33 37  1  0  0  0
 37 38  1  0  0  0
 38 39  3  0  0  0
 33 34  1  0  0  0
 34 35  2  0  0  0
 34 36  1  0  0  0
 10  5  1  0  0  0
 16 11  1  0  0  0
 22 17  1  0  0  0
 36 25  1  0  0  0
 21 19  1  0  0  0
 36 28  2  0  0  0
  3  4  1  0  0  0
M  END
> <minimizedAffinity>
-5.73686

> <CNNscore>
0.2217942774

> <CNNaffinity>
5.9322595596

> <CNN_VS>
1.3157411814

> <CNNaffinity_variance>
0.1077971607

$$$$
[H]c1nc(N2C([H])([H])C3([H])C([H])([H])C3([H])C2([H])[H])nc([H])c1-c1nc(N([H])C(=O)[C@@]([H])(n2c([H])nc3c2c(=O)n(C([H])([H])C#N)c(=O)n3C([H])([H])[H])C([H])([H])[H])c([H])c([H])c1[H]


 39 44  0  0  0  0  0  0  0  0999 V2000
  153.7341  137.8087  185.9160 C   0  0  0  0  0  0  0  0  0  0  0  0
  153.0902  138.7195  186.4859 O   0  0  0  0  0  0  0  0  0  0  0  0
  154.5959  137.0004  186.6941 N   0  0  0  0  0  0  0  0  0  0  0  0
  155.1303  136.2490  186.2382 H   0  0  0  0  0  0  0  0  0  0  0  0
  154.7582  137.1869  188.1112 C   0  0  0  0  0  0  0  0  0  0  0  0
  155.5489  138.2219  188.5907 C   0  0  0  0  0  0  0  0  0  0  0  0
  155.7330  138.4386  189.9325 C   0  0  0  0  0  0  0  0  0  0  0  0
  155.1011  137.5858  190.8495 C   0  0  0  0  0  0  0  0  0  0  0  0
  154.3286  136.5750  190.3598 C   0  0  0  0  0  0  0  0  0  0  0  0
  154.1687  136.3904  189.0089 N   0  0  0  0  0  0  0  0  0  0  0  0
  153.6458  135.6550  191.2770 C   0  0  0  0  0  0  0  0  0  0  0  0
  153.4276  135.9933  192.5779 C   0  0  0  0  0  0  0  0  0  0  0  0
  152.7852  135.0855  193.3732 N   0  0  0  0  0  0  0  0  0  0  0  0
  152.3613  133.8909  192.9490 C   0  0  0  0  0  0  0  0  0  0  0  0
  152.5900  133.5898  191.6707 N   0  0  0  0  0  0  0  0  0  0  0  0
  153.2107  134.4138  190.8174 C   0  0  0  0  0  0  0  0  0  0  0  0
  151.6933  132.9845  193.8364 N   0  0  0  0  0  0  0  0  0  0  0  0
  150.3566  133.1972  194.3314 C   0  0  0  0  0  0  0  0  0  0  0  0
  149.8642  131.8282  194.7633 C   0  0  0  0  0  0  0  0  0  0  0  0
  149.9334  130.7672  193.7298 C   0  0  0  0  0  0  0  0  0  0  0  0
  151.0346  130.9256  194.7170 C   0  0  0  0  0  0  0  0  0  0  0  0
  152.2412  131.7675  194.3476 C   0  0  0  0  0  0  0  0  0  0  0  0
  154.6438  136.6568  184.0046 C   0  0  0  0  0  0  0  0  0  0  0  0
  153.5627  137.6225  184.4586 C   0  0  0  0  0  0  0  0  0  0  0  0
  153.6066  138.8893  183.7862 N   0  0  0  0  0  0  0  0  0  0  0  0
  152.7195  139.4960  182.9821 C   0  0  0  0  0  0  0  0  0  0  0  0
  153.1790  140.6907  182.5701 N   0  0  0  0  0  0  0  0  0  0  0  0
  154.3957  140.8849  183.1091 C   0  0  0  0  0  0  0  0  0  0  0  0
  155.2704  141.9005  183.0151 N   0  0  0  0  0  0  0  0  0  0  0  0
  154.9069  143.0445  182.1942 C   0  0  0  0  0  0  0  0  0  0  0  0
  156.4229  141.8281  183.6655 C   0  0  0  0  0  0  0  0  0  0  0  0
  157.2347  142.7795  183.5733 O   0  0  0  0  0  0  0  0  0  0  0  0
  156.7279  140.7494  184.4194 N   0  0  0  0  0  0  0  0  0  0  0  0
  155.8690  139.7282  184.5250 C   0  0  0  0  0  0  0  0  0  0  0  0
  156.1897  138.7588  185.2271 O   0  0  0  0  0  0  0  0  0  0  0  0
  154.6501  139.7514  183.8666 C   0  0  0  0  0  0  0  0  0  0  0  0
  157.9878  140.6801  185.1251 C   0  0  0  0  0  0  0  0  0  0  0  0
  159.0419  140.6138  184.0931 C   0  0  0  0  0  0  0  0  0  0  0  0
  159.8724  140.5428  183.2863 N   0  0  0  0  0  0  0  0  0  0  0  0
 23 24  1  0  0  0
 24  1  1  0  0  0
  1  2  2  0  0  0
  1  3  1  0  0  0
  3  5  1  0  0  0
  5  6  2  0  0  0
  6  7  1  0  0  0
  7  8  2  0  0  0
  8  9  1  0  0  0
  9 10  2  0  0  0
  9 11  1  0  0  0
 11 12  2  0  0  0
 12 13  1  0  0  0
 13 14  2  0  0  0
 14 15  1  0  0  0
 15 16  2  0  0  0
 14 17  1  0  0  0
 17 18  1  0  0  0
 18 19  1  0  0  0
 19 20  1  0  0  0
 20 21  1  0  0  0
 21 22  1  0  0  0
 24 25  1  0  0  0
 25 26  1  0  0  0
 26 27  2  0  0  0
 27 28  1  0  0  0
 28 29  1  0  0  0
 29 30  1  0  0  0
 29 31  1  0  0  0
 31 32  2  0  0  0
 31 33  1  0  0  0
 33 37  1  0  0  0
 37 38  1  0  0  0
 38 39  3  0  0  0
 33 34  1  0  0  0
 34 35  2  0  0  0
 34 36  1  0  0  0
 10  5  1  0  0  0
 16 11  1  0  0  0
 22 17  1  0  0  0
 36 25  1  0  0  0
 21 19  1  0  0  0
 36 28  2  0  0  0
  3  4  1  0  0  0
M  END
> <minimizedAffinity>
-6.01726

> <CNNscore>
0.2153564841

> <CNNaffinity>
6.1806030273

> <CNN_VS>
1.3310329914

> <CNNaffinity_variance>
0.0473973677

$$$$
[H]c1nc(N2C([H])([H])C3([H])C([H])([H])C3([H])C2([H])[H])nc([H])c1-c1nc(N([H])C(=O)[C@@]([H])(n2c([H])nc3c2c(=O)n(C([H])([H])C#N)c(=O)n3C([H])([H])[H])C([H])([H])[H])c([H])c([H])c1[H]


 39 44  0  0  0  0  0  0  0  0999 V2000
  154.7292  137.2941  189.7219 C   0  0  0  0  0  0  0  0  0  0  0  0
  155.5816  136.7329  188.9955 O   0  0  0  0  0  0  0  0  0  0  0  0
  153.6112  137.9042  189.1057 N   0  0  0  0  0  0  0  0  0  0  0  0
  152.9041  138.3683  189.6910 H   0  0  0  0  0  0  0  0  0  0  0  0
  153.4197  137.9030  187.6801 C   0  0  0  0  0  0  0  0  0  0  0  0
  152.3923  137.1590  187.1168 C   0  0  0  0  0  0  0  0  0  0  0  0
  152.1712  137.1271  185.7634 C   0  0  0  0  0  0  0  0  0  0  0  0
  153.0114  137.8710  184.9219 C   0  0  0  0  0  0  0  0  0  0  0  0
  154.0149  138.5953  185.4934 C   0  0  0  0  0  0  0  0  0  0  0  0
  154.2042  138.6018  186.8530 N   0  0  0  0  0  0  0  0  0  0  0  0
  154.9217  139.3906  184.6573 C   0  0  0  0  0  0  0  0  0  0  0  0
  156.2664  139.3789  184.8716 C   0  0  0  0  0  0  0  0  0  0  0  0
  157.0487  140.1449  184.0527 N   0  0  0  0  0  0  0  0  0  0  0  0
  156.5716  140.9007  183.0589 C   0  0  0  0  0  0  0  0  0  0  0  0
  155.2514  140.8905  182.8750 N   0  0  0  0  0  0  0  0  0  0  0  0
  154.4065  140.1727  183.6257 C   0  0  0  0  0  0  0  0  0  0  0  0
  157.4484  141.6815  182.2362 N   0  0  0  0  0  0  0  0  0  0  0  0
  158.7567  141.2385  181.8251 C   0  0  0  0  0  0  0  0  0  0  0  0
  159.0965  142.0676  180.6002 C   0  0  0  0  0  0  0  0  0  0  0  0
  158.1022  142.0239  179.5011 C   0  0  0  0  0  0  0  0  0  0  0  0
  158.0632  143.1210  180.5046 C   0  0  0  0  0  0  0  0  0  0  0  0
  157.1608  142.9813  181.7159 C   0  0  0  0  0  0  0  0  0  0  0  0
  155.9656  136.2204  191.4899 C   0  0  0  0  0  0  0  0  0  0  0  0
  154.9323  137.2919  191.1871 C   0  0  0  0  0  0  0  0  0  0  0  0
  153.6826  137.0902  191.8627 N   0  0  0  0  0  0  0  0  0  0  0  0
  152.9377  137.9180  192.6121 C   0  0  0  0  0  0  0  0  0  0  0  0
  151.8266  137.3022  193.0530 N   0  0  0  0  0  0  0  0  0  0  0  0
  151.8301  136.0398  192.5895 C   0  0  0  0  0  0  0  0  0  0  0  0
  150.9636  135.0237  192.7382 N   0  0  0  0  0  0  0  0  0  0  0  0
  149.7701  135.2520  193.5370 C   0  0  0  0  0  0  0  0  0  0  0  0
  151.2212  133.8597  192.1592 C   0  0  0  0  0  0  0  0  0  0  0  0
  150.4083  132.9156  192.3021 O   0  0  0  0  0  0  0  0  0  0  0  0
  152.3405  133.6830  191.4237 N   0  0  0  0  0  0  0  0  0  0  0  0
  153.2151  134.6837  191.2645 C   0  0  0  0  0  0  0  0  0  0  0  0
  154.2285  134.4774  190.5819 O   0  0  0  0  0  0  0  0  0  0  0  0
  152.9956  135.9213  191.8473 C   0  0  0  0  0  0  0  0  0  0  0  0
  152.6124  132.4092  190.7961 C   0  0  0  0  0  0  0  0  0  0  0  0
  151.9405  132.4390  189.4815 C   0  0  0  0  0  0  0  0  0  0  0  0
  151.4060  132.4445  188.4519 N   0  0  0  0  0  0  0  0  0  0  0  0
 23 24  1  0  0  0
 24  1  1  0  0  0
  1  2  2  0  0  0
  1  3  1  0  0  0
  3  5  1  0  0  0
  5  6  2  0  0  0
  6  7  1  0  0  0
  7  8  2  0  0  0
  8  9  1  0  0  0
  9 10  2  0  0  0
  9 11  1  0  0  0
 11 12  2  0  0  0
 12 13  1  0  0  0
 13 14  2  0  0  0
 14 15  1  0  0  0
 15 16  2  0  0  0
 14 17  1  0  0  0
 17 18  1  0  0  0
 18 19  1  0  0  0
 19 20  1  0  0  0
 20 21  1  0  0  0
 21 22  1  0  0  0
 24 25  1  0  0  0
 25 26  1  0  0  0
 26 27  2  0  0  0
 27 28  1  0  0  0
 28 29  1  0  0  0
 29 30  1  0  0  0
 29 31  1  0  0  0
 31 32  2  0  0  0
 31 33  1  0  0  0
 33 37  1  0  0  0
 37 38  1  0  0  0
 38 39  3  0  0  0
 33 34  1  0  0  0
 34 35  2  0  0  0
 34 36  1  0  0  0
 10  5  1  0  0  0
 16 11  1  0  0  0
 22 17  1  0  0  0
 36 25  1  0  0  0
 21 19  1  0  0  0
 36 28  2  0  0  0
  3  4  1  0  0  0
M  END
> <minimizedAffinity>
-7.26952

> <CNNscore>
0.2103996277

> <CNNaffinity>
6.2489738464

> <CNN_VS>
1.3147817850

> <CNNaffinity_variance>
0.0826395750

$$$$
[H]c1nc2c(c(=O)n(C([H])([H])c3nc(C([H])([H])[H])no3)c(=O)n2C([H])([H])[H])n1C([H])([H])C(=O)N([H])[H]


 25 27  0  0  0  0  0  0  0  0999 V2000
  158.4885  141.6941  183.2090 N   0  0  0  0  0  0  0  0  0  0  0  0
  158.0139  142.8600  182.7526 C   0  0  0  0  0  0  0  0  0  0  0  0
  158.8628  143.7672  182.5159 O   0  0  0  0  0  0  0  0  0  0  0  0
  156.6821  143.0643  182.5513 N   0  0  0  0  0  0  0  0  0  0  0  0
  156.2033  144.3418  182.0553 C   0  0  0  0  0  0  0  0  0  0  0  0
  155.7975  142.0990  182.8049 C   0  0  0  0  0  0  0  0  0  0  0  0
  154.4636  142.0305  182.6995 N   0  0  0  0  0  0  0  0  0  0  0  0
  154.0779  140.8209  183.0877 C   0  0  0  0  0  0  0  0  0  0  0  0
  155.1516  140.0949  183.4474 N   0  0  0  0  0  0  0  0  0  0  0  0
  156.2406  140.8672  183.2814 C   0  0  0  0  0  0  0  0  0  0  0  0
  157.5952  140.7136  183.4671 C   0  0  0  0  0  0  0  0  0  0  0  0
  158.0223  139.6113  183.8966 O   0  0  0  0  0  0  0  0  0  0  0  0
  159.8781  141.4598  183.4265 C   0  0  0  0  0  0  0  0  0  0  0  0
  162.9402  142.8742  187.1436 C   0  0  0  0  0  0  0  0  0  0  0  0
  161.7181  142.5516  186.3541 C   0  0  0  0  0  0  0  0  0  0  0  0
  160.4325  142.6355  186.7381 N   0  0  0  0  0  0  0  0  0  0  0  0
  159.6674  142.2635  185.7562 O   0  0  0  0  0  0  0  0  0  0  0  0
  160.3817  141.9284  184.7153 C   0  0  0  0  0  0  0  0  0  0  0  0
  161.6641  142.1008  185.0667 N   0  0  0  0  0  0  0  0  0  0  0  0
  155.1506  138.7458  183.9216 C   0  0  0  0  0  0  0  0  0  0  0  0
  155.0085  138.7170  185.3909 C   0  0  0  0  0  0  0  0  0  0  0  0
  156.1538  138.5958  186.2089 N   0  0  0  0  0  0  0  0  0  0  0  0
  153.8691  138.8009  185.8931 O   0  0  0  0  0  0  0  0  0  0  0  0
  156.8910  139.3174  186.2076 H   0  0  0  0  0  0  0  0  0  0  0  0
  156.2184  137.7421  186.8141 H   0  0  0  0  0  0  0  0  0  0  0  0
 14 15  1  0  0  0
 15 16  2  0  0  0
 16 17  1  0  0  0
 17 18  1  0  0  0
 18 13  1  0  0  0
 13  1  1  0  0  0
  1  2  1  0  0  0
  2  3  2  0  0  0
  2  4  1  0  0  0
  4  5  1  0  0  0
  4  6  1  0  0  0
  6  7  1  0  0  0
  7  8  2  0  0  0
  8  9  1  0  0  0
  9 20  1  0  0  0
 20 21  1  0  0  0
 21 22  1  0  0  0
 21 23  2  0  0  0
  9 10  1  0  0  0
 10 11  1  0  0  0
 11 12  2  0  0  0
 18 19  2  0  0  0
 19 15  1  0  0  0
 11  1  1  0  0  0
 10  6  2  0  0  0
 22 24  1  0  0  0
 22 25  1  0  0  0
M  END
> <minimizedAffinity>
-7.16752

> <CNNscore>
0.5955491662

> <CNNaffinity>
5.9217820168

> <CNN_VS>
3.5267124176

> <CNNaffinity_variance>
0.2518320680

$$$$
[H]c1nc2c(c(=O)n(C([H])([H])c3nc(C([H])([H])[H])no3)c(=O)n2C([H])([H])[H])n1C([H])([H])C(=O)N([H])[H]


 25 27  0  0  0  0  0  0  0  0999 V2000
  154.4904  138.2941  185.1877 N   0  0  0  0  0  0  0  0  0  0  0  0
  153.2212  137.8825  185.0753 C   0  0  0  0  0  0  0  0  0  0  0  0
  152.7198  137.8922  183.9141 O   0  0  0  0  0  0  0  0  0  0  0  0
  152.5004  137.4722  186.1560 N   0  0  0  0  0  0  0  0  0  0  0  0
  151.1262  137.0324  185.9965 C   0  0  0  0  0  0  0  0  0  0  0  0
  153.0413  137.4669  187.3750 C   0  0  0  0  0  0  0  0  0  0  0  0
  152.5723  137.1224  188.5819 N   0  0  0  0  0  0  0  0  0  0  0  0
  153.5386  137.3116  189.4725 C   0  0  0  0  0  0  0  0  0  0  0  0
  154.6395  137.7786  188.8566 N   0  0  0  0  0  0  0  0  0  0  0  0
  154.3589  137.8859  187.5453 C   0  0  0  0  0  0  0  0  0  0  0  0
  155.0418  138.2902  186.4213 C   0  0  0  0  0  0  0  0  0  0  0  0
  156.2332  138.6735  186.5467 O   0  0  0  0  0  0  0  0  0  0  0  0
  155.2620  138.7274  184.0697 C   0  0  0  0  0  0  0  0  0  0  0  0
  153.9187  143.4011  182.8265 C   0  0  0  0  0  0  0  0  0  0  0  0
  154.6969  142.2298  183.3196 C   0  0  0  0  0  0  0  0  0  0  0  0
  155.9392  142.2118  183.8329 N   0  0  0  0  0  0  0  0  0  0  0  0
  156.2563  140.9909  184.1437 O   0  0  0  0  0  0  0  0  0  0  0  0
  155.2774  140.1734  183.8622 C   0  0  0  0  0  0  0  0  0  0  0  0
  154.2943  140.9256  183.3470 N   0  0  0  0  0  0  0  0  0  0  0  0
  155.8884  138.1054  189.4715 C   0  0  0  0  0  0  0  0  0  0  0  0
  156.5678  136.8807  189.9391 C   0  0  0  0  0  0  0  0  0  0  0  0
  157.1340  135.9863  189.0036 N   0  0  0  0  0  0  0  0  0  0  0  0
  156.6325  136.6515  191.1641 O   0  0  0  0  0  0  0  0  0  0  0  0
  157.9026  136.2791  188.3810 H   0  0  0  0  0  0  0  0  0  0  0  0
  156.7378  135.0160  188.9725 H   0  0  0  0  0  0  0  0  0  0  0  0
 14 15  1  0  0  0
 15 16  2  0  0  0
 16 17  1  0  0  0
 17 18  1  0  0  0
 18 13  1  0  0  0
 13  1  1  0  0  0
  1  2  1  0  0  0
  2  3  2  0  0  0
  2  4  1  0  0  0
  4  5  1  0  0  0
  4  6  1  0  0  0
  6  7  1  0  0  0
  7  8  2  0  0  0
  8  9  1  0  0  0
  9 20  1  0  0  0
 20 21  1  0  0  0
 21 22  1  0  0  0
 21 23  2  0  0  0
  9 10  1  0  0  0
 10 11  1  0  0  0
 11 12  2  0  0  0
 18 19  2  0  0  0
 19 15  1  0  0  0
 11  1  1  0  0  0
 10  6  2  0  0  0
 22 24  1  0  0  0
 22 25  1  0  0  0
M  END
> <minimizedAffinity>
-5.19939

> <CNNscore>
0.5637879372

> <CNNaffinity>
4.8430066109

> <CNN_VS>
2.7304286957

> <CNNaffinity_variance>
0.3975633681

$$$$
[H]c1nc2c(c(=O)n(C([H])([H])c3nc(C([H])([H])[H])no3)c(=O)n2C([H])([H])[H])n1C([H])([H])C(=O)N([H])[H]


 25 27  0  0  0  0  0  0  0  0999 V2000
  152.0033  137.4782  182.7670 N   0  0  0  0  0  0  0  0  0  0  0  0
  152.7620  138.5813  182.7832 C   0  0  0  0  0  0  0  0  0  0  0  0
  153.6287  138.6633  183.7008 O   0  0  0  0  0  0  0  0  0  0  0  0
  152.6117  139.5705  181.8587 N   0  0  0  0  0  0  0  0  0  0  0  0
  153.4524  140.7530  181.9072 C   0  0  0  0  0  0  0  0  0  0  0  0
  151.6939  139.4715  180.8962 C   0  0  0  0  0  0  0  0  0  0  0  0
  151.3403  140.2746  179.8837 N   0  0  0  0  0  0  0  0  0  0  0  0
  150.3540  139.6898  179.2146 C   0  0  0  0  0  0  0  0  0  0  0  0
  150.0582  138.5070  179.7825 N   0  0  0  0  0  0  0  0  0  0  0  0
  150.8791  138.3432  180.8356 C   0  0  0  0  0  0  0  0  0  0  0  0
  151.0721  137.3743  181.7933 C   0  0  0  0  0  0  0  0  0  0  0  0
  150.3498  136.3450  181.7618 O   0  0  0  0  0  0  0  0  0  0  0  0
  152.1443  136.4316  183.7250 C   0  0  0  0  0  0  0  0  0  0  0  0
  148.4017  137.0196  187.0176 C   0  0  0  0  0  0  0  0  0  0  0  0
  149.7600  136.8923  186.4179 C   0  0  0  0  0  0  0  0  0  0  0  0
  150.9520  136.9463  187.0370 N   0  0  0  0  0  0  0  0  0  0  0  0
  151.8974  136.7912  186.1596 O   0  0  0  0  0  0  0  0  0  0  0  0
  151.3966  136.6332  184.9638 C   0  0  0  0  0  0  0  0  0  0  0  0
  150.0643  136.6929  185.1021 N   0  0  0  0  0  0  0  0  0  0  0  0
  149.0558  137.5811  179.3548 C   0  0  0  0  0  0  0  0  0  0  0  0
  147.7137  138.1851  179.4725 C   0  0  0  0  0  0  0  0  0  0  0  0
  147.2999  138.7533  180.6978 N   0  0  0  0  0  0  0  0  0  0  0  0
  146.9579  138.1849  178.4794 O   0  0  0  0  0  0  0  0  0  0  0  0
  147.7943  139.5610  181.1070 H   0  0  0  0  0  0  0  0  0  0  0  0
  146.4710  138.3172  181.1690 H   0  0  0  0  0  0  0  0  0  0  0  0
 14 15  1  0  0  0
 15 16  2  0  0  0
 16 17  1  0  0  0
 17 18  1  0  0  0
 18 13  1  0  0  0
 13  1  1  0  0  0
  1  2  1  0  0  0
  2  3  2  0  0  0
  2  4  1  0  0  0
  4  5  1  0  0  0
  4  6  1  0  0  0
  6  7  1  0  0  0
  7  8  2  0  0  0
  8  9  1  0  0  0
  9 20  1  0  0  0
 20 21  1  0  0  0
 21 22  1  0  0  0
 21 23  2  0  0  0
  9 10  1  0  0  0
 10 11  1  0  0  0
 11 12  2  0  0  0
 18 19  2  0  0  0
 19 15  1  0  0  0
 11  1  1  0  0  0
 10  6  2  0  0  0
 22 24  1  0  0  0
 22 25  1  0  0  0
M  END
> <minimizedAffinity>
-4.25058

> <CNNscore>
0.5522812605

> <CNNaffinity>
4.6686863899

> <CNN_VS>
2.5784280300

> <CNNaffinity_variance>
0.1936932355

$$$$
[H]c1nc2c(c(=O)n(C([H])([H])c3nc(C([H])([H])[H])no3)c(=O)n2C([H])([H])[H])n1C([H])([H])C(=O)N([H])[H]


 25 27  0  0  0  0  0  0  0  0999 V2000
  152.8422  135.9243  190.5245 N   0  0  0  0  0  0  0  0  0  0  0  0
  152.9089  136.8503  191.4893 C   0  0  0  0  0  0  0  0  0  0  0  0
  153.8676  137.6728  191.4243 O   0  0  0  0  0  0  0  0  0  0  0  0
  151.9912  136.9082  192.4944 N   0  0  0  0  0  0  0  0  0  0  0  0
  152.0950  137.9263  193.5240 C   0  0  0  0  0  0  0  0  0  0  0  0
  150.9850  136.0348  192.5511 C   0  0  0  0  0  0  0  0  0  0  0  0
  149.9674  135.8663  193.4064 N   0  0  0  0  0  0  0  0  0  0  0  0
  149.2447  134.8321  192.9935 C   0  0  0  0  0  0  0  0  0  0  0  0
  149.7824  134.3206  191.8716 N   0  0  0  0  0  0  0  0  0  0  0  0
  150.8711  135.0514  191.5710 C   0  0  0  0  0  0  0  0  0  0  0  0
  151.8241  135.0374  190.5786 C   0  0  0  0  0  0  0  0  0  0  0  0
  151.7449  134.1600  189.6809 O   0  0  0  0  0  0  0  0  0  0  0  0
  153.7921  135.8463  189.4640 C   0  0  0  0  0  0  0  0  0  0  0  0
  154.3671  138.6944  185.3712 C   0  0  0  0  0  0  0  0  0  0  0  0
  153.7684  137.9935  186.5421 C   0  0  0  0  0  0  0  0  0  0  0  0
  152.4925  138.0188  186.9646 N   0  0  0  0  0  0  0  0  0  0  0  0
  152.3771  137.2738  188.0227 O   0  0  0  0  0  0  0  0  0  0  0  0
  153.5263  136.7401  188.3395 C   0  0  0  0  0  0  0  0  0  0  0  0
  154.4083  137.1760  187.4286 N   0  0  0  0  0  0  0  0  0  0  0  0
  149.2954  133.2034  191.1236 C   0  0  0  0  0  0  0  0  0  0  0  0
  148.3119  133.6481  190.1162 C   0  0  0  0  0  0  0  0  0  0  0  0
  148.7415  134.0016  188.8177 N   0  0  0  0  0  0  0  0  0  0  0  0
  147.1051  133.7057  190.4290 O   0  0  0  0  0  0  0  0  0  0  0  0
  149.1944  133.3124  188.1979 H   0  0  0  0  0  0  0  0  0  0  0  0
  148.5790  134.9924  188.5157 H   0  0  0  0  0  0  0  0  0  0  0  0
 14 15  1  0  0  0
 15 16  2  0  0  0
 16 17  1  0  0  0
 17 18  1  0  0  0
 18 13  1  0  0  0
 13  1  1  0  0  0
  1  2  1  0  0  0
  2  3  2  0  0  0
  2  4  1  0  0  0
  4  5  1  0  0  0
  4  6  1  0  0  0
  6  7  1  0  0  0
  7  8  2  0  0  0
  8  9  1  0  0  0
  9 20  1  0  0  0
 20 21  1  0  0  0
 21 22  1  0  0  0
 21 23  2  0  0  0
  9 10  1  0  0  0
 10 11  1  0  0  0
 11 12  2  0  0  0
 18 19  2  0  0  0
 19 15  1  0  0  0
 11  1  1  0  0  0
 10  6  2  0  0  0
 22 24  1  0  0  0
 22 25  1  0  0  0
M  END
> <minimizedAffinity>
-3.97995

> <CNNscore>
0.5465056300

> <CNNaffinity>
4.5709829330

> <CNN_VS>
2.4980678558

> <CNNaffinity_variance>
0.1313664615

$$$$
[H]c1nc2c(c(=O)n(C([H])([H])c3nc(C([H])([H])[H])no3)c(=O)n2C([H])([H])[H])n1C([H])([H])C(=O)N([H])[H]


 25 27  0  0  0  0  0  0  0  0999 V2000
  153.9070  137.7455  185.3419 N   0  0  0  0  0  0  0  0  0  0  0  0
  152.6345  137.3469  185.4628 C   0  0  0  0  0  0  0  0  0  0  0  0
  151.9814  137.1927  184.3907 O   0  0  0  0  0  0  0  0  0  0  0  0
  152.0659  137.1171  186.6792 N   0  0  0  0  0  0  0  0  0  0  0  0
  150.6830  136.6856  186.7722 C   0  0  0  0  0  0  0  0  0  0  0  0
  152.7659  137.2834  187.8022 C   0  0  0  0  0  0  0  0  0  0  0  0
  152.4638  137.1325  189.0988 N   0  0  0  0  0  0  0  0  0  0  0  0
  153.5410  137.4337  189.8140 C   0  0  0  0  0  0  0  0  0  0  0  0
  154.5487  137.7815  188.9937 N   0  0  0  0  0  0  0  0  0  0  0  0
  154.0942  137.6971  187.7304 C   0  0  0  0  0  0  0  0  0  0  0  0
  154.6194  137.9152  186.4775 C   0  0  0  0  0  0  0  0  0  0  0  0
  155.8166  138.2894  186.3840 O   0  0  0  0  0  0  0  0  0  0  0  0
  154.5209  137.9915  184.0787 C   0  0  0  0  0  0  0  0  0  0  0  0
  154.2430  142.9240  183.1916 C   0  0  0  0  0  0  0  0  0  0  0  0
  154.0647  141.4484  183.0836 C   0  0  0  0  0  0  0  0  0  0  0  0
  153.3710  140.7588  182.1615 N   0  0  0  0  0  0  0  0  0  0  0  0
  153.4626  139.4886  182.4185 O   0  0  0  0  0  0  0  0  0  0  0  0
  154.1929  139.2839  183.4819 C   0  0  0  0  0  0  0  0  0  0  0  0
  154.5788  140.4935  183.9127 N   0  0  0  0  0  0  0  0  0  0  0  0
  155.8689  138.1719  189.3806 C   0  0  0  0  0  0  0  0  0  0  0  0
  156.5887  137.0298  189.9785 C   0  0  0  0  0  0  0  0  0  0  0  0
  156.5300  136.8097  191.3727 N   0  0  0  0  0  0  0  0  0  0  0  0
  157.2439  136.2690  189.2374 O   0  0  0  0  0  0  0  0  0  0  0  0
  155.6359  136.6051  191.8448 H   0  0  0  0  0  0  0  0  0  0  0  0
  157.4335  136.8641  191.9017 H   0  0  0  0  0  0  0  0  0  0  0  0
 14 15  1  0  0  0
 15 16  2  0  0  0
 16 17  1  0  0  0
 17 18  1  0  0  0
 18 13  1  0  0  0
 13  1  1  0  0  0
  1  2  1  0  0  0
  2  3  2  0  0  0
  2  4  1  0  0  0
  4  5  1  0  0  0
  4  6  1  0  0  0
  6  7  1  0  0  0
  7  8  2  0  0  0
  8  9  1  0  0  0
  9 20  1  0  0  0
 20 21  1  0  0  0
 21 22  1  0  0  0
 21 23  2  0  0  0
  9 10  1  0  0  0
 10 11  1  0  0  0
 11 12  2  0  0  0
 18 19  2  0  0  0
 19 15  1  0  0  0
 11  1  1  0  0  0
 10  6  2  0  0  0
 22 24  1  0  0  0
 22 25  1  0  0  0
M  END
> <minimizedAffinity>
-4.98336

> <CNNscore>
0.5334244370

> <CNNaffinity>
4.8209080696

> <CNN_VS>
2.5715901852

> <CNNaffinity_variance>
0.3161844611

$$$$
[H]c1nc2c(c(=O)n(C([H])([H])c3nc(C([H])([H])[H])no3)c(=O)n2C([H])([H])[H])n1C([H])([H])C(=O)N([H])[H]


 25 27  0  0  0  0  0  0  0  0999 V2000
  152.2918  137.5692  183.0889 N   0  0  0  0  0  0  0  0  0  0  0  0
  153.0070  138.6992  183.0219 C   0  0  0  0  0  0  0  0  0  0  0  0
  153.9028  138.8594  183.9003 O   0  0  0  0  0  0  0  0  0  0  0  0
  152.7846  139.6343  182.0566 N   0  0  0  0  0  0  0  0  0  0  0  0
  153.5797  140.8481  182.0147 C   0  0  0  0  0  0  0  0  0  0  0  0
  151.8367  139.4529  181.1361 C   0  0  0  0  0  0  0  0  0  0  0  0
  151.4153  140.1904  180.0999 N   0  0  0  0  0  0  0  0  0  0  0  0
  150.4286  139.5364  179.4987 C   0  0  0  0  0  0  0  0  0  0  0  0
  150.2001  138.3735  180.1348 N   0  0  0  0  0  0  0  0  0  0  0  0
  151.0648  138.2935  181.1622 C   0  0  0  0  0  0  0  0  0  0  0  0
  151.3304  137.3819  182.1580 C   0  0  0  0  0  0  0  0  0  0  0  0
  150.6481  136.3263  182.2048 O   0  0  0  0  0  0  0  0  0  0  0  0
  152.5085  136.5782  184.0909 C   0  0  0  0  0  0  0  0  0  0  0  0
  155.8960  132.8843  184.3626 C   0  0  0  0  0  0  0  0  0  0  0  0
  154.9657  133.9236  183.8380 C   0  0  0  0  0  0  0  0  0  0  0  0
  154.7253  134.2562  182.5578 N   0  0  0  0  0  0  0  0  0  0  0  0
  153.8466  135.2125  182.5219 O   0  0  0  0  0  0  0  0  0  0  0  0
  153.4773  135.5462  183.7294 C   0  0  0  0  0  0  0  0  0  0  0  0
  154.1635  134.7544  184.5659 N   0  0  0  0  0  0  0  0  0  0  0  0
  149.2196  137.3907  179.7917 C   0  0  0  0  0  0  0  0  0  0  0  0
  147.8905  137.7929  180.2934 C   0  0  0  0  0  0  0  0  0  0  0  0
  146.9607  138.4010  179.4209 N   0  0  0  0  0  0  0  0  0  0  0  0
  147.6054  137.5881  181.4910 O   0  0  0  0  0  0  0  0  0  0  0  0
  146.5941  137.9006  178.5966 H   0  0  0  0  0  0  0  0  0  0  0  0
  146.6627  139.3798  179.6498 H   0  0  0  0  0  0  0  0  0  0  0  0
 14 15  1  0  0  0
 15 16  2  0  0  0
 16 17  1  0  0  0
 17 18  1  0  0  0
 18 13  1  0  0  0
 13  1  1  0  0  0
  1  2  1  0  0  0
  2  3  2  0  0  0
  2  4  1  0  0  0
  4  5  1  0  0  0
  4  6  1  0  0  0
  6  7  1  0  0  0
  7  8  2  0  0  0
  8  9  1  0  0  0
  9 20  1  0  0  0
 20 21  1  0  0  0
 21 22  1  0  0  0
 21 23  2  0  0  0
  9 10  1  0  0  0
 10 11  1  0  0  0
 11 12  2  0  0  0
 18 19  2  0  0  0
 19 15  1  0  0  0
 11  1  1  0  0  0
 10  6  2  0  0  0
 22 24  1  0  0  0
 22 25  1  0  0  0
M  END
> <minimizedAffinity>
-4.10670

> <CNNscore>
0.5165619850

> <CNNaffinity>
4.4838647842

> <CNN_VS>
2.3161940575

> <CNNaffinity_variance>
0.3231652677

$$$$
[H]c1nc2c(c(=O)n(C([H])([H])c3nc(C([H])([H])[H])no3)c(=O)n2C([H])([H])[H])n1C([H])([H])C(=O)N([H])[H]


 25 27  0  0  0  0  0  0  0  0999 V2000
  153.7610  136.1104  188.7446 N   0  0  0  0  0  0  0  0  0  0  0  0
  154.8293  136.6412  189.3526 C   0  0  0  0  0  0  0  0  0  0  0  0
  155.9023  136.6844  188.6842 O   0  0  0  0  0  0  0  0  0  0  0  0
  154.7690  137.1133  190.6290 N   0  0  0  0  0  0  0  0  0  0  0  0
  155.9477  137.6824  191.2566 C   0  0  0  0  0  0  0  0  0  0  0  0
  153.6311  137.0617  191.3227 C   0  0  0  0  0  0  0  0  0  0  0  0
  153.2982  137.4438  192.5630 N   0  0  0  0  0  0  0  0  0  0  0  0
  152.0156  137.1596  192.7550 C   0  0  0  0  0  0  0  0  0  0  0  0
  151.5048  136.5929  191.6473 N   0  0  0  0  0  0  0  0  0  0  0  0
  152.4908  136.5186  190.7351 C   0  0  0  0  0  0  0  0  0  0  0  0
  152.6062  136.0563  189.4443 C   0  0  0  0  0  0  0  0  0  0  0  0
  151.5918  135.5609  188.8898 O   0  0  0  0  0  0  0  0  0  0  0  0
  153.8029  135.6107  187.4098 C   0  0  0  0  0  0  0  0  0  0  0  0
  152.6147  137.8280  183.0664 C   0  0  0  0  0  0  0  0  0  0  0  0
  153.0575  137.5996  184.4708 C   0  0  0  0  0  0  0  0  0  0  0  0
  153.4687  138.5079  185.3725 N   0  0  0  0  0  0  0  0  0  0  0  0
  153.7680  137.9036  186.4829 O   0  0  0  0  0  0  0  0  0  0  0  0
  153.5770  136.6161  186.3743 C   0  0  0  0  0  0  0  0  0  0  0  0
  153.1337  136.4047  185.1267 N   0  0  0  0  0  0  0  0  0  0  0  0
  150.1595  136.1461  191.4592 C   0  0  0  0  0  0  0  0  0  0  0  0
  149.9140  134.9128  192.2331 C   0  0  0  0  0  0  0  0  0  0  0  0
  149.2015  134.9736  193.4514 N   0  0  0  0  0  0  0  0  0  0  0  0
  150.3430  133.8255  191.7960 O   0  0  0  0  0  0  0  0  0  0  0  0
  148.2206  135.2916  193.4822 H   0  0  0  0  0  0  0  0  0  0  0  0
  149.7144  134.6818  194.3180 H   0  0  0  0  0  0  0  0  0  0  0  0
 14 15  1  0  0  0
 15 16  2  0  0  0
 16 17  1  0  0  0
 17 18  1  0  0  0
 18 13  1  0  0  0
 13  1  1  0  0  0
  1  2  1  0  0  0
  2  3  2  0  0  0
  2  4  1  0  0  0
  4  5  1  0  0  0
  4  6  1  0  0  0
  6  7  1  0  0  0
  7  8  2  0  0  0
  8  9  1  0  0  0
  9 20  1  0  0  0
 20 21  1  0  0  0
 21 22  1  0  0  0
 21 23  2  0  0  0
  9 10  1  0  0  0
 10 11  1  0  0  0
 11 12  2  0  0  0
 18 19  2  0  0  0
 19 15  1  0  0  0
 11  1  1  0  0  0
 10  6  2  0  0  0
 22 24  1  0  0  0
 22 25  1  0  0  0
M  END
> <minimizedAffinity>
-4.19382

> <CNNscore>
0.5115624666

> <CNNaffinity>
4.6712675095

> <CNN_VS>
2.3896450996

> <CNNaffinity_variance>
0.0634750426

$$$$
[H]c1nc2c(c(=O)n(C([H])([H])c3nc(C([H])([H])[H])no3)c(=O)n2C([H])([H])[H])n1C([H])([H])C(=O)N([H])[H]


 25 27  0  0  0  0  0  0  0  0999 V2000
  152.8411  138.6647  181.8857 N   0  0  0  0  0  0  0  0  0  0  0  0
  153.4356  139.8047  182.2597 C   0  0  0  0  0  0  0  0  0  0  0  0
  153.3506  140.7807  181.4597 O   0  0  0  0  0  0  0  0  0  0  0  0
  154.1010  139.9135  183.4435 N   0  0  0  0  0  0  0  0  0  0  0  0
  154.7337  141.1656  183.8164 C   0  0  0  0  0  0  0  0  0  0  0  0
  154.1830  138.8765  184.2781 C   0  0  0  0  0  0  0  0  0  0  0  0
  154.7602  138.7101  185.4757 N   0  0  0  0  0  0  0  0  0  0  0  0
  154.5382  137.4633  185.8741 C   0  0  0  0  0  0  0  0  0  0  0  0
  153.8183  136.8102  184.9443 N   0  0  0  0  0  0  0  0  0  0  0  0
  153.5812  137.6678  183.9353 C   0  0  0  0  0  0  0  0  0  0  0  0
  152.9222  137.6118  182.7287 C   0  0  0  0  0  0  0  0  0  0  0  0
  152.3699  136.5323  182.3945 O   0  0  0  0  0  0  0  0  0  0  0  0
  152.1400  138.5300  180.6515 C   0  0  0  0  0  0  0  0  0  0  0  0
  147.5348  139.4254  182.4359 C   0  0  0  0  0  0  0  0  0  0  0  0
  148.6668  139.1024  181.5221 C   0  0  0  0  0  0  0  0  0  0  0  0
  148.6224  138.8224  180.2080 N   0  0  0  0  0  0  0  0  0  0  0  0
  149.8271  138.5961  179.7776 O   0  0  0  0  0  0  0  0  0  0  0  0
  150.6936  138.7107  180.7482 C   0  0  0  0  0  0  0  0  0  0  0  0
  149.9909  139.0262  181.8456 N   0  0  0  0  0  0  0  0  0  0  0  0
  153.3775  135.4512  185.0046 C   0  0  0  0  0  0  0  0  0  0  0  0
  154.4730  134.5376  184.6236 C   0  0  0  0  0  0  0  0  0  0  0  0
  155.1776  133.8258  185.6198 N   0  0  0  0  0  0  0  0  0  0  0  0
  154.7630  134.4063  183.4169 O   0  0  0  0  0  0  0  0  0  0  0  0
  154.7009  133.1408  186.2262 H   0  0  0  0  0  0  0  0  0  0  0  0
  156.2026  134.0259  185.7129 H   0  0  0  0  0  0  0  0  0  0  0  0
 14 15  1  0  0  0
 15 16  2  0  0  0
 16 17  1  0  0  0
 17 18  1  0  0  0
 18 13  1  0  0  0
 13  1  1  0  0  0
  1  2  1  0  0  0
  2  3  2  0  0  0
  2  4  1  0  0  0
  4  5  1  0  0  0
  4  6  1  0  0  0
  6  7  1  0  0  0
  7  8  2  0  0  0
  8  9  1  0  0  0
  9 20  1  0  0  0
 20 21  1  0  0  0
 21 22  1  0  0  0
 21 23  2  0  0  0
  9 10  1  0  0  0
 10 11  1  0  0  0
 11 12  2  0  0  0
 18 19  2  0  0  0
 19 15  1  0  0  0
 11  1  1  0  0  0
 10  6  2  0  0  0
 22 24  1  0  0  0
 22 25  1  0  0  0
M  END
> <minimizedAffinity>
-4.45384

> <CNNscore>
0.5052149892

> <CNNaffinity>
4.6137366295

> <CNN_VS>
2.3309288025

> <CNNaffinity_variance>
0.1597737670

$$$$
[H]c1nc2c(c(=O)n(C([H])([H])c3nc(C([H])([H])[H])no3)c(=O)n2C([H])([H])[H])n1C([H])([H])C(=O)N([H])[H]


 25 27  0  0  0  0  0  0  0  0999 V2000
  158.0800  140.8844  182.9867 N   0  0  0  0  0  0  0  0  0  0  0  0
  157.9884  141.6519  181.8933 C   0  0  0  0  0  0  0  0  0  0  0  0
  157.3173  141.1886  180.9265 O   0  0  0  0  0  0  0  0  0  0  0  0
  158.5874  142.8733  181.8205 N   0  0  0  0  0  0  0  0  0  0  0  0
  158.4668  143.6783  180.6185 C   0  0  0  0  0  0  0  0  0  0  0  0
  159.2923  143.3501  182.8473 C   0  0  0  0  0  0  0  0  0  0  0  0
  159.9684  144.4904  183.0412 N   0  0  0  0  0  0  0  0  0  0  0  0
  160.4959  144.4586  184.2591 C   0  0  0  0  0  0  0  0  0  0  0  0
  160.1696  143.3033  184.8658 N   0  0  0  0  0  0  0  0  0  0  0  0
  159.4177  142.5901  184.0080 C   0  0  0  0  0  0  0  0  0  0  0  0
  158.7934  141.3641  184.0291 C   0  0  0  0  0  0  0  0  0  0  0  0
  158.8907  140.6573  185.0650 O   0  0  0  0  0  0  0  0  0  0  0  0
  157.4610  139.6035  183.0832 C   0  0  0  0  0  0  0  0  0  0  0  0
  153.5454  138.6287  186.0685 C   0  0  0  0  0  0  0  0  0  0  0  0
  154.4026  139.1918  184.9874 C   0  0  0  0  0  0  0  0  0  0  0  0
  154.0699  140.0888  184.0430 N   0  0  0  0  0  0  0  0  0  0  0  0
  155.1023  140.3190  183.2886 O   0  0  0  0  0  0  0  0  0  0  0  0
  156.1284  139.6131  183.6818 C   0  0  0  0  0  0  0  0  0  0  0  0
  155.7138  138.9026  184.7406 N   0  0  0  0  0  0  0  0  0  0  0  0
  160.5461  142.8945  186.1834 C   0  0  0  0  0  0  0  0  0  0  0  0
  161.9977  142.6319  186.2455 C   0  0  0  0  0  0  0  0  0  0  0  0
  162.7176  142.9199  187.4264 N   0  0  0  0  0  0  0  0  0  0  0  0
  162.5724  142.1553  185.2456 O   0  0  0  0  0  0  0  0  0  0  0  0
  162.5047  142.4385  188.3136 H   0  0  0  0  0  0  0  0  0  0  0  0
  163.4744  143.6423  187.3584 H   0  0  0  0  0  0  0  0  0  0  0  0
 14 15  1  0  0  0
 15 16  2  0  0  0
 16 17  1  0  0  0
 17 18  1  0  0  0
 18 13  1  0  0  0
 13  1  1  0  0  0
  1  2  1  0  0  0
  2  3  2  0  0  0
  2  4  1  0  0  0
  4  5  1  0  0  0
  4  6  1  0  0  0
  6  7  1  0  0  0
  7  8  2  0  0  0
  8  9  1  0  0  0
  9 20  1  0  0  0
 20 21  1  0  0  0
 21 22  1  0  0  0
 21 23  2  0  0  0
  9 10  1  0  0  0
 10 11  1  0  0  0
 11 12  2  0  0  0
 18 19  2  0  0  0
 19 15  1  0  0  0
 11  1  1  0  0  0
 10  6  2  0  0  0
 22 24  1  0  0  0
 22 25  1  0  0  0
M  END
> <minimizedAffinity>
-7.18792

> <CNNscore>
0.5034253001

> <CNNaffinity>
6.2032728195

> <CNN_VS>
3.1228845119

> <CNNaffinity_variance>
0.1216737181

$$$$
[H]c1nc(C(F)(F)F)c(C([H])([H])[H])c([H])c1-c1nc(N([H])C(=O)C([H])([H])n2c([H])nc3c2c(=O)n(C([H])([H])c2noc(C([H])([H])[H])c2[H])c(=O)n3C([H])([H])[H])c([H])s1


 40 44  0  0  0  0  0  0  0  0999 V2000
  155.4816  138.4248  184.6384 C   0  0  0  0  0  0  0  0  0  0  0  0
  158.4701  141.5657  183.3780 N   0  0  0  0  0  0  0  0  0  0  0  0
  157.8240  142.6584  182.9213 C   0  0  0  0  0  0  0  0  0  0  0  0
  158.5414  143.6347  182.5271 O   0  0  0  0  0  0  0  0  0  0  0  0
  156.4811  142.7339  182.8759 N   0  0  0  0  0  0  0  0  0  0  0  0
  155.8065  143.9222  182.3795 C   0  0  0  0  0  0  0  0  0  0  0  0
  155.6999  141.7185  183.2855 C   0  0  0  0  0  0  0  0  0  0  0  0
  154.3517  141.5538  183.3389 N   0  0  0  0  0  0  0  0  0  0  0  0
  154.1197  140.3193  183.8447 C   0  0  0  0  0  0  0  0  0  0  0  0
  155.3125  139.7485  184.0923 N   0  0  0  0  0  0  0  0  0  0  0  0
  156.3180  140.5770  183.7619 C   0  0  0  0  0  0  0  0  0  0  0  0
  157.6931  140.5400  183.7919 C   0  0  0  0  0  0  0  0  0  0  0  0
  158.2589  139.5098  184.2221 O   0  0  0  0  0  0  0  0  0  0  0  0
  159.9181  141.4828  183.4276 C   0  0  0  0  0  0  0  0  0  0  0  0
  162.8716  142.9422  187.3086 C   0  0  0  0  0  0  0  0  0  0  0  0
  161.6752  142.5762  186.4737 C   0  0  0  0  0  0  0  0  0  0  0  0
  161.6823  142.1721  185.1490 C   0  0  0  0  0  0  0  0  0  0  0  0
  160.3809  141.9337  184.7632 C   0  0  0  0  0  0  0  0  0  0  0  0
  159.6453  142.1996  185.8561 N   0  0  0  0  0  0  0  0  0  0  0  0
  160.4152  142.5698  186.8348 O   0  0  0  0  0  0  0  0  0  0  0  0
  155.2294  138.3536  186.0784 C   0  0  0  0  0  0  0  0  0  0  0  0
  154.1790  138.8714  186.5262 O   0  0  0  0  0  0  0  0  0  0  0  0
  156.1023  137.7323  187.0081 N   0  0  0  0  0  0  0  0  0  0  0  0
  156.9669  137.3081  186.6255 H   0  0  0  0  0  0  0  0  0  0  0  0
  155.8144  137.6840  188.4284 C   0  0  0  0  0  0  0  0  0  0  0  0
  156.6897  138.2290  189.3391 C   0  0  0  0  0  0  0  0  0  0  0  0
  155.8919  137.9079  190.8154 S   0  0  0  0  0  0  0  0  0  0  0  0
  154.5132  137.1119  190.1978 C   0  0  0  0  0  0  0  0  0  0  0  0
  154.7378  137.1347  188.8949 N   0  0  0  0  0  0  0  0  0  0  0  0
  153.3978  136.5636  190.9564 C   0  0  0  0  0  0  0  0  0  0  0  0
  152.1549  136.4863  190.3802 C   0  0  0  0  0  0  0  0  0  0  0  0
  151.1124  135.9730  191.0916 N   0  0  0  0  0  0  0  0  0  0  0  0
  151.2405  135.5297  192.3531 C   0  0  0  0  0  0  0  0  0  0  0  0
  152.4631  135.5889  192.9647 C   0  0  0  0  0  0  0  0  0  0  0  0
  152.6742  135.1112  194.3749 C   0  0  0  0  0  0  0  0  0  0  0  0
  153.5385  136.1147  192.2408 C   0  0  0  0  0  0  0  0  0  0  0  0
  150.0669  134.9709  193.1006 C   0  0  0  0  0  0  0  0  0  0  0  0
  149.6805  135.8168  194.1192 F   0  0  0  0  0  0  0  0  0  0  0  0
  150.3602  133.7090  193.5243 F   0  0  0  0  0  0  0  0  0  0  0  0
  148.9780  134.8932  192.2441 F   0  0  0  0  0  0  0  0  0  0  0  0
 15 16  1  0  0  0
 16 17  2  0  0  0
 17 18  1  0  0  0
 18 14  1  0  0  0
 14  2  1  0  0  0
  2  3  1  0  0  0
  3  4  2  0  0  0
  3  5  1  0  0  0
  5  6  1  0  0  0
  5  7  1  0  0  0
  7  8  1  0  0  0
  8  9  2  0  0  0
  9 10  1  0  0  0
 10  1  1  0  0  0
  1 21  1  0  0  0
 21 22  2  0  0  0
 21 23  1  0  0  0
 23 25  1  0  0  0
 25 26  2  0  0  0
 26 27  1  0  0  0
 27 28  1  0  0  0
 28 29  2  0  0  0
 28 30  1  0  0  0
 30 31  2  0  0  0
 31 32  1  0  0  0
 32 33  2  0  0  0
 33 34  1  0  0  0
 34 35  1  0  0  0
 34 36  2  0  0  0
 33 37  1  0  0  0
 37 38  1  0  0  0
 37 39  1  0  0  0
 37 40  1  0  0  0
 10 11  1  0  0  0
 11 12  1  0  0  0
 12 13  2  0  0  0
 18 19  2  0  0  0
 19 20  1  0  0  0
 20 16  1  0  0  0
 12  2  1  0  0  0
 11  7  2  0  0  0
 29 25  1  0  0  0
 36 30  1  0  0  0
 23 24  1  0  0  0
M  END
> <minimizedAffinity>
-9.47914

> <CNNscore>
0.6875919700

> <CNNaffinity>
7.0848855972

> <CNN_VS>
4.8715105057

> <CNNaffinity_variance>
0.1384359598

$$$$
[H]c1nc(C(F)(F)F)c(C([H])([H])[H])c([H])c1-c1nc(N([H])C(=O)C([H])([H])n2c([H])nc3c2c(=O)n(C([H])([H])c2noc(C([H])([H])[H])c2[H])c(=O)n3C([H])([H])[H])c([H])s1


 40 44  0  0  0  0  0  0  0  0999 V2000
  154.5524  136.4310  184.7238 C   0  0  0  0  0  0  0  0  0  0  0  0
  155.1148  140.7513  183.5389 N   0  0  0  0  0  0  0  0  0  0  0  0
  154.1543  141.1174  182.6652 C   0  0  0  0  0  0  0  0  0  0  0  0
  154.1841  142.3176  182.2388 O   0  0  0  0  0  0  0  0  0  0  0  0
  153.1975  140.2672  182.2496 N   0  0  0  0  0  0  0  0  0  0  0  0
  152.1721  140.6843  181.3071 C   0  0  0  0  0  0  0  0  0  0  0  0
  153.1424  138.9953  182.6834 C   0  0  0  0  0  0  0  0  0  0  0  0
  152.2956  137.9652  182.4196 N   0  0  0  0  0  0  0  0  0  0  0  0
  152.7210  136.9028  183.1436 C   0  0  0  0  0  0  0  0  0  0  0  0
  153.8095  137.2884  183.8339 N   0  0  0  0  0  0  0  0  0  0  0  0
  154.1069  138.5744  183.5805 C   0  0  0  0  0  0  0  0  0  0  0  0
  155.0676  139.4747  183.9805 C   0  0  0  0  0  0  0  0  0  0  0  0
  155.9434  139.1002  184.7924 O   0  0  0  0  0  0  0  0  0  0  0  0
  156.1473  141.6669  183.9880 C   0  0  0  0  0  0  0  0  0  0  0  0
  159.1823  142.8159  180.0658 C   0  0  0  0  0  0  0  0  0  0  0  0
  158.6004  142.1547  181.2851 C   0  0  0  0  0  0  0  0  0  0  0  0
  157.4358  142.5117  181.9443 C   0  0  0  0  0  0  0  0  0  0  0  0
  157.2618  141.6538  183.0088 C   0  0  0  0  0  0  0  0  0  0  0  0
  158.3150  140.8208  182.9533 N   0  0  0  0  0  0  0  0  0  0  0  0
  159.0771  141.1290  181.9474 O   0  0  0  0  0  0  0  0  0  0  0  0
  154.2998  136.7042  186.1395 C   0  0  0  0  0  0  0  0  0  0  0  0
  153.1109  136.7549  186.5342 O   0  0  0  0  0  0  0  0  0  0  0  0
  155.3200  136.9170  187.1019 N   0  0  0  0  0  0  0  0  0  0  0  0
  156.2984  136.8724  186.7632 H   0  0  0  0  0  0  0  0  0  0  0  0
  155.0261  137.1851  188.4962 C   0  0  0  0  0  0  0  0  0  0  0  0
  155.7744  138.0948  189.2070 C   0  0  0  0  0  0  0  0  0  0  0  0
  155.0282  138.0266  190.7425 S   0  0  0  0  0  0  0  0  0  0  0  0
  153.8271  136.8634  190.3962 C   0  0  0  0  0  0  0  0  0  0  0  0
  154.0618  136.5898  189.1239 N   0  0  0  0  0  0  0  0  0  0  0  0
  152.8203  136.3373  191.3071 C   0  0  0  0  0  0  0  0  0  0  0  0
  151.5204  136.2110  190.8862 C   0  0  0  0  0  0  0  0  0  0  0  0
  150.5798  135.7186  191.7400 N   0  0  0  0  0  0  0  0  0  0  0  0
  150.8643  135.3427  192.9979 C   0  0  0  0  0  0  0  0  0  0  0  0
  152.1485  135.4525  193.4572 C   0  0  0  0  0  0  0  0  0  0  0  0
  152.5336  135.0512  194.8544 C   0  0  0  0  0  0  0  0  0  0  0  0
  153.1201  135.9573  192.5865 C   0  0  0  0  0  0  0  0  0  0  0  0
  149.7986  134.8047  193.9052 C   0  0  0  0  0  0  0  0  0  0  0  0
  149.4487  135.7334  194.8630 F   0  0  0  0  0  0  0  0  0  0  0  0
  150.2084  133.6141  194.4272 F   0  0  0  0  0  0  0  0  0  0  0  0
  148.6466  134.5750  193.1668 F   0  0  0  0  0  0  0  0  0  0  0  0
 15 16  1  0  0  0
 16 17  2  0  0  0
 17 18  1  0  0  0
 18 14  1  0  0  0
 14  2  1  0  0  0
  2  3  1  0  0  0
  3  4  2  0  0  0
  3  5  1  0  0  0
  5  6  1  0  0  0
  5  7  1  0  0  0
  7  8  1  0  0  0
  8  9  2  0  0  0
  9 10  1  0  0  0
 10  1  1  0  0  0
  1 21  1  0  0  0
 21 22  2  0  0  0
 21 23  1  0  0  0
 23 25  1  0  0  0
 25 26  2  0  0  0
 26 27  1  0  0  0
 27 28  1  0  0  0
 28 29  2  0  0  0
 28 30  1  0  0  0
 30 31  2  0  0  0
 31 32  1  0  0  0
 32 33  2  0  0  0
 33 34  1  0  0  0
 34 35  1  0  0  0
 34 36  2  0  0  0
 33 37  1  0  0  0
 37 38  1  0  0  0
 37 39  1  0  0  0
 37 40  1  0  0  0
 10 11  1  0  0  0
 11 12  1  0  0  0
 12 13  2  0  0  0
 18 19  2  0  0  0
 19 20  1  0  0  0
 20 16  1  0  0  0
 12  2  1  0  0  0
 11  7  2  0  0  0
 29 25  1  0  0  0
 36 30  1  0  0  0
 23 24  1  0  0  0
M  END
> <minimizedAffinity>
-7.86622

> <CNNscore>
0.4349354208

> <CNNaffinity>
6.5481405258

> <CNN_VS>
2.8480181694

> <CNNaffinity_variance>
0.2598777711

$$$$
[H]c1nc(C(F)(F)F)c(C([H])([H])[H])c([H])c1-c1nc(N([H])C(=O)C([H])([H])n2c([H])nc3c2c(=O)n(C([H])([H])c2noc(C([H])([H])[H])c2[H])c(=O)n3C([H])([H])[H])c([H])s1


 40 44  0  0  0  0  0  0  0  0999 V2000
  154.6863  139.7983  182.8403 C   0  0  0  0  0  0  0  0  0  0  0  0
  158.5372  142.1542  182.7605 N   0  0  0  0  0  0  0  0  0  0  0  0
  158.2714  143.4639  182.5760 C   0  0  0  0  0  0  0  0  0  0  0  0
  159.2668  144.2577  182.5313 O   0  0  0  0  0  0  0  0  0  0  0  0
  157.0166  143.9318  182.4427 N   0  0  0  0  0  0  0  0  0  0  0  0
  156.7543  145.3479  182.2446 C   0  0  0  0  0  0  0  0  0  0  0  0
  155.9478  143.1164  182.4858 C   0  0  0  0  0  0  0  0  0  0  0  0
  154.6112  143.3393  182.3795 N   0  0  0  0  0  0  0  0  0  0  0  0
  153.9953  142.1391  182.4987 C   0  0  0  0  0  0  0  0  0  0  0  0
  154.9487  141.2064  182.6744 N   0  0  0  0  0  0  0  0  0  0  0  0
  156.1713  141.7648  182.6732 C   0  0  0  0  0  0  0  0  0  0  0  0
  157.4691  141.3270  182.8052 C   0  0  0  0  0  0  0  0  0  0  0  0
  157.6783  140.1047  182.9752 O   0  0  0  0  0  0  0  0  0  0  0  0
  159.8896  141.6481  182.9044 C   0  0  0  0  0  0  0  0  0  0  0  0
  162.8080  142.8199  186.9075 C   0  0  0  0  0  0  0  0  0  0  0  0
  161.6356  142.4230  186.0527 C   0  0  0  0  0  0  0  0  0  0  0  0
  161.6249  142.2849  184.6746 C   0  0  0  0  0  0  0  0  0  0  0  0
  160.3566  141.9084  184.2883 C   0  0  0  0  0  0  0  0  0  0  0  0
  159.6574  141.8341  185.4336 N   0  0  0  0  0  0  0  0  0  0  0  0
  160.4177  142.1360  186.4428 O   0  0  0  0  0  0  0  0  0  0  0  0
  154.7381  139.3580  184.2353 C   0  0  0  0  0  0  0  0  0  0  0  0
  155.7195  139.7050  184.9341 O   0  0  0  0  0  0  0  0  0  0  0  0
  153.7429  138.5581  184.8534 N   0  0  0  0  0  0  0  0  0  0  0  0
  152.9369  138.2781  184.2653 H   0  0  0  0  0  0  0  0  0  0  0  0
  153.8330  138.1432  186.2398 C   0  0  0  0  0  0  0  0  0  0  0  0
  152.9648  138.6489  187.1796 C   0  0  0  0  0  0  0  0  0  0  0  0
  153.4940  137.8547  188.5968 S   0  0  0  0  0  0  0  0  0  0  0  0
  154.7683  136.9404  187.9219 C   0  0  0  0  0  0  0  0  0  0  0  0
  154.7202  137.2922  186.6480 N   0  0  0  0  0  0  0  0  0  0  0  0
  155.6564  136.0188  188.6162 C   0  0  0  0  0  0  0  0  0  0  0  0
  155.7291  136.0449  189.9862 C   0  0  0  0  0  0  0  0  0  0  0  0
  156.5607  135.1818  190.6340 N   0  0  0  0  0  0  0  0  0  0  0  0
  157.3288  134.2885  189.9886 C   0  0  0  0  0  0  0  0  0  0  0  0
  157.2862  134.2296  188.6221 C   0  0  0  0  0  0  0  0  0  0  0  0
  158.1210  133.2546  187.8387 C   0  0  0  0  0  0  0  0  0  0  0  0
  156.4347  135.1126  187.9496 C   0  0  0  0  0  0  0  0  0  0  0  0
  158.2302  133.3555  190.7404 C   0  0  0  0  0  0  0  0  0  0  0  0
  158.0950  133.5269  192.1023 F   0  0  0  0  0  0  0  0  0  0  0  0
  159.5102  133.5094  190.2979 F   0  0  0  0  0  0  0  0  0  0  0  0
  157.8434  132.0474  190.4867 F   0  0  0  0  0  0  0  0  0  0  0  0
 15 16  1  0  0  0
 16 17  2  0  0  0
 17 18  1  0  0  0
 18 14  1  0  0  0
 14  2  1  0  0  0
  2  3  1  0  0  0
  3  4  2  0  0  0
  3  5  1  0  0  0
  5  6  1  0  0  0
  5  7  1  0  0  0
  7  8  1  0  0  0
  8  9  2  0  0  0
  9 10  1  0  0  0
 10  1  1  0  0  0
  1 21  1  0  0  0
 21 22  2  0  0  0
 21 23  1  0  0  0
 23 25  1  0  0  0
 25 26  2  0  0  0
 26 27  1  0  0  0
 27 28  1  0  0  0
 28 29  2  0  0  0
 28 30  1  0  0  0
 30 31  2  0  0  0
 31 32  1  0  0  0
 32 33  2  0  0  0
 33 34  1  0  0  0
 34 35  1  0  0  0
 34 36  2  0  0  0
 33 37  1  0  0  0
 37 38  1  0  0  0
 37 39  1  0  0  0
 37 40  1  0  0  0
 10 11  1  0  0  0
 11 12  1  0  0  0
 12 13  2  0  0  0
 18 19  2  0  0  0
 19 20  1  0  0  0
 20 16  1  0  0  0
 12  2  1  0  0  0
 11  7  2  0  0  0
 29 25  1  0  0  0
 36 30  1  0  0  0
 23 24  1  0  0  0
M  END
> <minimizedAffinity>
-8.89100

> <CNNscore>
0.4332315624

> <CNNaffinity>
7.0850615501

> <CNN_VS>
3.0694723129

> <CNNaffinity_variance>
0.1363992989

$$$$
[H]c1nc(C(F)(F)F)c(C([H])([H])[H])c([H])c1-c1nc(N([H])C(=O)C([H])([H])n2c([H])nc3c2c(=O)n(C([H])([H])c2noc(C([H])([H])[H])c2[H])c(=O)n3C([H])([H])[H])c([H])s1


 40 44  0  0  0  0  0  0  0  0999 V2000
  152.8056  136.2939  186.3089 C   0  0  0  0  0  0  0  0  0  0  0  0
  154.7197  136.7896  190.3679 N   0  0  0  0  0  0  0  0  0  0  0  0
  155.8779  136.0995  190.4177 C   0  0  0  0  0  0  0  0  0  0  0  0
  156.5346  136.1452  191.5083 O   0  0  0  0  0  0  0  0  0  0  0  0
  156.3370  135.3878  189.3718 N   0  0  0  0  0  0  0  0  0  0  0  0
  157.5884  134.6517  189.4486 C   0  0  0  0  0  0  0  0  0  0  0  0
  155.6643  135.3223  188.2090 C   0  0  0  0  0  0  0  0  0  0  0  0
  155.9119  134.6870  187.0331 N   0  0  0  0  0  0  0  0  0  0  0  0
  154.8843  134.9746  186.1994 C   0  0  0  0  0  0  0  0  0  0  0  0
  154.0295  135.7724  186.8648 N   0  0  0  0  0  0  0  0  0  0  0  0
  154.4710  136.0140  188.1111 C   0  0  0  0  0  0  0  0  0  0  0  0
  154.0365  136.7296  189.2031 C   0  0  0  0  0  0  0  0  0  0  0  0
  152.9572  137.3580  189.1212 O   0  0  0  0  0  0  0  0  0  0  0  0
  154.2233  137.5574  191.4948 C   0  0  0  0  0  0  0  0  0  0  0  0
  152.0582  133.9649  194.3794 C   0  0  0  0  0  0  0  0  0  0  0  0
  152.2665  135.1655  193.4976 C   0  0  0  0  0  0  0  0  0  0  0  0
  153.4714  135.6177  192.9856 C   0  0  0  0  0  0  0  0  0  0  0  0
  153.2242  136.7432  192.2297 C   0  0  0  0  0  0  0  0  0  0  0  0
  151.8954  136.9265  192.3124 N   0  0  0  0  0  0  0  0  0  0  0  0
  151.3609  136.0014  193.0514 O   0  0  0  0  0  0  0  0  0  0  0  0
  153.0053  137.4793  185.4737 C   0  0  0  0  0  0  0  0  0  0  0  0
  153.1875  138.5833  186.0392 O   0  0  0  0  0  0  0  0  0  0  0  0
  153.0064  137.4608  184.0553 N   0  0  0  0  0  0  0  0  0  0  0  0
  152.8549  136.5423  183.6000 H   0  0  0  0  0  0  0  0  0  0  0  0
  153.2082  138.6596  183.2649 C   0  0  0  0  0  0  0  0  0  0  0  0
  152.2329  139.1006  182.4007 C   0  0  0  0  0  0  0  0  0  0  0  0
  152.9622  140.5008  181.7473 S   0  0  0  0  0  0  0  0  0  0  0  0
  154.4415  140.4444  182.5983 C   0  0  0  0  0  0  0  0  0  0  0  0
  154.2976  139.3568  183.3367 N   0  0  0  0  0  0  0  0  0  0  0  0
  155.5513  141.3818  182.5006 C   0  0  0  0  0  0  0  0  0  0  0  0
  155.3055  142.7318  182.5109 C   0  0  0  0  0  0  0  0  0  0  0  0
  156.3453  143.6074  182.4193 N   0  0  0  0  0  0  0  0  0  0  0  0
  157.6245  143.2101  182.3175 C   0  0  0  0  0  0  0  0  0  0  0  0
  157.9130  141.8726  182.3036 C   0  0  0  0  0  0  0  0  0  0  0  0
  159.3226  141.3612  182.1903 C   0  0  0  0  0  0  0  0  0  0  0  0
  156.8507  140.9672  182.3972 C   0  0  0  0  0  0  0  0  0  0  0  0
  158.7399  144.2074  182.2197 C   0  0  0  0  0  0  0  0  0  0  0  0
  159.2888  144.2138  180.9544 F   0  0  0  0  0  0  0  0  0  0  0  0
  159.6498  143.9658  183.2054 F   0  0  0  0  0  0  0  0  0  0  0  0
  158.2274  145.4823  182.4127 F   0  0  0  0  0  0  0  0  0  0  0  0
 15 16  1  0  0  0
 16 17  2  0  0  0
 17 18  1  0  0  0
 18 14  1  0  0  0
 14  2  1  0  0  0
  2  3  1  0  0  0
  3  4  2  0  0  0
  3  5  1  0  0  0
  5  6  1  0  0  0
  5  7  1  0  0  0
  7  8  1  0  0  0
  8  9  2  0  0  0
  9 10  1  0  0  0
 10  1  1  0  0  0
  1 21  1  0  0  0
 21 22  2  0  0  0
 21 23  1  0  0  0
 23 25  1  0  0  0
 25 26  2  0  0  0
 26 27  1  0  0  0
 27 28  1  0  0  0
 28 29  2  0  0  0
 28 30  1  0  0  0
 30 31  2  0  0  0
 31 32  1  0  0  0
 32 33  2  0  0  0
 33 34  1  0  0  0
 34 35  1  0  0  0
 34 36  2  0  0  0
 33 37  1  0  0  0
 37 38  1  0  0  0
 37 39  1  0  0  0
 37 40  1  0  0  0
 10 11  1  0  0  0
 11 12  1  0  0  0
 12 13  2  0  0  0
 18 19  2  0  0  0
 19 20  1  0  0  0
 20 16  1  0  0  0
 12  2  1  0  0  0
 11  7  2  0  0  0
 29 25  1  0  0  0
 36 30  1  0  0  0
 23 24  1  0  0  0
M  END
> <minimizedAffinity>
-8.15630

> <CNNscore>
0.3497467041

> <CNNaffinity>
6.5650572777

> <CNN_VS>
2.2961070538

> <CNNaffinity_variance>
0.1406529695

$$$$
[H]c1nc(C(F)(F)F)c(C([H])([H])[H])c([H])c1-c1nc(N([H])C(=O)C([H])([H])n2c([H])nc3c2c(=O)n(C([H])([H])c2noc(C([H])([H])[H])c2[H])c(=O)n3C([H])([H])[H])c([H])s1


 40 44  0  0  0  0  0  0  0  0999 V2000
  151.5764  134.9875  183.0557 C   0  0  0  0  0  0  0  0  0  0  0  0
  154.3630  138.3259  184.2707 N   0  0  0  0  0  0  0  0  0  0  0  0
  154.1207  139.4223  183.5229 C   0  0  0  0  0  0  0  0  0  0  0  0
  154.8349  140.4518  183.7536 O   0  0  0  0  0  0  0  0  0  0  0  0
  153.1707  139.4481  182.5701 N   0  0  0  0  0  0  0  0  0  0  0  0
  152.9274  140.6416  181.7764 C   0  0  0  0  0  0  0  0  0  0  0  0
  152.4027  138.3760  182.3058 C   0  0  0  0  0  0  0  0  0  0  0  0
  151.4000  138.1551  181.4151 N   0  0  0  0  0  0  0  0  0  0  0  0
  150.9821  136.8792  181.5922 C   0  0  0  0  0  0  0  0  0  0  0  0
  151.7236  136.3394  182.5764 N   0  0  0  0  0  0  0  0  0  0  0  0
  152.6150  137.2284  183.0474 C   0  0  0  0  0  0  0  0  0  0  0  0
  153.5959  137.2433  184.0122 C   0  0  0  0  0  0  0  0  0  0  0  0
  153.7931  136.2079  184.6870 O   0  0  0  0  0  0  0  0  0  0  0  0
  155.3871  138.2965  185.2985 C   0  0  0  0  0  0  0  0  0  0  0  0
  154.5155  137.9800  190.3040 C   0  0  0  0  0  0  0  0  0  0  0  0
  154.3468  138.2304  188.8305 C   0  0  0  0  0  0  0  0  0  0  0  0
  155.2889  138.0085  187.8398 C   0  0  0  0  0  0  0  0  0  0  0  0
  154.7356  138.3674  186.6296 C   0  0  0  0  0  0  0  0  0  0  0  0
  153.4951  138.7875  186.9310 N   0  0  0  0  0  0  0  0  0  0  0  0
  153.2912  138.6995  188.2110 O   0  0  0  0  0  0  0  0  0  0  0  0
  150.6804  134.8737  184.2075 C   0  0  0  0  0  0  0  0  0  0  0  0
  150.1723  133.7556  184.4595 O   0  0  0  0  0  0  0  0  0  0  0  0
  150.3466  135.9540  185.0642 N   0  0  0  0  0  0  0  0  0  0  0  0
  150.7731  136.8727  184.8454 H   0  0  0  0  0  0  0  0  0  0  0  0
  149.4535  135.7980  186.1959 C   0  0  0  0  0  0  0  0  0  0  0  0
  148.0894  135.8258  186.0201 C   0  0  0  0  0  0  0  0  0  0  0  0
  147.5334  135.6035  187.6203 S   0  0  0  0  0  0  0  0  0  0  0  0
  149.0447  135.4900  188.4070 C   0  0  0  0  0  0  0  0  0  0  0  0
  149.8935  135.6283  187.4025 N   0  0  0  0  0  0  0  0  0  0  0  0
  149.2858  135.2907  189.8290 C   0  0  0  0  0  0  0  0  0  0  0  0
  148.6761  134.2505  190.4840 C   0  0  0  0  0  0  0  0  0  0  0  0
  148.9030  134.0657  191.8147 N   0  0  0  0  0  0  0  0  0  0  0  0
  149.7088  134.8649  192.5335 C   0  0  0  0  0  0  0  0  0  0  0  0
  150.3362  135.9139  191.9184 C   0  0  0  0  0  0  0  0  0  0  0  0
  151.2492  136.8468  192.6651 C   0  0  0  0  0  0  0  0  0  0  0  0
  150.1083  136.1103  190.5523 C   0  0  0  0  0  0  0  0  0  0  0  0
  149.9320  134.6256  193.9967 C   0  0  0  0  0  0  0  0  0  0  0  0
  149.5498  135.7218  194.7415 F   0  0  0  0  0  0  0  0  0  0  0  0
  151.2276  134.2549  194.2015 F   0  0  0  0  0  0  0  0  0  0  0  0
  149.1168  133.5842  194.4163 F   0  0  0  0  0  0  0  0  0  0  0  0
 15 16  1  0  0  0
 16 17  2  0  0  0
 17 18  1  0  0  0
 18 14  1  0  0  0
 14  2  1  0  0  0
  2  3  1  0  0  0
  3  4  2  0  0  0
  3  5  1  0  0  0
  5  6  1  0  0  0
  5  7  1  0  0  0
  7  8  1  0  0  0
  8  9  2  0  0  0
  9 10  1  0  0  0
 10  1  1  0  0  0
  1 21  1  0  0  0
 21 22  2  0  0  0
 21 23  1  0  0  0
 23 25  1  0  0  0
 25 26  2  0  0  0
 26 27  1  0  0  0
 27 28  1  0  0  0
 28 29  2  0  0  0
 28 30  1  0  0  0
 30 31  2  0  0  0
 31 32  1  0  0  0
 32 33  2  0  0  0
 33 34  1  0  0  0
 34 35  1  0  0  0
 34 36  2  0  0  0
 33 37  1  0  0  0
 37 38  1  0  0  0
 37 39  1  0  0  0
 37 40  1  0  0  0
 10 11  1  0  0  0
 11 12  1  0  0  0
 12 13  2  0  0  0
 18 19  2  0  0  0
 19 20  1  0  0  0
 20 16  1  0  0  0
 12  2  1  0  0  0
 11  7  2  0  0  0
 29 25  1  0  0  0
 36 30  1  0  0  0
 23 24  1  0  0  0
M  END
> <minimizedAffinity>
-6.35742

> <CNNscore>
0.3487095833

> <CNNaffinity>
6.2907891273

> <CNN_VS>
2.1936583519

> <CNNaffinity_variance>
0.1121014729

$$$$
[H]c1nc(C(F)(F)F)c(C([H])([H])[H])c([H])c1-c1nc(N([H])C(=O)C([H])([H])n2c([H])nc3c2c(=O)n(C([H])([H])c2noc(C([H])([H])[H])c2[H])c(=O)n3C([H])([H])[H])c([H])s1


 40 44  0  0  0  0  0  0  0  0999 V2000
  154.3403  136.1267  187.9331 C   0  0  0  0  0  0  0  0  0  0  0  0
  156.4915  132.6047  186.1019 N   0  0  0  0  0  0  0  0  0  0  0  0
  157.7451  132.5247  186.5942 C   0  0  0  0  0  0  0  0  0  0  0  0
  158.4771  131.5738  186.1667 O   0  0  0  0  0  0  0  0  0  0  0  0
  158.2205  133.4011  187.4981 N   0  0  0  0  0  0  0  0  0  0  0  0
  159.5753  133.2950  188.0147 C   0  0  0  0  0  0  0  0  0  0  0  0
  157.4696  134.4139  187.9663 C   0  0  0  0  0  0  0  0  0  0  0  0
  157.7136  135.4079  188.8607 N   0  0  0  0  0  0  0  0  0  0  0  0
  156.5855  136.1518  188.9491 C   0  0  0  0  0  0  0  0  0  0  0  0
  155.6746  135.6127  188.1188 N   0  0  0  0  0  0  0  0  0  0  0  0
  156.1772  134.5362  187.4900 C   0  0  0  0  0  0  0  0  0  0  0  0
  155.7293  133.6196  186.5667 C   0  0  0  0  0  0  0  0  0  0  0  0
  154.5605  133.7245  186.1316 O   0  0  0  0  0  0  0  0  0  0  0  0
  155.9774  131.6605  185.1271 C   0  0  0  0  0  0  0  0  0  0  0  0
  158.3500  132.3314  180.6734 C   0  0  0  0  0  0  0  0  0  0  0  0
  157.3645  132.4355  181.8050 C   0  0  0  0  0  0  0  0  0  0  0  0
  157.4144  131.7570  183.0114 C   0  0  0  0  0  0  0  0  0  0  0  0
  156.3251  132.1365  183.7656 C   0  0  0  0  0  0  0  0  0  0  0  0
  155.6660  133.0193  182.9958 N   0  0  0  0  0  0  0  0  0  0  0  0
  156.2856  133.1774  181.8650 O   0  0  0  0  0  0  0  0  0  0  0  0
  154.2643  137.2013  186.9422 C   0  0  0  0  0  0  0  0  0  0  0  0
  154.0411  138.3679  187.3436 O   0  0  0  0  0  0  0  0  0  0  0  0
  154.4278  137.0079  185.5464 N   0  0  0  0  0  0  0  0  0  0  0  0
  154.6118  136.0393  185.2274 H   0  0  0  0  0  0  0  0  0  0  0  0
  154.3446  138.1013  184.5977 C   0  0  0  0  0  0  0  0  0  0  0  0
  153.2247  138.2661  183.8159 C   0  0  0  0  0  0  0  0  0  0  0  0
  153.6399  139.6549  182.9114 S   0  0  0  0  0  0  0  0  0  0  0  0
  155.1891  139.9404  183.5702 C   0  0  0  0  0  0  0  0  0  0  0  0
  155.3052  138.9573  184.4470 N   0  0  0  0  0  0  0  0  0  0  0  0
  156.1123  141.0109  183.2211 C   0  0  0  0  0  0  0  0  0  0  0  0
  155.6418  142.2894  183.0567 C   0  0  0  0  0  0  0  0  0  0  0  0
  156.5072  143.2897  182.7300 N   0  0  0  0  0  0  0  0  0  0  0  0
  157.8236  143.0856  182.5568 C   0  0  0  0  0  0  0  0  0  0  0  0
  158.3336  141.8253  182.7114 C   0  0  0  0  0  0  0  0  0  0  0  0
  159.7966  141.5285  182.5303 C   0  0  0  0  0  0  0  0  0  0  0  0
  157.4514  140.7928  183.0468 C   0  0  0  0  0  0  0  0  0  0  0  0
  158.7419  144.2153  182.1982 C   0  0  0  0  0  0  0  0  0  0  0  0
  159.2568  144.0509  180.9292 F   0  0  0  0  0  0  0  0  0  0  0  0
  159.6989  144.3426  183.1604 F   0  0  0  0  0  0  0  0  0  0  0  0
  158.0150  145.3964  182.1579 F   0  0  0  0  0  0  0  0  0  0  0  0
 15 16  1  0  0  0
 16 17  2  0  0  0
 17 18  1  0  0  0
 18 14  1  0  0  0
 14  2  1  0  0  0
  2  3  1  0  0  0
  3  4  2  0  0  0
  3  5  1  0  0  0
  5  6  1  0  0  0
  5  7  1  0  0  0
  7  8  1  0  0  0
  8  9  2  0  0  0
  9 10  1  0  0  0
 10  1  1  0  0  0
  1 21  1  0  0  0
 21 22  2  0  0  0
 21 23  1  0  0  0
 23 25  1  0  0  0
 25 26  2  0  0  0
 26 27  1  0  0  0
 27 28  1  0  0  0
 28 29  2  0  0  0
 28 30  1  0  0  0
 30 31  2  0  0  0
 31 32  1  0  0  0
 32 33  2  0  0  0
 33 34  1  0  0  0
 34 35  1  0  0  0
 34 36  2  0  0  0
 33 37  1  0  0  0
 37 38  1  0  0  0
 37 39  1  0  0  0
 37 40  1  0  0  0
 10 11  1  0  0  0
 11 12  1  0  0  0
 12 13  2  0  0  0
 18 19  2  0  0  0
 19 20  1  0  0  0
 20 16  1  0  0  0
 12  2  1  0  0  0
 11  7  2  0  0  0
 29 25  1  0  0  0
 36 30  1  0  0  0
 23 24  1  0  0  0
M  END
> <minimizedAffinity>
-7.60868

> <CNNscore>
0.3459705114

> <CNNaffinity>
6.6750211716

> <CNN_VS>
2.3093605042

> <CNNaffinity_variance>
0.1873548329

$$$$
[H]c1nc(C(F)(F)F)c(C([H])([H])[H])c([H])c1-c1nc(N([H])C(=O)C([H])([H])n2c([H])nc3c2c(=O)n(C([H])([H])c2noc(C([H])([H])[H])c2[H])c(=O)n3C([H])([H])[H])c([H])s1


 40 44  0  0  0  0  0  0  0  0999 V2000
  152.9279  135.1262  185.0337 C   0  0  0  0  0  0  0  0  0  0  0  0
  156.1026  136.0468  188.1093 N   0  0  0  0  0  0  0  0  0  0  0  0
  157.0597  135.0965  188.0811 C   0  0  0  0  0  0  0  0  0  0  0  0
  158.0280  135.2231  188.8993 O   0  0  0  0  0  0  0  0  0  0  0  0
  157.0124  134.0524  187.2332 N   0  0  0  0  0  0  0  0  0  0  0  0
  158.0557  133.0400  187.2208 C   0  0  0  0  0  0  0  0  0  0  0  0
  156.0023  133.8943  186.3593 C   0  0  0  0  0  0  0  0  0  0  0  0
  155.7317  132.9481  185.4217 N   0  0  0  0  0  0  0  0  0  0  0  0
  154.5663  133.2969  184.8268 C   0  0  0  0  0  0  0  0  0  0  0  0
  154.1411  134.4378  185.3989 N   0  0  0  0  0  0  0  0  0  0  0  0
  154.9975  134.8441  186.3519 C   0  0  0  0  0  0  0  0  0  0  0  0
  155.0833  135.8963  187.2344 C   0  0  0  0  0  0  0  0  0  0  0  0
  154.1771  136.7596  187.2328 O   0  0  0  0  0  0  0  0  0  0  0  0
  156.1522  137.1732  189.0229 C   0  0  0  0  0  0  0  0  0  0  0  0
  152.5170  137.1436  192.5864 C   0  0  0  0  0  0  0  0  0  0  0  0
  153.7624  136.8297  191.8035 C   0  0  0  0  0  0  0  0  0  0  0  0
  154.1648  137.4194  190.6167 C   0  0  0  0  0  0  0  0  0  0  0  0
  155.3584  136.8471  190.2332 C   0  0  0  0  0  0  0  0  0  0  0  0
  155.6290  135.9441  191.1911 N   0  0  0  0  0  0  0  0  0  0  0  0
  154.6916  135.9510  192.0905 O   0  0  0  0  0  0  0  0  0  0  0  0
  153.1486  136.2468  184.1183 C   0  0  0  0  0  0  0  0  0  0  0  0
  153.5443  135.9975  182.9550 O   0  0  0  0  0  0  0  0  0  0  0  0
  152.9424  137.6072  184.4635 N   0  0  0  0  0  0  0  0  0  0  0  0
  152.6152  137.8000  185.4277 H   0  0  0  0  0  0  0  0  0  0  0  0
  153.1734  138.6883  183.5252 C   0  0  0  0  0  0  0  0  0  0  0  0
  152.2590  138.9628  182.5347 C   0  0  0  0  0  0  0  0  0  0  0  0
  152.9987  140.2834  181.7423 S   0  0  0  0  0  0  0  0  0  0  0  0
  154.4056  140.4073  182.7020 C   0  0  0  0  0  0  0  0  0  0  0  0
  154.2334  139.4311  183.5773 N   0  0  0  0  0  0  0  0  0  0  0  0
  155.4928  141.3644  182.5537 C   0  0  0  0  0  0  0  0  0  0  0  0
  155.2289  142.7096  182.6136 C   0  0  0  0  0  0  0  0  0  0  0  0
  156.2476  143.6036  182.4746 N   0  0  0  0  0  0  0  0  0  0  0  0
  157.5226  143.2293  182.2778 C   0  0  0  0  0  0  0  0  0  0  0  0
  157.8287  141.8973  182.2118 C   0  0  0  0  0  0  0  0  0  0  0  0
  159.2347  141.4113  181.9921 C   0  0  0  0  0  0  0  0  0  0  0  0
  156.7882  140.9731  182.3536 C   0  0  0  0  0  0  0  0  0  0  0  0
  158.6145  144.2464  182.1306 C   0  0  0  0  0  0  0  0  0  0  0  0
  159.6145  144.0367  183.0569 F   0  0  0  0  0  0  0  0  0  0  0  0
  158.0768  145.4977  182.1856 F   0  0  0  0  0  0  0  0  0  0  0  0
  159.2146  144.0920  180.8892 F   0  0  0  0  0  0  0  0  0  0  0  0
 15 16  1  0  0  0
 16 17  2  0  0  0
 17 18  1  0  0  0
 18 14  1  0  0  0
 14  2  1  0  0  0
  2  3  1  0  0  0
  3  4  2  0  0  0
  3  5  1  0  0  0
  5  6  1  0  0  0
  5  7  1  0  0  0
  7  8  1  0  0  0
  8  9  2  0  0  0
  9 10  1  0  0  0
 10  1  1  0  0  0
  1 21  1  0  0  0
 21 22  2  0  0  0
 21 23  1  0  0  0
 23 25  1  0  0  0
 25 26  2  0  0  0
 26 27  1  0  0  0
 27 28  1  0  0  0
 28 29  2  0  0  0
 28 30  1  0  0  0
 30 31  2  0  0  0
 31 32  1  0  0  0
 32 33  2  0  0  0
 33 34  1  0  0  0
 34 35  1  0  0  0
 34 36  2  0  0  0
 33 37  1  0  0  0
 37 38  1  0  0  0
 37 39  1  0  0  0
 37 40  1  0  0  0
 10 11  1  0  0  0
 11 12  1  0  0  0
 12 13  2  0  0  0
 18 19  2  0  0  0
 19 20  1  0  0  0
 20 16  1  0  0  0
 12  2  1  0  0  0
 11  7  2  0  0  0
 29 25  1  0  0  0
 36 30  1  0  0  0
 23 24  1  0  0  0
M  END
> <minimizedAffinity>
-7.63073

> <CNNscore>
0.3259077370

> <CNNaffinity>
6.7177152634

> <CNN_VS>
2.1893553734

> <CNNaffinity_variance>
0.1553012729

$$$$
[H]c1nc(C(F)(F)F)c(C([H])([H])[H])c([H])c1-c1nc(N([H])C(=O)C([H])([H])n2c([H])nc3c2c(=O)n(C([H])([H])c2noc(C([H])([H])[H])c2[H])c(=O)n3C([H])([H])[H])c([H])s1


 40 44  0  0  0  0  0  0  0  0999 V2000
  152.7420  136.2828  185.8243 C   0  0  0  0  0  0  0  0  0  0  0  0
  150.0021  134.9151  189.1422 N   0  0  0  0  0  0  0  0  0  0  0  0
  148.7340  135.2903  188.8756 C   0  0  0  0  0  0  0  0  0  0  0  0
  147.8429  134.9722  189.7286 O   0  0  0  0  0  0  0  0  0  0  0  0
  148.4039  135.9715  187.7629 N   0  0  0  0  0  0  0  0  0  0  0  0
  147.0300  136.3654  187.4966 C   0  0  0  0  0  0  0  0  0  0  0  0
  149.3242  136.3201  186.8461 C   0  0  0  0  0  0  0  0  0  0  0  0
  149.2453  136.9931  185.6677 N   0  0  0  0  0  0  0  0  0  0  0  0
  150.4984  137.0546  185.1580 C   0  0  0  0  0  0  0  0  0  0  0  0
  151.3205  136.4271  186.0183 N   0  0  0  0  0  0  0  0  0  0  0  0
  150.6383  135.9569  187.0767 C   0  0  0  0  0  0  0  0  0  0  0  0
  150.9341  135.2612  188.2263 C   0  0  0  0  0  0  0  0  0  0  0  0
  152.1216  134.9293  188.4411 O   0  0  0  0  0  0  0  0  0  0  0  0
  150.3597  134.1806  190.3417 C   0  0  0  0  0  0  0  0  0  0  0  0
  151.9894  137.9075  193.4026 C   0  0  0  0  0  0  0  0  0  0  0  0
  151.1917  136.7719  192.8225 C   0  0  0  0  0  0  0  0  0  0  0  0
  151.4446  136.1038  191.6359 C   0  0  0  0  0  0  0  0  0  0  0  0
  150.4794  135.1337  191.4724 C   0  0  0  0  0  0  0  0  0  0  0  0
  149.6893  135.2508  192.5531 N   0  0  0  0  0  0  0  0  0  0  0  0
  150.1202  136.2055  193.3216 O   0  0  0  0  0  0  0  0  0  0  0  0
  153.4094  137.5346  185.4639 C   0  0  0  0  0  0  0  0  0  0  0  0
  153.2909  138.5168  186.2340 O   0  0  0  0  0  0  0  0  0  0  0  0
  154.1877  137.7109  184.2910 N   0  0  0  0  0  0  0  0  0  0  0  0
  154.2780  136.8917  183.6629 H   0  0  0  0  0  0  0  0  0  0  0  0
  154.8327  138.9695  183.9711 C   0  0  0  0  0  0  0  0  0  0  0  0
  154.1493  139.9547  183.2967 C   0  0  0  0  0  0  0  0  0  0  0  0
  155.3356  141.1792  183.1849 S   0  0  0  0  0  0  0  0  0  0  0  0
  156.6114  140.3791  183.9898 C   0  0  0  0  0  0  0  0  0  0  0  0
  156.0606  139.2178  184.3008 N   0  0  0  0  0  0  0  0  0  0  0  0
  157.9510  140.8896  184.2447 C   0  0  0  0  0  0  0  0  0  0  0  0
  158.9223  140.7632  183.2838 C   0  0  0  0  0  0  0  0  0  0  0  0
  160.1752  141.2415  183.5242 N   0  0  0  0  0  0  0  0  0  0  0  0
  160.5161  141.8425  184.6762 C   0  0  0  0  0  0  0  0  0  0  0  0
  159.5771  141.9887  185.6607 C   0  0  0  0  0  0  0  0  0  0  0  0
  159.8934  142.6502  186.9736 C   0  0  0  0  0  0  0  0  0  0  0  0
  158.2883  141.5001  185.4214 C   0  0  0  0  0  0  0  0  0  0  0  0
  161.9071  142.3557  184.8999 C   0  0  0  0  0  0  0  0  0  0  0  0
  162.7966  141.7746  184.0205 F   0  0  0  0  0  0  0  0  0  0  0  0
  162.2469  142.1845  186.2088 F   0  0  0  0  0  0  0  0  0  0  0  0
  161.9397  143.7150  184.6230 F   0  0  0  0  0  0  0  0  0  0  0  0
 15 16  1  0  0  0
 16 17  2  0  0  0
 17 18  1  0  0  0
 18 14  1  0  0  0
 14  2  1  0  0  0
  2  3  1  0  0  0
  3  4  2  0  0  0
  3  5  1  0  0  0
  5  6  1  0  0  0
  5  7  1  0  0  0
  7  8  1  0  0  0
  8  9  2  0  0  0
  9 10  1  0  0  0
 10  1  1  0  0  0
  1 21  1  0  0  0
 21 22  2  0  0  0
 21 23  1  0  0  0
 23 25  1  0  0  0
 25 26  2  0  0  0
 26 27  1  0  0  0
 27 28  1  0  0  0
 28 29  2  0  0  0
 28 30  1  0  0  0
 30 31  2  0  0  0
 31 32  1  0  0  0
 32 33  2  0  0  0
 33 34  1  0  0  0
 34 35  1  0  0  0
 34 36  2  0  0  0
 33 37  1  0  0  0
 37 38  1  0  0  0
 37 39  1  0  0  0
 37 40  1  0  0  0
 10 11  1  0  0  0
 11 12  1  0  0  0
 12 13  2  0  0  0
 18 19  2  0  0  0
 19 20  1  0  0  0
 20 16  1  0  0  0
 12  2  1  0  0  0
 11  7  2  0  0  0
 29 25  1  0  0  0
 36 30  1  0  0  0
 23 24  1  0  0  0
M  END
> <minimizedAffinity>
-8.95005

> <CNNscore>
0.3184030056

> <CNNaffinity>
6.3377003670

> <CNN_VS>
2.0179429054

> <CNNaffinity_variance>
0.1724501848

$$$$
[H]c1nc(C(F)(F)F)c(C([H])([H])[H])c([H])c1-c1nc(N([H])C(=O)C([H])([H])n2c([H])nc3c2c(=O)n(C([H])([H])c2noc(C([H])([H])[H])c2[H])c(=O)n3C([H])([H])[H])c([H])s1


 40 44  0  0  0  0  0  0  0  0999 V2000
  155.8302  137.1728  190.2820 C   0  0  0  0  0  0  0  0  0  0  0  0
  155.1523  132.7905  191.1313 N   0  0  0  0  0  0  0  0  0  0  0  0
  153.9615  132.6191  191.7417 C   0  0  0  0  0  0  0  0  0  0  0  0
  153.6309  131.4268  192.0453 O   0  0  0  0  0  0  0  0  0  0  0  0
  153.1437  133.6494  192.0262 N   0  0  0  0  0  0  0  0  0  0  0  0
  151.8646  133.4405  192.6848 C   0  0  0  0  0  0  0  0  0  0  0  0
  153.4676  134.9176  191.7169 C   0  0  0  0  0  0  0  0  0  0  0  0
  152.8281  136.1039  191.8947 N   0  0  0  0  0  0  0  0  0  0  0  0
  153.6286  137.0697  191.3846 C   0  0  0  0  0  0  0  0  0  0  0  0
  154.7352  136.4726  190.9062 N   0  0  0  0  0  0  0  0  0  0  0  0
  154.6794  135.1423  191.0900 C   0  0  0  0  0  0  0  0  0  0  0  0
  155.4864  134.0619  190.8166 C   0  0  0  0  0  0  0  0  0  0  0  0
  156.5845  134.2583  190.2492 O   0  0  0  0  0  0  0  0  0  0  0  0
  156.0352  131.6805  190.8238 C   0  0  0  0  0  0  0  0  0  0  0  0
  159.8384  131.6160  194.2070 C   0  0  0  0  0  0  0  0  0  0  0  0
  158.5336  131.3473  193.5086 C   0  0  0  0  0  0  0  0  0  0  0  0
  158.1160  131.8806  192.3005 C   0  0  0  0  0  0  0  0  0  0  0  0
  156.8638  131.3795  192.0171 C   0  0  0  0  0  0  0  0  0  0  0  0
  156.5756  130.5720  193.0520 N   0  0  0  0  0  0  0  0  0  0  0  0
  157.5564  130.5683  193.9038 O   0  0  0  0  0  0  0  0  0  0  0  0
  155.6690  137.3325  188.8359 C   0  0  0  0  0  0  0  0  0  0  0  0
  156.5545  136.8645  188.0819 O   0  0  0  0  0  0  0  0  0  0  0  0
  154.5677  137.9871  188.2268 N   0  0  0  0  0  0  0  0  0  0  0  0
  153.8426  138.3694  188.8609 H   0  0  0  0  0  0  0  0  0  0  0  0
  154.4465  138.1238  186.7884 C   0  0  0  0  0  0  0  0  0  0  0  0
  153.4684  137.4435  186.1006 C   0  0  0  0  0  0  0  0  0  0  0  0
  153.7659  137.9468  184.4951 S   0  0  0  0  0  0  0  0  0  0  0  0
  155.0958  138.9770  184.7880 C   0  0  0  0  0  0  0  0  0  0  0  0
  155.2406  138.8802  186.0989 N   0  0  0  0  0  0  0  0  0  0  0  0
  155.8478  139.7467  183.8072 C   0  0  0  0  0  0  0  0  0  0  0  0
  155.1802  140.4515  182.8374 C   0  0  0  0  0  0  0  0  0  0  0  0
  155.8856  141.1711  181.9204 N   0  0  0  0  0  0  0  0  0  0  0  0
  157.2277  141.2279  181.9161 C   0  0  0  0  0  0  0  0  0  0  0  0
  157.9319  140.5394  182.8662 C   0  0  0  0  0  0  0  0  0  0  0  0
  159.4347  140.5594  182.9165 C   0  0  0  0  0  0  0  0  0  0  0  0
  157.2147  139.7981  183.8112 C   0  0  0  0  0  0  0  0  0  0  0  0
  157.9656  142.0331  180.8888 C   0  0  0  0  0  0  0  0  0  0  0  0
  159.2996  142.1527  181.2182 F   0  0  0  0  0  0  0  0  0  0  0  0
  157.3387  143.2314  180.7182 F   0  0  0  0  0  0  0  0  0  0  0  0
  157.9375  141.3584  179.6767 F   0  0  0  0  0  0  0  0  0  0  0  0
 15 16  1  0  0  0
 16 17  2  0  0  0
 17 18  1  0  0  0
 18 14  1  0  0  0
 14  2  1  0  0  0
  2  3  1  0  0  0
  3  4  2  0  0  0
  3  5  1  0  0  0
  5  6  1  0  0  0
  5  7  1  0  0  0
  7  8  1  0  0  0
  8  9  2  0  0  0
  9 10  1  0  0  0
 10  1  1  0  0  0
  1 21  1  0  0  0
 21 22  2  0  0  0
 21 23  1  0  0  0
 23 25  1  0  0  0
 25 26  2  0  0  0
 26 27  1  0  0  0
 27 28  1  0  0  0
 28 29  2  0  0  0
 28 30  1  0  0  0
 30 31  2  0  0  0
 31 32  1  0  0  0
 32 33  2  0  0  0
 33 34  1  0  0  0
 34 35  1  0  0  0
 34 36  2  0  0  0
 33 37  1  0  0  0
 37 38  1  0  0  0
 37 39  1  0  0  0
 37 40  1  0  0  0
 10 11  1  0  0  0
 11 12  1  0  0  0
 12 13  2  0  0  0
 18 19  2  0  0  0
 19 20  1  0  0  0
 20 16  1  0  0  0
 12  2  1  0  0  0
 11  7  2  0  0  0
 29 25  1  0  0  0
 36 30  1  0  0  0
 23 24  1  0  0  0
M  END
> <minimizedAffinity>
-7.24704

> <CNNscore>
0.3060841560

> <CNNaffinity>
6.2993502617

> <CNN_VS>
1.9281313419

> <CNNaffinity_variance>
0.0758820549

$$$$
[H]/C(=C(\c1c([H])c([H])c(Cl)c([H])c1[H])C([H])([H])[H])c1nc(C([H])([H])n2c([H])nc3nc([H])c([H])c([H])c3c2=O)no1


 27 30  0  0  0  0  0  0  0  0999 V2000
  153.9422  138.2473  184.4993 C   0  0  0  0  0  0  0  0  0  0  0  0
  153.4128  139.3192  183.9367 N   0  0  0  0  0  0  0  0  0  0  0  0
  152.9328  139.0189  182.7245 C   0  0  0  0  0  0  0  0  0  0  0  0
  153.1927  137.7135  182.5700 N   0  0  0  0  0  0  0  0  0  0  0  0
  153.7885  137.2508  183.6140 O   0  0  0  0  0  0  0  0  0  0  0  0
  152.4689  137.9755  186.9021 C   0  0  0  0  0  0  0  0  0  0  0  0
  153.9728  137.8323  186.8983 C   0  0  0  0  0  0  0  0  0  0  0  0
  154.5932  137.9693  185.7646 C   0  0  0  0  0  0  0  0  0  0  0  0
  154.6468  137.5488  188.1913 C   0  0  0  0  0  0  0  0  0  0  0  0
  154.0114  137.8316  189.3962 C   0  0  0  0  0  0  0  0  0  0  0  0
  154.6744  137.5699  190.5746 C   0  0  0  0  0  0  0  0  0  0  0  0
  155.9404  137.0382  190.5402 C   0  0  0  0  0  0  0  0  0  0  0  0
  156.7580  136.7152  192.0770 Cl  0  0  0  0  0  0  0  0  0  0  0  0
  156.5905  136.7494  189.3627 C   0  0  0  0  0  0  0  0  0  0  0  0
  155.9050  137.0209  188.1704 C   0  0  0  0  0  0  0  0  0  0  0  0
  152.2648  139.8757  181.7479 C   0  0  0  0  0  0  0  0  0  0  0  0
  150.9713  139.3909  181.3097 N   0  0  0  0  0  0  0  0  0  0  0  0
  150.0079  139.0271  182.1774 C   0  0  0  0  0  0  0  0  0  0  0  0
  148.8016  138.5753  181.7558 N   0  0  0  0  0  0  0  0  0  0  0  0
  148.5018  138.4655  180.4579 C   0  0  0  0  0  0  0  0  0  0  0  0
  147.3100  138.0175  180.0122 N   0  0  0  0  0  0  0  0  0  0  0  0
  146.9911  137.8992  178.7135 C   0  0  0  0  0  0  0  0  0  0  0  0
  147.9377  138.2566  177.7694 C   0  0  0  0  0  0  0  0  0  0  0  0
  149.1786  138.7232  178.1866 C   0  0  0  0  0  0  0  0  0  0  0  0
  149.4577  138.8264  179.5382 C   0  0  0  0  0  0  0  0  0  0  0  0
  150.6808  139.2847  180.0004 C   0  0  0  0  0  0  0  0  0  0  0  0
  151.5416  139.6101  179.1672 O   0  0  0  0  0  0  0  0  0  0  0  0
  6  7  1  0  0  0
  7  8  2  0  0  0
  8  1  1  0  0  0
  1  2  2  0  0  0
  2  3  1  0  0  0
  3 16  1  0  0  0
 16 17  1  0  0  0
 17 18  1  0  0  0
 18 19  2  0  0  0
 19 20  1  0  0  0
 20 21  2  0  0  0
 21 22  1  0  0  0
 22 23  2  0  0  0
 23 24  1  0  0  0
 24 25  2  0  0  0
 25 26  1  0  0  0
 26 27  2  0  0  0
  3  4  2  0  0  0
  4  5  1  0  0  0
  7  9  1  0  0  0
  9 10  2  0  0  0
 10 11  1  0  0  0
 11 12  2  0  0  0
 12 13  1  0  0  0
 12 14  1  0  0  0
 14 15  2  0  0  0
  5  1  1  0  0  0
 15  9  1  0  0  0
 26 17  1  0  0  0
 25 20  1  0  0  0
M  END
> <minimizedAffinity>
-6.67380

> <CNNscore>
0.4760932922

> <CNNaffinity>
5.3148841858

> <CNN_VS>
2.5303807259

> <CNNaffinity_variance>
0.1555061787

$$$$
[H]/C(=C(\c1c([H])c([H])c(Cl)c([H])c1[H])C([H])([H])[H])c1nc(C([H])([H])n2c([H])nc3nc([H])c([H])c([H])c3c2=O)no1


 27 30  0  0  0  0  0  0  0  0999 V2000
  155.4879  140.5169  183.5879 C   0  0  0  0  0  0  0  0  0  0  0  0
  154.6508  139.5466  183.9100 N   0  0  0  0  0  0  0  0  0  0  0  0
  153.7478  139.3702  182.9386 C   0  0  0  0  0  0  0  0  0  0  0  0
  154.0700  140.2772  182.0065 N   0  0  0  0  0  0  0  0  0  0  0  0
  155.0966  140.9581  182.3827 O   0  0  0  0  0  0  0  0  0  0  0  0
  158.0988  139.4591  183.3003 C   0  0  0  0  0  0  0  0  0  0  0  0
  157.8550  140.6985  184.1290 C   0  0  0  0  0  0  0  0  0  0  0  0
  156.6345  141.1349  184.2246 C   0  0  0  0  0  0  0  0  0  0  0  0
  159.0248  141.3365  184.7854 C   0  0  0  0  0  0  0  0  0  0  0  0
  160.2299  141.4729  184.1039 C   0  0  0  0  0  0  0  0  0  0  0  0
  161.2971  142.0551  184.7509 C   0  0  0  0  0  0  0  0  0  0  0  0
  161.1543  142.4879  186.0467 C   0  0  0  0  0  0  0  0  0  0  0  0
  162.5498  143.2321  186.8425 Cl  0  0  0  0  0  0  0  0  0  0  0  0
  159.9741  142.3649  186.7426 C   0  0  0  0  0  0  0  0  0  0  0  0
  158.8957  141.7702  186.0728 C   0  0  0  0  0  0  0  0  0  0  0  0
  152.6417  138.4195  182.8556 C   0  0  0  0  0  0  0  0  0  0  0  0
  151.8065  138.5717  181.6810 N   0  0  0  0  0  0  0  0  0  0  0  0
  152.0841  139.4647  180.7121 C   0  0  0  0  0  0  0  0  0  0  0  0
  151.2956  139.5979  179.6177 N   0  0  0  0  0  0  0  0  0  0  0  0
  150.2008  138.8523  179.4399 C   0  0  0  0  0  0  0  0  0  0  0  0
  149.3987  138.9661  178.3611 N   0  0  0  0  0  0  0  0  0  0  0  0
  148.2950  138.2275  178.1657 C   0  0  0  0  0  0  0  0  0  0  0  0
  147.9531  137.2905  179.1251 C   0  0  0  0  0  0  0  0  0  0  0  0
  148.7529  137.1413  180.2520 C   0  0  0  0  0  0  0  0  0  0  0  0
  149.8810  137.9281  180.4060 C   0  0  0  0  0  0  0  0  0  0  0  0
  150.7068  137.8154  181.5129 C   0  0  0  0  0  0  0  0  0  0  0  0
  150.4152  136.9796  182.3833 O   0  0  0  0  0  0  0  0  0  0  0  0
  6  7  1  0  0  0
  7  8  2  0  0  0
  8  1  1  0  0  0
  1  2  2  0  0  0
  2  3  1  0  0  0
  3 16  1  0  0  0
 16 17  1  0  0  0
 17 18  1  0  0  0
 18 19  2  0  0  0
 19 20  1  0  0  0
 20 21  2  0  0  0
 21 22  1  0  0  0
 22 23  2  0  0  0
 23 24  1  0  0  0
 24 25  2  0  0  0
 25 26  1  0  0  0
 26 27  2  0  0  0
  3  4  2  0  0  0
  4  5  1  0  0  0
  7  9  1  0  0  0
  9 10  2  0  0  0
 10 11  1  0  0  0
 11 12  2  0  0  0
 12 13  1  0  0  0
 12 14  1  0  0  0
 14 15  2  0  0  0
  5  1  1  0  0  0
 15  9  1  0  0  0
 26 17  1  0  0  0
 25 20  1  0  0  0
M  END
> <minimizedAffinity>
-9.11572

> <CNNscore>
0.4669848680

> <CNNaffinity>
5.8496522903

> <CNN_VS>
2.7316989899

> <CNNaffinity_variance>
0.1048866361

$$$$
[H]/C(=C(\c1c([H])c([H])c(Cl)c([H])c1[H])C([H])([H])[H])c1nc(C([H])([H])n2c([H])nc3nc([H])c([H])c([H])c3c2=O)no1


 27 30  0  0  0  0  0  0  0  0999 V2000
  154.8766  139.2604  184.1929 C   0  0  0  0  0  0  0  0  0  0  0  0
  154.6070  139.2091  185.4855 N   0  0  0  0  0  0  0  0  0  0  0  0
  153.5590  138.4084  185.7103 C   0  0  0  0  0  0  0  0  0  0  0  0
  153.1985  137.9715  184.4959 N   0  0  0  0  0  0  0  0  0  0  0  0
  153.9720  138.4703  183.5948 O   0  0  0  0  0  0  0  0  0  0  0  0
  154.4174  141.8533  183.1517 C   0  0  0  0  0  0  0  0  0  0  0  0
  155.7134  141.1283  182.8740 C   0  0  0  0  0  0  0  0  0  0  0  0
  155.8646  139.9399  183.3781 C   0  0  0  0  0  0  0  0  0  0  0  0
  156.7299  141.8177  182.0387 C   0  0  0  0  0  0  0  0  0  0  0  0
  157.6261  141.0844  181.2678 C   0  0  0  0  0  0  0  0  0  0  0  0
  158.5649  141.7585  180.5187 C   0  0  0  0  0  0  0  0  0  0  0  0
  158.5993  143.1313  180.5450 C   0  0  0  0  0  0  0  0  0  0  0  0
  159.8204  143.9601  179.5668 Cl  0  0  0  0  0  0  0  0  0  0  0  0
  157.7247  143.8796  181.2984 C   0  0  0  0  0  0  0  0  0  0  0  0
  156.7745  143.1815  182.0566 C   0  0  0  0  0  0  0  0  0  0  0  0
  152.9123  138.0511  186.9706 C   0  0  0  0  0  0  0  0  0  0  0  0
  153.7127  137.2107  187.8386 N   0  0  0  0  0  0  0  0  0  0  0  0
  153.8714  135.8921  187.6163 C   0  0  0  0  0  0  0  0  0  0  0  0
  154.6227  135.1160  188.4350 N   0  0  0  0  0  0  0  0  0  0  0  0
  155.2462  135.6152  189.5066 C   0  0  0  0  0  0  0  0  0  0  0  0
  155.9982  134.8645  190.3378 N   0  0  0  0  0  0  0  0  0  0  0  0
  156.6307  135.3473  191.4190 C   0  0  0  0  0  0  0  0  0  0  0  0
  156.5081  136.6960  191.7043 C   0  0  0  0  0  0  0  0  0  0  0  0
  155.7423  137.5047  190.8729 C   0  0  0  0  0  0  0  0  0  0  0  0
  155.1101  136.9575  189.7701 C   0  0  0  0  0  0  0  0  0  0  0  0
  154.3358  137.7244  188.9145 C   0  0  0  0  0  0  0  0  0  0  0  0
  154.2152  138.9363  189.1552 O   0  0  0  0  0  0  0  0  0  0  0  0
  6  7  1  0  0  0
  7  8  2  0  0  0
  8  1  1  0  0  0
  1  2  2  0  0  0
  2  3  1  0  0  0
  3 16  1  0  0  0
 16 17  1  0  0  0
 17 18  1  0  0  0
 18 19  2  0  0  0
 19 20  1  0  0  0
 20 21  2  0  0  0
 21 22  1  0  0  0
 22 23  2  0  0  0
 23 24  1  0  0  0
 24 25  2  0  0  0
 25 26  1  0  0  0
 26 27  2  0  0  0
  3  4  2  0  0  0
  4  5  1  0  0  0
  7  9  1  0  0  0
  9 10  2  0  0  0
 10 11  1  0  0  0
 11 12  2  0  0  0
 12 13  1  0  0  0
 12 14  1  0  0  0
 14 15  2  0  0  0
  5  1  1  0  0  0
 15  9  1  0  0  0
 26 17  1  0  0  0
 25 20  1  0  0  0
M  END
> <minimizedAffinity>
-7.53766

> <CNNscore>
0.4051778615

> <CNNaffinity>
5.7716417313

> <CNN_VS>
2.3385415077

> <CNNaffinity_variance>
0.0951832905

$$$$
[H]/C(=C(\c1c([H])c([H])c(Cl)c([H])c1[H])C([H])([H])[H])c1nc(C([H])([H])n2c([H])nc3nc([H])c([H])c([H])c3c2=O)no1


 27 30  0  0  0  0  0  0  0  0999 V2000
  154.5616  138.4770  185.0015 C   0  0  0  0  0  0  0  0  0  0  0  0
  154.7096  137.2325  185.4205 N   0  0  0  0  0  0  0  0  0  0  0  0
  153.8904  136.9880  186.4496 C   0  0  0  0  0  0  0  0  0  0  0  0
  153.2336  138.1400  186.6422 N   0  0  0  0  0  0  0  0  0  0  0  0
  153.6246  139.0240  185.7909 O   0  0  0  0  0  0  0  0  0  0  0  0
  157.1614  139.5675  185.2664 C   0  0  0  0  0  0  0  0  0  0  0  0
  156.3460  139.8100  184.0180 C   0  0  0  0  0  0  0  0  0  0  0  0
  155.1590  139.2845  183.9561 C   0  0  0  0  0  0  0  0  0  0  0  0
  156.9510  140.6376  182.9430 C   0  0  0  0  0  0  0  0  0  0  0  0
  157.9286  140.1063  182.1079 C   0  0  0  0  0  0  0  0  0  0  0  0
  158.4778  140.9091  181.1330 C   0  0  0  0  0  0  0  0  0  0  0  0
  158.0542  142.2091  181.0027 C   0  0  0  0  0  0  0  0  0  0  0  0
  158.7842  143.2078  179.7361 Cl  0  0  0  0  0  0  0  0  0  0  0  0
  157.0895  142.7585  181.8152 C   0  0  0  0  0  0  0  0  0  0  0  0
  156.5388  141.9311  182.8038 C   0  0  0  0  0  0  0  0  0  0  0  0
  153.7071  135.7632  187.2245 C   0  0  0  0  0  0  0  0  0  0  0  0
  152.8641  135.9134  188.3938 N   0  0  0  0  0  0  0  0  0  0  0  0
  151.5533  135.6055  188.3797 C   0  0  0  0  0  0  0  0  0  0  0  0
  150.7747  135.7498  189.4797 N   0  0  0  0  0  0  0  0  0  0  0  0
  151.2636  136.2053  190.6372 C   0  0  0  0  0  0  0  0  0  0  0  0
  150.5103  136.3596  191.7456 N   0  0  0  0  0  0  0  0  0  0  0  0
  150.9827  136.8165  192.9162 C   0  0  0  0  0  0  0  0  0  0  0  0
  152.3230  137.1516  192.9978 C   0  0  0  0  0  0  0  0  0  0  0  0
  153.1342  137.0074  191.8786 C   0  0  0  0  0  0  0  0  0  0  0  0
  152.5978  136.5318  190.6947 C   0  0  0  0  0  0  0  0  0  0  0  0
  153.3675  136.3729  189.5536 C   0  0  0  0  0  0  0  0  0  0  0  0
  154.5720  136.6683  189.6092 O   0  0  0  0  0  0  0  0  0  0  0  0
  6  7  1  0  0  0
  7  8  2  0  0  0
  8  1  1  0  0  0
  1  2  2  0  0  0
  2  3  1  0  0  0
  3 16  1  0  0  0
 16 17  1  0  0  0
 17 18  1  0  0  0
 18 19  2  0  0  0
 19 20  1  0  0  0
 20 21  2  0  0  0
 21 22  1  0  0  0
 22 23  2  0  0  0
 23 24  1  0  0  0
 24 25  2  0  0  0
 25 26  1  0  0  0
 26 27  2  0  0  0
  3  4  2  0  0  0
  4  5  1  0  0  0
  7  9  1  0  0  0
  9 10  2  0  0  0
 10 11  1  0  0  0
 11 12  2  0  0  0
 12 13  1  0  0  0
 12 14  1  0  0  0
 14 15  2  0  0  0
  5  1  1  0  0  0
 15  9  1  0  0  0
 26 17  1  0  0  0
 25 20  1  0  0  0
M  END
> <minimizedAffinity>
-7.41925

> <CNNscore>
0.3969089389

> <CNNaffinity>
5.5871310234

> <CNN_VS>
2.2175822258

> <CNNaffinity_variance>
0.1206637248

$$$$
[H]/C(=C(\c1c([H])c([H])c(Cl)c([H])c1[H])C([H])([H])[H])c1nc(C([H])([H])n2c([H])nc3nc([H])c([H])c([H])c3c2=O)no1


 27 30  0  0  0  0  0  0  0  0999 V2000
  154.0208  138.1333  187.0112 C   0  0  0  0  0  0  0  0  0  0  0  0
  153.5672  138.9808  186.1046 N   0  0  0  0  0  0  0  0  0  0  0  0
  154.2369  138.8347  184.9556 C   0  0  0  0  0  0  0  0  0  0  0  0
  155.1219  137.8587  185.1998 N   0  0  0  0  0  0  0  0  0  0  0  0
  155.0003  137.4395  186.4117 O   0  0  0  0  0  0  0  0  0  0  0  0
  152.0765  136.1935  187.7006 C   0  0  0  0  0  0  0  0  0  0  0  0
  152.8155  136.9606  188.7720 C   0  0  0  0  0  0  0  0  0  0  0  0
  153.6951  137.8390  188.3929 C   0  0  0  0  0  0  0  0  0  0  0  0
  152.4861  136.6653  190.1900 C   0  0  0  0  0  0  0  0  0  0  0  0
  151.2336  136.1681  190.5357 C   0  0  0  0  0  0  0  0  0  0  0  0
  150.9594  135.9217  191.8626 C   0  0  0  0  0  0  0  0  0  0  0  0
  151.9192  136.1683  192.8136 C   0  0  0  0  0  0  0  0  0  0  0  0
  151.5277  135.8370  194.5082 Cl  0  0  0  0  0  0  0  0  0  0  0  0
  153.1649  136.6596  192.4984 C   0  0  0  0  0  0  0  0  0  0  0  0
  153.4312  136.9066  191.1444 C   0  0  0  0  0  0  0  0  0  0  0  0
  154.0812  139.5458  183.6890 C   0  0  0  0  0  0  0  0  0  0  0  0
  152.9799  139.0795  182.8704 N   0  0  0  0  0  0  0  0  0  0  0  0
  152.2243  138.0202  183.2172 C   0  0  0  0  0  0  0  0  0  0  0  0
  151.1965  137.5934  182.4436 N   0  0  0  0  0  0  0  0  0  0  0  0
  150.8768  138.1984  181.2956 C   0  0  0  0  0  0  0  0  0  0  0  0
  149.8603  137.7927  180.5068 N   0  0  0  0  0  0  0  0  0  0  0  0
  149.5249  138.3864  179.3505 C   0  0  0  0  0  0  0  0  0  0  0  0
  150.2627  139.4816  178.9362 C   0  0  0  0  0  0  0  0  0  0  0  0
  151.3185  139.9320  179.7198 C   0  0  0  0  0  0  0  0  0  0  0  0
  151.6235  139.2842  180.9042 C   0  0  0  0  0  0  0  0  0  0  0  0
  152.6674  139.6967  181.7166 C   0  0  0  0  0  0  0  0  0  0  0  0
  153.3395  140.6778  181.3604 O   0  0  0  0  0  0  0  0  0  0  0  0
  6  7  1  0  0  0
  7  8  2  0  0  0
  8  1  1  0  0  0
  1  2  2  0  0  0
  2  3  1  0  0  0
  3 16  1  0  0  0
 16 17  1  0  0  0
 17 18  1  0  0  0
 18 19  2  0  0  0
 19 20  1  0  0  0
 20 21  2  0  0  0
 21 22  1  0  0  0
 22 23  2  0  0  0
 23 24  1  0  0  0
 24 25  2  0  0  0
 25 26  1  0  0  0
 26 27  2  0  0  0
  3  4  2  0  0  0
  4  5  1  0  0  0
  7  9  1  0  0  0
  9 10  2  0  0  0
 10 11  1  0  0  0
 11 12  2  0  0  0
 12 13  1  0  0  0
 12 14  1  0  0  0
 14 15  2  0  0  0
  5  1  1  0  0  0
 15  9  1  0  0  0
 26 17  1  0  0  0
 25 20  1  0  0  0
M  END
> <minimizedAffinity>
-7.08750

> <CNNscore>
0.3921694160

> <CNNaffinity>
5.3134088516

> <CNN_VS>
2.0837564468

> <CNNaffinity_variance>
0.0729956999

$$$$
[H]/C(=C(\c1c([H])c([H])c(Cl)c([H])c1[H])C([H])([H])[H])c1nc(C([H])([H])n2c([H])nc3nc([H])c([H])c([H])c3c2=O)no1


 27 30  0  0  0  0  0  0  0  0999 V2000
  155.5989  139.4968  184.0135 C   0  0  0  0  0  0  0  0  0  0  0  0
  155.7087  139.1220  185.2759 N   0  0  0  0  0  0  0  0  0  0  0  0
  154.5769  138.5396  185.6879 C   0  0  0  0  0  0  0  0  0  0  0  0
  153.7683  138.5749  184.6201 N   0  0  0  0  0  0  0  0  0  0  0  0
  154.3648  139.1386  183.6274 O   0  0  0  0  0  0  0  0  0  0  0  0
  155.5597  142.3057  183.6575 C   0  0  0  0  0  0  0  0  0  0  0  0
  156.4998  141.4387  182.8533 C   0  0  0  0  0  0  0  0  0  0  0  0
  156.4701  140.1560  183.0605 C   0  0  0  0  0  0  0  0  0  0  0  0
  157.3946  142.1069  181.8739 C   0  0  0  0  0  0  0  0  0  0  0  0
  157.7773  141.4540  180.7066 C   0  0  0  0  0  0  0  0  0  0  0  0
  158.6210  142.0995  179.8301 C   0  0  0  0  0  0  0  0  0  0  0  0
  159.0655  143.3662  180.1207 C   0  0  0  0  0  0  0  0  0  0  0  0
  160.1476  144.1621  178.9674 Cl  0  0  0  0  0  0  0  0  0  0  0  0
  158.7020  144.0336  181.2674 C   0  0  0  0  0  0  0  0  0  0  0  0
  157.8434  143.3654  182.1515 C   0  0  0  0  0  0  0  0  0  0  0  0
  154.2416  137.9724  186.9918 C   0  0  0  0  0  0  0  0  0  0  0  0
  155.2521  137.0900  187.5401 N   0  0  0  0  0  0  0  0  0  0  0  0
  156.0212  137.4410  188.5883 C   0  0  0  0  0  0  0  0  0  0  0  0
  156.9631  136.6071  189.0928 N   0  0  0  0  0  0  0  0  0  0  0  0
  157.1808  135.3927  188.5790 C   0  0  0  0  0  0  0  0  0  0  0  0
  158.1125  134.5446  189.0612 N   0  0  0  0  0  0  0  0  0  0  0  0
  158.3464  133.3222  188.5580 C   0  0  0  0  0  0  0  0  0  0  0  0
  157.5896  132.9001  187.4789 C   0  0  0  0  0  0  0  0  0  0  0  0
  156.6189  133.7435  186.9516 C   0  0  0  0  0  0  0  0  0  0  0  0
  156.4171  134.9949  187.5073 C   0  0  0  0  0  0  0  0  0  0  0  0
  155.4622  135.8696  187.0145 C   0  0  0  0  0  0  0  0  0  0  0  0
  154.7741  135.5071  186.0470 O   0  0  0  0  0  0  0  0  0  0  0  0
  6  7  1  0  0  0
  7  8  2  0  0  0
  8  1  1  0  0  0
  1  2  2  0  0  0
  2  3  1  0  0  0
  3 16  1  0  0  0
 16 17  1  0  0  0
 17 18  1  0  0  0
 18 19  2  0  0  0
 19 20  1  0  0  0
 20 21  2  0  0  0
 21 22  1  0  0  0
 22 23  2  0  0  0
 23 24  1  0  0  0
 24 25  2  0  0  0
 25 26  1  0  0  0
 26 27  2  0  0  0
  3  4  2  0  0  0
  4  5  1  0  0  0
  7  9  1  0  0  0
  9 10  2  0  0  0
 10 11  1  0  0  0
 11 12  2  0  0  0
 12 13  1  0  0  0
 12 14  1  0  0  0
 14 15  2  0  0  0
  5  1  1  0  0  0
 15  9  1  0  0  0
 26 17  1  0  0  0
 25 20  1  0  0  0
M  END
> <minimizedAffinity>
-7.41539

> <CNNscore>
0.3737822175

> <CNNaffinity>
5.8628311157

> <CNN_VS>
2.1914219856

> <CNNaffinity_variance>
0.0863406509

$$$$
[H]/C(=C(\c1c([H])c([H])c(Cl)c([H])c1[H])C([H])([H])[H])c1nc(C([H])([H])n2c([H])nc3nc([H])c([H])c([H])c3c2=O)no1


 27 30  0  0  0  0  0  0  0  0999 V2000
  154.7880  140.8229  182.9824 C   0  0  0  0  0  0  0  0  0  0  0  0
  154.3493  139.6518  182.5556 N   0  0  0  0  0  0  0  0  0  0  0  0
  153.2381  139.8091  181.8272 C   0  0  0  0  0  0  0  0  0  0  0  0
  153.0158  141.1304  181.8275 N   0  0  0  0  0  0  0  0  0  0  0  0
  153.9269  141.7358  182.5076 O   0  0  0  0  0  0  0  0  0  0  0  0
  157.3764  141.1378  181.8782 C   0  0  0  0  0  0  0  0  0  0  0  0
  157.1188  141.4310  183.3377 C   0  0  0  0  0  0  0  0  0  0  0  0
  155.9102  141.2662  183.7862 C   0  0  0  0  0  0  0  0  0  0  0  0
  158.2641  141.8844  184.1678 C   0  0  0  0  0  0  0  0  0  0  0  0
  159.2605  142.6856  183.6196 C   0  0  0  0  0  0  0  0  0  0  0  0
  160.3152  143.0728  184.4161 C   0  0  0  0  0  0  0  0  0  0  0  0
  160.3643  142.6653  185.7268 C   0  0  0  0  0  0  0  0  0  0  0  0
  161.7362  143.1857  186.7177 Cl  0  0  0  0  0  0  0  0  0  0  0  0
  159.3923  141.8734  186.2929 C   0  0  0  0  0  0  0  0  0  0  0  0
  158.3245  141.4857  185.4715 C   0  0  0  0  0  0  0  0  0  0  0  0
  152.4134  138.8068  181.1568 C   0  0  0  0  0  0  0  0  0  0  0  0
  151.0467  138.7375  181.6339 N   0  0  0  0  0  0  0  0  0  0  0  0
  150.0449  139.4203  181.0479 C   0  0  0  0  0  0  0  0  0  0  0  0
  148.7703  139.3475  181.5028 N   0  0  0  0  0  0  0  0  0  0  0  0
  148.4374  138.5958  182.5566 C   0  0  0  0  0  0  0  0  0  0  0  0
  147.1774  138.5072  183.0302 N   0  0  0  0  0  0  0  0  0  0  0  0
  146.8241  137.7591  184.0874 C   0  0  0  0  0  0  0  0  0  0  0  0
  147.8073  137.0321  184.7356 C   0  0  0  0  0  0  0  0  0  0  0  0
  149.1186  137.0955  184.2796 C   0  0  0  0  0  0  0  0  0  0  0  0
  149.4307  137.8824  183.1847 C   0  0  0  0  0  0  0  0  0  0  0  0
  150.7236  137.9773  182.6958 C   0  0  0  0  0  0  0  0  0  0  0  0
  151.6180  137.3315  183.2651 O   0  0  0  0  0  0  0  0  0  0  0  0
  6  7  1  0  0  0
  7  8  2  0  0  0
  8  1  1  0  0  0
  1  2  2  0  0  0
  2  3  1  0  0  0
  3 16  1  0  0  0
 16 17  1  0  0  0
 17 18  1  0  0  0
 18 19  2  0  0  0
 19 20  1  0  0  0
 20 21  2  0  0  0
 21 22  1  0  0  0
 22 23  2  0  0  0
 23 24  1  0  0  0
 24 25  2  0  0  0
 25 26  1  0  0  0
 26 27  2  0  0  0
  3  4  2  0  0  0
  4  5  1  0  0  0
  7  9  1  0  0  0
  9 10  2  0  0  0
 10 11  1  0  0  0
 11 12  2  0  0  0
 12 13  1  0  0  0
 12 14  1  0  0  0
 14 15  2  0  0  0
  5  1  1  0  0  0
 15  9  1  0  0  0
 26 17  1  0  0  0
 25 20  1  0  0  0
M  END
> <minimizedAffinity>
-7.82055

> <CNNscore>
0.3675164282

> <CNNaffinity>
6.0721507072

> <CNN_VS>
2.2316150665

> <CNNaffinity_variance>
0.1092462987

$$$$
[H]/C(=C(\c1c([H])c([H])c(Cl)c([H])c1[H])C([H])([H])[H])c1nc(C([H])([H])n2c([H])nc3nc([H])c([H])c([H])c3c2=O)no1


 27 30  0  0  0  0  0  0  0  0999 V2000
  154.5453  137.4663  186.3382 C   0  0  0  0  0  0  0  0  0  0  0  0
  154.6851  137.9275  187.5686 N   0  0  0  0  0  0  0  0  0  0  0  0
  155.5298  137.1551  188.2613 C   0  0  0  0  0  0  0  0  0  0  0  0
  155.9011  136.1992  187.3990 N   0  0  0  0  0  0  0  0  0  0  0  0
  155.3239  136.3763  186.2612 O   0  0  0  0  0  0  0  0  0  0  0  0
  155.6007  139.2759  184.4331 C   0  0  0  0  0  0  0  0  0  0  0  0
  154.2161  138.6962  184.2627 C   0  0  0  0  0  0  0  0  0  0  0  0
  153.7866  137.8722  185.1714 C   0  0  0  0  0  0  0  0  0  0  0  0
  153.4322  139.1085  183.0703 C   0  0  0  0  0  0  0  0  0  0  0  0
  153.5837  140.3819  182.5310 C   0  0  0  0  0  0  0  0  0  0  0  0
  152.8279  140.7337  181.4348 C   0  0  0  0  0  0  0  0  0  0  0  0
  151.9457  139.8286  180.8970 C   0  0  0  0  0  0  0  0  0  0  0  0
  150.9937  140.3192  179.4871 Cl  0  0  0  0  0  0  0  0  0  0  0  0
  151.7772  138.5638  181.4110 C   0  0  0  0  0  0  0  0  0  0  0  0
  152.5520  138.2184  182.5271 C   0  0  0  0  0  0  0  0  0  0  0  0
  155.9843  137.2779  189.6442 C   0  0  0  0  0  0  0  0  0  0  0  0
  155.1676  136.5695  190.6095 N   0  0  0  0  0  0  0  0  0  0  0  0
  155.3217  135.2544  190.8544 C   0  0  0  0  0  0  0  0  0  0  0  0
  154.5521  134.6025  191.7598 N   0  0  0  0  0  0  0  0  0  0  0  0
  153.5991  135.2274  192.4582 C   0  0  0  0  0  0  0  0  0  0  0  0
  152.8188  134.6017  193.3635 N   0  0  0  0  0  0  0  0  0  0  0  0
  151.8563  135.2117  194.0733 C   0  0  0  0  0  0  0  0  0  0  0  0
  151.6463  136.5642  193.8687 C   0  0  0  0  0  0  0  0  0  0  0  0
  152.4288  137.2465  192.9447 C   0  0  0  0  0  0  0  0  0  0  0  0
  153.4085  136.5709  192.2383 C   0  0  0  0  0  0  0  0  0  0  0  0
  154.2113  137.2092  191.3066 C   0  0  0  0  0  0  0  0  0  0  0  0
  154.0368  138.4225  191.1108 O   0  0  0  0  0  0  0  0  0  0  0  0
  6  7  1  0  0  0
  7  8  2  0  0  0
  8  1  1  0  0  0
  1  2  2  0  0  0
  2  3  1  0  0  0
  3 16  1  0  0  0
 16 17  1  0  0  0
 17 18  1  0  0  0
 18 19  2  0  0  0
 19 20  1  0  0  0
 20 21  2  0  0  0
 21 22  1  0  0  0
 22 23  2  0  0  0
 23 24  1  0  0  0
 24 25  2  0  0  0
 25 26  1  0  0  0
 26 27  2  0  0  0
  3  4  2  0  0  0
  4  5  1  0  0  0
  7  9  1  0  0  0
  9 10  2  0  0  0
 10 11  1  0  0  0
 11 12  2  0  0  0
 12 13  1  0  0  0
 12 14  1  0  0  0
 14 15  2  0  0  0
  5  1  1  0  0  0
 15  9  1  0  0  0
 26 17  1  0  0  0
 25 20  1  0  0  0
M  END
> <minimizedAffinity>
-7.12013

> <CNNscore>
0.3644841909

> <CNNaffinity>
5.4212813377

> <CNN_VS>
1.9759713411

> <CNNaffinity_variance>
0.0909124538

$$$$
[H]/C(=C(\c1c([H])c([H])c(Cl)c([H])c1[H])C([H])([H])[H])c1nc(C([H])([H])n2c([H])nc3nc([H])c([H])c([H])c3c2=O)no1


 27 30  0  0  0  0  0  0  0  0999 V2000
  154.5816  138.6305  184.9386 C   0  0  0  0  0  0  0  0  0  0  0  0
  154.6821  137.4036  185.4188 N   0  0  0  0  0  0  0  0  0  0  0  0
  153.8381  137.2347  186.4431 C   0  0  0  0  0  0  0  0  0  0  0  0
  153.2158  138.4146  186.5686 N   0  0  0  0  0  0  0  0  0  0  0  0
  153.6494  139.2440  185.6837 O   0  0  0  0  0  0  0  0  0  0  0  0
  157.1928  139.6900  185.2164 C   0  0  0  0  0  0  0  0  0  0  0  0
  156.4167  139.8757  183.9336 C   0  0  0  0  0  0  0  0  0  0  0  0
  155.2223  139.3677  183.8672 C   0  0  0  0  0  0  0  0  0  0  0  0
  157.0663  140.6312  182.8319 C   0  0  0  0  0  0  0  0  0  0  0  0
  158.1114  140.0661  182.1081 C   0  0  0  0  0  0  0  0  0  0  0  0
  158.6996  140.8033  181.1045 C   0  0  0  0  0  0  0  0  0  0  0  0
  158.2476  142.0725  180.8372 C   0  0  0  0  0  0  0  0  0  0  0  0
  159.0294  142.9867  179.5382 Cl  0  0  0  0  0  0  0  0  0  0  0  0
  157.2163  142.6540  181.5378 C   0  0  0  0  0  0  0  0  0  0  0  0
  156.6265  141.8934  182.5570 C   0  0  0  0  0  0  0  0  0  0  0  0
  153.6023  136.0549  187.2717 C   0  0  0  0  0  0  0  0  0  0  0  0
  153.4099  136.3393  188.6797 N   0  0  0  0  0  0  0  0  0  0  0  0
  154.3933  136.8360  189.4540 C   0  0  0  0  0  0  0  0  0  0  0  0
  154.2015  137.0984  190.7698 N   0  0  0  0  0  0  0  0  0  0  0  0
  153.0282  136.8787  191.3710 C   0  0  0  0  0  0  0  0  0  0  0  0
  152.8118  137.1296  192.6787 N   0  0  0  0  0  0  0  0  0  0  0  0
  151.6415  136.9144  193.3002 C   0  0  0  0  0  0  0  0  0  0  0  0
  150.5889  136.4042  192.5605 C   0  0  0  0  0  0  0  0  0  0  0  0
  150.7700  136.1317  191.2098 C   0  0  0  0  0  0  0  0  0  0  0  0
  151.9971  136.3715  190.6164 C   0  0  0  0  0  0  0  0  0  0  0  0
  152.2242  136.1140  189.2740 C   0  0  0  0  0  0  0  0  0  0  0  0
  151.2908  135.6564  188.5954 O   0  0  0  0  0  0  0  0  0  0  0  0
  6  7  1  0  0  0
  7  8  2  0  0  0
  8  1  1  0  0  0
  1  2  2  0  0  0
  2  3  1  0  0  0
  3 16  1  0  0  0
 16 17  1  0  0  0
 17 18  1  0  0  0
 18 19  2  0  0  0
 19 20  1  0  0  0
 20 21  2  0  0  0
 21 22  1  0  0  0
 22 23  2  0  0  0
 23 24  1  0  0  0
 24 25  2  0  0  0
 25 26  1  0  0  0
 26 27  2  0  0  0
  3  4  2  0  0  0
  4  5  1  0  0  0
  7  9  1  0  0  0
  9 10  2  0  0  0
 10 11  1  0  0  0
 11 12  2  0  0  0
 12 13  1  0  0  0
 12 14  1  0  0  0
 14 15  2  0  0  0
  5  1  1  0  0  0
 15  9  1  0  0  0
 26 17  1  0  0  0
 25 20  1  0  0  0
M  END
> <minimizedAffinity>
-7.55333

> <CNNscore>
0.3625000417

> <CNNaffinity>
5.5600128174

> <CNN_VS>
2.0155048370

> <CNNaffinity_variance>
0.1339379847

$$$$
[H]C#Cc1c([H])c([H])c([H])c(-c2nc3c([H])c([H])c(C(F)(F)F)c([H])n3c2N([H])C([H])(C([H])([H])[H])C([H])([H])[H])c1[H]


 26 28  0  0  0  0  0  0  0  0999 V2000
  153.5159  139.1938  182.9317 C   0  0  0  0  0  0  0  0  0  0  0  0
  152.3544  138.7465  182.4406 C   0  0  0  0  0  0  0  0  0  0  0  0
  151.8535  137.7894  183.3270 N   0  0  0  0  0  0  0  0  0  0  0  0
  152.7033  137.6631  184.3351 C   0  0  0  0  0  0  0  0  0  0  0  0
  152.6627  136.8518  185.4598 C   0  0  0  0  0  0  0  0  0  0  0  0
  153.6704  136.8843  186.3928 C   0  0  0  0  0  0  0  0  0  0  0  0
  154.7168  137.7580  186.1514 C   0  0  0  0  0  0  0  0  0  0  0  0
  154.7128  138.5373  185.0294 C   0  0  0  0  0  0  0  0  0  0  0  0
  153.7125  138.4974  184.1196 N   0  0  0  0  0  0  0  0  0  0  0  0
  151.6291  139.0233  181.2213 C   0  0  0  0  0  0  0  0  0  0  0  0
  151.8178  140.0217  180.3353 C   0  0  0  0  0  0  0  0  0  0  0  0
  151.0431  140.1762  179.2007 C   0  0  0  0  0  0  0  0  0  0  0  0
  150.0374  139.2659  178.9735 C   0  0  0  0  0  0  0  0  0  0  0  0
  149.7769  138.2170  179.8225 C   0  0  0  0  0  0  0  0  0  0  0  0
  150.5821  138.1266  180.9228 C   0  0  0  0  0  0  0  0  0  0  0  0
  148.7007  137.2708  179.5648 C   0  0  0  0  0  0  0  0  0  0  0  0
  147.8295  136.4690  179.3519 C   0  0  0  0  0  0  0  0  0  0  0  0
  155.8301  137.8645  187.1317 C   0  0  0  0  0  0  0  0  0  0  0  0
  155.3064  138.3534  188.3270 F   0  0  0  0  0  0  0  0  0  0  0  0
  156.7499  138.7321  186.6089 F   0  0  0  0  0  0  0  0  0  0  0  0
  156.4561  136.6473  187.2885 F   0  0  0  0  0  0  0  0  0  0  0  0
  154.4297  140.1464  182.5000 N   0  0  0  0  0  0  0  0  0  0  0  0
  155.0226  139.9020  181.6125 H   0  0  0  0  0  0  0  0  0  0  0  0
  153.7603  142.5274  182.5149 C   0  0  0  0  0  0  0  0  0  0  0  0
  154.7967  141.4306  182.9708 C   0  0  0  0  0  0  0  0  0  0  0  0
  155.9987  141.8522  182.0591 C   0  0  0  0  0  0  0  0  0  0  0  0
 24 25  1  0  0  0
 25 26  1  0  0  0
 25 22  1  0  0  0
 22  1  1  0  0  0
  1  2  2  0  0  0
  2  3  1  0  0  0
  3  4  2  0  0  0
  4  5  1  0  0  0
  5  6  2  0  0  0
  6  7  1  0  0  0
  7  8  2  0  0  0
  8  9  1  0  0  0
  7 18  1  0  0  0
 18 19  1  0  0  0
 18 20  1  0  0  0
 18 21  1  0  0  0
  2 10  1  0  0  0
 10 11  2  0  0  0
 11 12  1  0  0  0
 12 13  2  0  0  0
 13 14  1  0  0  0
 14 15  2  0  0  0
 14 16  1  0  0  0
 16 17  3  0  0  0
  9  1  1  0  0  0
 15 10  1  0  0  0
  9  4  1  0  0  0
 22 23  1  0  0  0
M  END
> <minimizedAffinity>
-7.16160

> <CNNscore>
0.5196047425

> <CNNaffinity>
5.6770086288

> <CNN_VS>
2.9498004913

> <CNNaffinity_variance>
0.0970236659

$$$$
[H]C#Cc1c([H])c([H])c([H])c(-c2nc3c([H])c([H])c(C(F)(F)F)c([H])n3c2N([H])C([H])(C([H])([H])[H])C([H])([H])[H])c1[H]


 26 28  0  0  0  0  0  0  0  0999 V2000
  153.1798  138.0007  186.7948 C   0  0  0  0  0  0  0  0  0  0  0  0
  153.9523  138.4198  185.7858 C   0  0  0  0  0  0  0  0  0  0  0  0
  155.2752  138.4352  186.2355 N   0  0  0  0  0  0  0  0  0  0  0  0
  155.2961  138.0324  187.4971 C   0  0  0  0  0  0  0  0  0  0  0  0
  156.3530  137.8759  188.3823 C   0  0  0  0  0  0  0  0  0  0  0  0
  156.1414  137.4382  189.6670 C   0  0  0  0  0  0  0  0  0  0  0  0
  154.8322  137.1673  190.0267 C   0  0  0  0  0  0  0  0  0  0  0  0
  153.8244  137.3364  189.1202 C   0  0  0  0  0  0  0  0  0  0  0  0
  154.0469  137.7659  187.8568 N   0  0  0  0  0  0  0  0  0  0  0  0
  153.6599  138.8763  184.4458 C   0  0  0  0  0  0  0  0  0  0  0  0
  153.0537  138.2120  183.4415 C   0  0  0  0  0  0  0  0  0  0  0  0
  152.8376  138.7688  182.1947 C   0  0  0  0  0  0  0  0  0  0  0  0
  153.2631  140.0587  181.9783 C   0  0  0  0  0  0  0  0  0  0  0  0
  153.8873  140.8091  182.9458 C   0  0  0  0  0  0  0  0  0  0  0  0
  154.0670  140.1945  184.1530 C   0  0  0  0  0  0  0  0  0  0  0  0
  154.3365  142.1701  182.6900 C   0  0  0  0  0  0  0  0  0  0  0  0
  154.7273  143.2914  182.4968 C   0  0  0  0  0  0  0  0  0  0  0  0
  154.5315  136.6654  191.3940 C   0  0  0  0  0  0  0  0  0  0  0  0
  155.7414  136.4749  192.0588 F   0  0  0  0  0  0  0  0  0  0  0  0
  153.8585  135.4825  191.2534 F   0  0  0  0  0  0  0  0  0  0  0  0
  153.6962  137.5371  192.0575 F   0  0  0  0  0  0  0  0  0  0  0  0
  151.8158  137.7713  186.9194 N   0  0  0  0  0  0  0  0  0  0  0  0
  151.1858  138.6328  187.1640 H   0  0  0  0  0  0  0  0  0  0  0  0
  151.6374  135.5704  185.8050 C   0  0  0  0  0  0  0  0  0  0  0  0
  151.0057  136.6157  186.8016 C   0  0  0  0  0  0  0  0  0  0  0  0
  149.7947  137.0756  185.9208 C   0  0  0  0  0  0  0  0  0  0  0  0
 24 25  1  0  0  0
 25 26  1  0  0  0
 25 22  1  0  0  0
 22  1  1  0  0  0
  1  2  2  0  0  0
  2  3  1  0  0  0
  3  4  2  0  0  0
  4  5  1  0  0  0
  5  6  2  0  0  0
  6  7  1  0  0  0
  7  8  2  0  0  0
  8  9  1  0  0  0
  7 18  1  0  0  0
 18 19  1  0  0  0
 18 20  1  0  0  0
 18 21  1  0  0  0
  2 10  1  0  0  0
 10 11  2  0  0  0
 11 12  1  0  0  0
 12 13  2  0  0  0
 13 14  1  0  0  0
 14 15  2  0  0  0
 14 16  1  0  0  0
 16 17  3  0  0  0
  9  1  1  0  0  0
 15 10  1  0  0  0
  9  4  1  0  0  0
 22 23  1  0  0  0
M  END
> <minimizedAffinity>
-6.57063

> <CNNscore>
0.5122845173

> <CNNaffinity>
5.5835785866

> <CNN_VS>
2.8603808880

> <CNNaffinity_variance>
0.1231073886

$$$$
[H]C#Cc1c([H])c([H])c([H])c(-c2nc3c([H])c([H])c(C(F)(F)F)c([H])n3c2N([H])C([H])(C([H])([H])[H])C([H])([H])[H])c1[H]


 26 28  0  0  0  0  0  0  0  0999 V2000
  152.8639  137.2841  186.7786 C   0  0  0  0  0  0  0  0  0  0  0  0
  153.4666  137.1406  185.5926 C   0  0  0  0  0  0  0  0  0  0  0  0
  154.8376  137.3335  185.7814 N   0  0  0  0  0  0  0  0  0  0  0  0
  155.0545  137.5906  187.0625 C   0  0  0  0  0  0  0  0  0  0  0  0
  156.2316  137.8514  187.7490 C   0  0  0  0  0  0  0  0  0  0  0  0
  156.2234  138.0956  189.1007 C   0  0  0  0  0  0  0  0  0  0  0  0
  154.9918  138.0703  189.7324 C   0  0  0  0  0  0  0  0  0  0  0  0
  153.8595  137.8089  189.0141 C   0  0  0  0  0  0  0  0  0  0  0  0
  153.8819  137.5673  187.6832 N   0  0  0  0  0  0  0  0  0  0  0  0
  152.9677  136.9005  184.2573 C   0  0  0  0  0  0  0  0  0  0  0  0
  152.6694  135.7260  183.6664 C   0  0  0  0  0  0  0  0  0  0  0  0
  152.2000  135.6350  182.3693 C   0  0  0  0  0  0  0  0  0  0  0  0
  152.0325  136.7999  181.6573 C   0  0  0  0  0  0  0  0  0  0  0  0
  152.3094  138.0395  182.1821 C   0  0  0  0  0  0  0  0  0  0  0  0
  152.7692  138.0529  183.4688 C   0  0  0  0  0  0  0  0  0  0  0  0
  152.1319  139.2582  181.4055 C   0  0  0  0  0  0  0  0  0  0  0  0
  152.0121  140.2667  180.7608 C   0  0  0  0  0  0  0  0  0  0  0  0
  154.9100  138.3009  191.1993 C   0  0  0  0  0  0  0  0  0  0  0  0
  153.7126  137.7530  191.6555 F   0  0  0  0  0  0  0  0  0  0  0  0
  154.9371  139.6541  191.3997 F   0  0  0  0  0  0  0  0  0  0  0  0
  156.0100  137.7692  191.8357 F   0  0  0  0  0  0  0  0  0  0  0  0
  151.5429  137.1829  187.1951 N   0  0  0  0  0  0  0  0  0  0  0  0
  151.0427  138.1094  187.4956 H   0  0  0  0  0  0  0  0  0  0  0  0
  151.3720  134.7167  187.1159 C   0  0  0  0  0  0  0  0  0  0  0  0
  150.6438  136.0977  187.3338 C   0  0  0  0  0  0  0  0  0  0  0  0
  149.7941  136.1237  186.0181 C   0  0  0  0  0  0  0  0  0  0  0  0
 24 25  1  0  0  0
 25 26  1  0  0  0
 25 22  1  0  0  0
 22  1  1  0  0  0
  1  2  2  0  0  0
  2  3  1  0  0  0
  3  4  2  0  0  0
  4  5  1  0  0  0
  5  6  2  0  0  0
  6  7  1  0  0  0
  7  8  2  0  0  0
  8  9  1  0  0  0
  7 18  1  0  0  0
 18 19  1  0  0  0
 18 20  1  0  0  0
 18 21  1  0  0  0
  2 10  1  0  0  0
 10 11  2  0  0  0
 11 12  1  0  0  0
 12 13  2  0  0  0
 13 14  1  0  0  0
 14 15  2  0  0  0
 14 16  1  0  0  0
 16 17  3  0  0  0
  9  1  1  0  0  0
 15 10  1  0  0  0
  9  4  1  0  0  0
 22 23  1  0  0  0
M  END
> <minimizedAffinity>
-6.09735

> <CNNscore>
0.4610913992

> <CNNaffinity>
5.5150122643

> <CNN_VS>
2.5429246426

> <CNNaffinity_variance>
0.0341679864

$$$$
[H]C#Cc1c([H])c([H])c([H])c(-c2nc3c([H])c([H])c(C(F)(F)F)c([H])n3c2N([H])C([H])(C([H])([H])[H])C([H])([H])[H])c1[H]


 26 28  0  0  0  0  0  0  0  0999 V2000
  152.3684  138.6640  182.3498 C   0  0  0  0  0  0  0  0  0  0  0  0
  153.2115  139.6864  182.1648 C   0  0  0  0  0  0  0  0  0  0  0  0
  152.8289  140.3528  180.9978 N   0  0  0  0  0  0  0  0  0  0  0  0
  151.7719  139.7380  180.4887 C   0  0  0  0  0  0  0  0  0  0  0  0
  151.0258  140.0082  179.3505 C   0  0  0  0  0  0  0  0  0  0  0  0
  149.9510  139.2252  179.0064 C   0  0  0  0  0  0  0  0  0  0  0  0
  149.6578  138.1636  179.8452 C   0  0  0  0  0  0  0  0  0  0  0  0
  150.4215  137.9371  180.9550 C   0  0  0  0  0  0  0  0  0  0  0  0
  151.4762  138.7177  181.2840 N   0  0  0  0  0  0  0  0  0  0  0  0
  154.3850  140.1364  182.8788 C   0  0  0  0  0  0  0  0  0  0  0  0
  155.0497  139.5254  183.8799 C   0  0  0  0  0  0  0  0  0  0  0  0
  156.1663  140.0721  184.4845 C   0  0  0  0  0  0  0  0  0  0  0  0
  156.6122  141.2943  184.0381 C   0  0  0  0  0  0  0  0  0  0  0  0
  155.9969  141.9854  183.0219 C   0  0  0  0  0  0  0  0  0  0  0  0
  154.9000  141.3846  182.4714 C   0  0  0  0  0  0  0  0  0  0  0  0
  156.4829  143.2821  182.5724 C   0  0  0  0  0  0  0  0  0  0  0  0
  156.8602  144.3585  182.1901 C   0  0  0  0  0  0  0  0  0  0  0  0
  148.4924  137.2886  179.5483 C   0  0  0  0  0  0  0  0  0  0  0  0
  148.9330  135.9665  179.5569 F   0  0  0  0  0  0  0  0  0  0  0  0
  148.0247  137.6410  178.3118 F   0  0  0  0  0  0  0  0  0  0  0  0
  147.4761  137.5120  180.4511 F   0  0  0  0  0  0  0  0  0  0  0  0
  152.2502  137.6920  183.3347 N   0  0  0  0  0  0  0  0  0  0  0  0
  151.4607  137.8316  184.0804 H   0  0  0  0  0  0  0  0  0  0  0  0
  152.0081  135.2402  183.5537 C   0  0  0  0  0  0  0  0  0  0  0  0
  152.9568  136.4977  183.6170 C   0  0  0  0  0  0  0  0  0  0  0  0
  153.1883  136.5374  185.1658 C   0  0  0  0  0  0  0  0  0  0  0  0
 24 25  1  0  0  0
 25 26  1  0  0  0
 25 22  1  0  0  0
 22  1  1  0  0  0
  1  2  2  0  0  0
  2  3  1  0  0  0
  3  4  2  0  0  0
  4  5  1  0  0  0
  5  6  2  0  0  0
  6  7  1  0  0  0
  7  8  2  0  0  0
  8  9  1  0  0  0
  7 18  1  0  0  0
 18 19  1  0  0  0
 18 20  1  0  0  0
 18 21  1  0  0  0
  2 10  1  0  0  0
 10 11  2  0  0  0
 11 12  1  0  0  0
 12 13  2  0  0  0
 13 14  1  0  0  0
 14 15  2  0  0  0
 14 16  1  0  0  0
 16 17  3  0  0  0
  9  1  1  0  0  0
 15 10  1  0  0  0
  9  4  1  0  0  0
 22 23  1  0  0  0
M  END
> <minimizedAffinity>
-7.22009

> <CNNscore>
0.4552737772

> <CNNaffinity>
5.7309184074

> <CNN_VS>
2.6091368198

> <CNNaffinity_variance>
0.0818905905

$$$$
[H]C#Cc1c([H])c([H])c([H])c(-c2nc3c([H])c([H])c(C(F)(F)F)c([H])n3c2N([H])C([H])(C([H])([H])[H])C([H])([H])[H])c1[H]


 26 28  0  0  0  0  0  0  0  0999 V2000
  154.9424  139.6404  184.1151 C   0  0  0  0  0  0  0  0  0  0  0  0
  155.1468  139.0425  185.2946 C   0  0  0  0  0  0  0  0  0  0  0  0
  156.5163  139.0887  185.5679 N   0  0  0  0  0  0  0  0  0  0  0  0
  157.1255  139.7044  184.5658 C   0  0  0  0  0  0  0  0  0  0  0  0
  158.4659  139.9989  184.3622 C   0  0  0  0  0  0  0  0  0  0  0  0
  158.8822  140.6560  183.2300 C   0  0  0  0  0  0  0  0  0  0  0  0
  157.9040  141.0019  182.3135 C   0  0  0  0  0  0  0  0  0  0  0  0
  156.5965  140.6906  182.5578 C   0  0  0  0  0  0  0  0  0  0  0  0
  156.1995  140.0452  183.6785 N   0  0  0  0  0  0  0  0  0  0  0  0
  154.2677  138.3638  186.2199 C   0  0  0  0  0  0  0  0  0  0  0  0
  153.1452  137.6644  185.9588 C   0  0  0  0  0  0  0  0  0  0  0  0
  152.3875  137.0629  186.9464 C   0  0  0  0  0  0  0  0  0  0  0  0
  152.8053  137.1885  188.2507 C   0  0  0  0  0  0  0  0  0  0  0  0
  153.9379  137.8809  188.6064 C   0  0  0  0  0  0  0  0  0  0  0  0
  154.6367  138.4486  187.5785 C   0  0  0  0  0  0  0  0  0  0  0  0
  154.3552  138.0071  189.9955 C   0  0  0  0  0  0  0  0  0  0  0  0
  154.7117  138.0871  191.1417 C   0  0  0  0  0  0  0  0  0  0  0  0
  158.2788  141.7376  181.0766 C   0  0  0  0  0  0  0  0  0  0  0  0
  158.1697  140.8572  180.0018 F   0  0  0  0  0  0  0  0  0  0  0  0
  159.5699  142.1626  181.2324 F   0  0  0  0  0  0  0  0  0  0  0  0
  157.4929  142.8586  180.9224 F   0  0  0  0  0  0  0  0  0  0  0  0
  153.8039  139.9052  183.3652 N   0  0  0  0  0  0  0  0  0  0  0  0
  153.1253  140.6761  183.7448 H   0  0  0  0  0  0  0  0  0  0  0  0
  152.4980  140.4718  181.3425 C   0  0  0  0  0  0  0  0  0  0  0  0
  153.2854  139.3765  182.1582 C   0  0  0  0  0  0  0  0  0  0  0  0
  152.0676  138.4995  182.6070 C   0  0  0  0  0  0  0  0  0  0  0  0
 24 25  1  0  0  0
 25 26  1  0  0  0
 25 22  1  0  0  0
 22  1  1  0  0  0
  1  2  2  0  0  0
  2  3  1  0  0  0
  3  4  2  0  0  0
  4  5  1  0  0  0
  5  6  2  0  0  0
  6  7  1  0  0  0
  7  8  2  0  0  0
  8  9  1  0  0  0
  7 18  1  0  0  0
 18 19  1  0  0  0
 18 20  1  0  0  0
 18 21  1  0  0  0
  2 10  1  0  0  0
 10 11  2  0  0  0
 11 12  1  0  0  0
 12 13  2  0  0  0
 13 14  1  0  0  0
 14 15  2  0  0  0
 14 16  1  0  0  0
 16 17  3  0  0  0
  9  1  1  0  0  0
 15 10  1  0  0  0
  9  4  1  0  0  0
 22 23  1  0  0  0
M  END
> <minimizedAffinity>
-7.66050

> <CNNscore>
0.4270522892

> <CNNaffinity>
6.0064439774

> <CNN_VS>
2.5650656223

> <CNNaffinity_variance>
0.1565788090

$$$$
[H]C#Cc1c([H])c([H])c([H])c(-c2nc3c([H])c([H])c(C(F)(F)F)c([H])n3c2N([H])C([H])(C([H])([H])[H])C([H])([H])[H])c1[H]


 26 28  0  0  0  0  0  0  0  0999 V2000
  153.1110  137.8804  184.8088 C   0  0  0  0  0  0  0  0  0  0  0  0
  153.9836  138.4381  185.6560 C   0  0  0  0  0  0  0  0  0  0  0  0
  154.4619  139.6123  185.0687 N   0  0  0  0  0  0  0  0  0  0  0  0
  153.8854  139.7565  183.8849 C   0  0  0  0  0  0  0  0  0  0  0  0
  154.0228  140.7471  182.9233 C   0  0  0  0  0  0  0  0  0  0  0  0
  153.3152  140.6949  181.7471 C   0  0  0  0  0  0  0  0  0  0  0  0
  152.4698  139.6122  181.5745 C   0  0  0  0  0  0  0  0  0  0  0  0
  152.3678  138.6613  182.5500 C   0  0  0  0  0  0  0  0  0  0  0  0
  153.0687  138.7261  183.7053 N   0  0  0  0  0  0  0  0  0  0  0  0
  154.5103  138.0283  186.9383 C   0  0  0  0  0  0  0  0  0  0  0  0
  154.1340  138.4244  188.1707 C   0  0  0  0  0  0  0  0  0  0  0  0
  154.7294  137.9533  189.3261 C   0  0  0  0  0  0  0  0  0  0  0  0
  155.7501  137.0397  189.2032 C   0  0  0  0  0  0  0  0  0  0  0  0
  156.1954  136.5799  187.9870 C   0  0  0  0  0  0  0  0  0  0  0  0
  155.5608  137.0885  186.8889 C   0  0  0  0  0  0  0  0  0  0  0  0
  157.2838  135.6185  187.8823 C   0  0  0  0  0  0  0  0  0  0  0  0
  158.2006  134.8440  187.8009 C   0  0  0  0  0  0  0  0  0  0  0  0
  151.6535  139.5035  180.3362 C   0  0  0  0  0  0  0  0  0  0  0  0
  151.0805  138.2335  180.3079 F   0  0  0  0  0  0  0  0  0  0  0  0
  152.4989  139.6831  179.2755 F   0  0  0  0  0  0  0  0  0  0  0  0
  150.7123  140.5083  180.2863 F   0  0  0  0  0  0  0  0  0  0  0  0
  152.3221  136.7389  184.8672 N   0  0  0  0  0  0  0  0  0  0  0  0
  151.2601  136.8781  185.0946 H   0  0  0  0  0  0  0  0  0  0  0  0
  152.9930  134.6782  186.0593 C   0  0  0  0  0  0  0  0  0  0  0  0
  152.5885  135.3586  184.6961 C   0  0  0  0  0  0  0  0  0  0  0  0
  153.9860  135.3150  183.9898 C   0  0  0  0  0  0  0  0  0  0  0  0
 24 25  1  0  0  0
 25 26  1  0  0  0
 25 22  1  0  0  0
 22  1  1  0  0  0
  1  2  2  0  0  0
  2  3  1  0  0  0
  3  4  2  0  0  0
  4  5  1  0  0  0
  5  6  2  0  0  0
  6  7  1  0  0  0
  7  8  2  0  0  0
  8  9  1  0  0  0
  7 18  1  0  0  0
 18 19  1  0  0  0
 18 20  1  0  0  0
 18 21  1  0  0  0
  2 10  1  0  0  0
 10 11  2  0  0  0
 11 12  1  0  0  0
 12 13  2  0  0  0
 13 14  1  0  0  0
 14 15  2  0  0  0
 14 16  1  0  0  0
 16 17  3  0  0  0
  9  1  1  0  0  0
 15 10  1  0  0  0
  9  4  1  0  0  0
 22 23  1  0  0  0
M  END
> <minimizedAffinity>
-6.57184

> <CNNscore>
0.4256445169

> <CNNaffinity>
5.3455266953

> <CNN_VS>
2.2752940655

> <CNNaffinity_variance>
0.1210269704

$$$$
[H]C#Cc1c([H])c([H])c([H])c(-c2nc3c([H])c([H])c(C(F)(F)F)c([H])n3c2N([H])C([H])(C([H])([H])[H])C([H])([H])[H])c1[H]


 26 28  0  0  0  0  0  0  0  0999 V2000
  155.6943  139.6255  183.9184 C   0  0  0  0  0  0  0  0  0  0  0  0
  156.8912  139.7765  184.4972 C   0  0  0  0  0  0  0  0  0  0  0  0
  156.8572  139.1218  185.7312 N   0  0  0  0  0  0  0  0  0  0  0  0
  155.6562  138.5867  185.8913 C   0  0  0  0  0  0  0  0  0  0  0  0
  155.1258  137.8438  186.9362 C   0  0  0  0  0  0  0  0  0  0  0  0
  153.8331  137.3814  186.8911 C   0  0  0  0  0  0  0  0  0  0  0  0
  153.0968  137.6952  185.7615 C   0  0  0  0  0  0  0  0  0  0  0  0
  153.6623  138.4296  184.7580 C   0  0  0  0  0  0  0  0  0  0  0  0
  154.9379  138.8768  184.8139 N   0  0  0  0  0  0  0  0  0  0  0  0
  158.0864  140.4941  184.1147 C   0  0  0  0  0  0  0  0  0  0  0  0
  158.6422  140.6170  182.8927 C   0  0  0  0  0  0  0  0  0  0  0  0
  159.8008  141.3354  182.6627 C   0  0  0  0  0  0  0  0  0  0  0  0
  160.4064  141.9492  183.7343 C   0  0  0  0  0  0  0  0  0  0  0  0
  159.9073  141.8780  185.0128 C   0  0  0  0  0  0  0  0  0  0  0  0
  158.7599  141.1516  185.1651 C   0  0  0  0  0  0  0  0  0  0  0  0
  160.5713  142.5295  186.1327 C   0  0  0  0  0  0  0  0  0  0  0  0
  161.1094  143.0914  187.0503 C   0  0  0  0  0  0  0  0  0  0  0  0
  151.6982  137.2062  185.6331 C   0  0  0  0  0  0  0  0  0  0  0  0
  150.9467  137.7755  186.6594 F   0  0  0  0  0  0  0  0  0  0  0  0
  151.7322  135.8433  185.7491 F   0  0  0  0  0  0  0  0  0  0  0  0
  151.1946  137.4999  184.3848 F   0  0  0  0  0  0  0  0  0  0  0  0
  155.1663  140.0329  182.7002 N   0  0  0  0  0  0  0  0  0  0  0  0
  155.1541  139.2957  181.8908 H   0  0  0  0  0  0  0  0  0  0  0  0
  154.4249  142.2831  183.4108 C   0  0  0  0  0  0  0  0  0  0  0  0
  154.6134  141.2506  182.2345 C   0  0  0  0  0  0  0  0  0  0  0  0
  153.1052  140.9194  181.9709 C   0  0  0  0  0  0  0  0  0  0  0  0
 24 25  1  0  0  0
 25 26  1  0  0  0
 25 22  1  0  0  0
 22  1  1  0  0  0
  1  2  2  0  0  0
  2  3  1  0  0  0
  3  4  2  0  0  0
  4  5  1  0  0  0
  5  6  2  0  0  0
  6  7  1  0  0  0
  7  8  2  0  0  0
  8  9  1  0  0  0
  7 18  1  0  0  0
 18 19  1  0  0  0
 18 20  1  0  0  0
 18 21  1  0  0  0
  2 10  1  0  0  0
 10 11  2  0  0  0
 11 12  1  0  0  0
 12 13  2  0  0  0
 13 14  1  0  0  0
 14 15  2  0  0  0
 14 16  1  0  0  0
 16 17  3  0  0  0
  9  1  1  0  0  0
 15 10  1  0  0  0
  9  4  1  0  0  0
 22 23  1  0  0  0
M  END
> <minimizedAffinity>
-7.69532

> <CNNscore>
0.4122878313

> <CNNaffinity>
6.1894989014

> <CNN_VS>
2.5518550873

> <CNNaffinity_variance>
0.0602030344

$$$$
[H]C#Cc1c([H])c([H])c([H])c(-c2nc3c([H])c([H])c(C(F)(F)F)c([H])n3c2N([H])C([H])(C([H])([H])[H])C([H])([H])[H])c1[H]


 26 28  0  0  0  0  0  0  0  0999 V2000
  153.6017  137.5451  184.8943 C   0  0  0  0  0  0  0  0  0  0  0  0
  154.5375  138.0457  185.7092 C   0  0  0  0  0  0  0  0  0  0  0  0
  154.9456  139.2769  185.1894 N   0  0  0  0  0  0  0  0  0  0  0  0
  154.2652  139.5112  184.0774 C   0  0  0  0  0  0  0  0  0  0  0  0
  154.3033  140.5848  183.1994 C   0  0  0  0  0  0  0  0  0  0  0  0
  153.4957  140.6200  182.0888 C   0  0  0  0  0  0  0  0  0  0  0  0
  152.6539  139.5383  181.8944 C   0  0  0  0  0  0  0  0  0  0  0  0
  152.6516  138.5038  182.7866 C   0  0  0  0  0  0  0  0  0  0  0  0
  153.4505  138.4829  183.8782 N   0  0  0  0  0  0  0  0  0  0  0  0
  155.1808  137.5372  186.8996 C   0  0  0  0  0  0  0  0  0  0  0  0
  156.0181  136.4880  187.0236 C   0  0  0  0  0  0  0  0  0  0  0  0
  156.5650  136.1016  188.2332 C   0  0  0  0  0  0  0  0  0  0  0  0
  156.2347  136.8259  189.3548 C   0  0  0  0  0  0  0  0  0  0  0  0
  155.3913  137.9104  189.3191 C   0  0  0  0  0  0  0  0  0  0  0  0
  154.8889  138.2345  188.0903 C   0  0  0  0  0  0  0  0  0  0  0  0
  155.0498  138.6564  190.5218 C   0  0  0  0  0  0  0  0  0  0  0  0
  154.7440  139.2794  191.5045 C   0  0  0  0  0  0  0  0  0  0  0  0
  151.7334  139.5203  180.7265 C   0  0  0  0  0  0  0  0  0  0  0  0
  150.8149  138.4898  180.9177 F   0  0  0  0  0  0  0  0  0  0  0  0
  152.4953  139.2968  179.6123 F   0  0  0  0  0  0  0  0  0  0  0  0
  151.1256  140.7466  180.5694 F   0  0  0  0  0  0  0  0  0  0  0  0
  152.8372  136.3859  184.9190 N   0  0  0  0  0  0  0  0  0  0  0  0
  153.0723  135.6180  184.1747 H   0  0  0  0  0  0  0  0  0  0  0  0
  151.1866  137.1156  186.6104 C   0  0  0  0  0  0  0  0  0  0  0  0
  151.7606  135.9439  185.7257 C   0  0  0  0  0  0  0  0  0  0  0  0
  152.4412  135.1063  186.8610 C   0  0  0  0  0  0  0  0  0  0  0  0
 24 25  1  0  0  0
 25 26  1  0  0  0
 25 22  1  0  0  0
 22  1  1  0  0  0
  1  2  2  0  0  0
  2  3  1  0  0  0
  3  4  2  0  0  0
  4  5  1  0  0  0
  5  6  2  0  0  0
  6  7  1  0  0  0
  7  8  2  0  0  0
  8  9  1  0  0  0
  7 18  1  0  0  0
 18 19  1  0  0  0
 18 20  1  0  0  0
 18 21  1  0  0  0
  2 10  1  0  0  0
 10 11  2  0  0  0
 11 12  1  0  0  0
 12 13  2  0  0  0
 13 14  1  0  0  0
 14 15  2  0  0  0
 14 16  1  0  0  0
 16 17  3  0  0  0
  9  1  1  0  0  0
 15 10  1  0  0  0
  9  4  1  0  0  0
 22 23  1  0  0  0
M  END
> <minimizedAffinity>
-6.81484

> <CNNscore>
0.3960968256

> <CNNaffinity>
5.3564758301

> <CNN_VS>
2.1216831207

> <CNNaffinity_variance>
0.1151187196

$$$$
[H]C#Cc1c([H])c([H])c([H])c(-c2nc3c([H])c([H])c(C(F)(F)F)c([H])n3c2N([H])C([H])(C([H])([H])[H])C([H])([H])[H])c1[H]


 26 28  0  0  0  0  0  0  0  0999 V2000
  155.8023  139.8268  184.4117 C   0  0  0  0  0  0  0  0  0  0  0  0
  155.0300  139.8430  183.3191 C   0  0  0  0  0  0  0  0  0  0  0  0
  155.6342  140.6810  182.3784 N   0  0  0  0  0  0  0  0  0  0  0  0
  156.7528  141.1621  182.8996 C   0  0  0  0  0  0  0  0  0  0  0  0
  157.7004  142.0279  182.3727 C   0  0  0  0  0  0  0  0  0  0  0  0
  158.8026  142.4002  183.1030 C   0  0  0  0  0  0  0  0  0  0  0  0
  158.9140  141.8730  184.3782 C   0  0  0  0  0  0  0  0  0  0  0  0
  157.9553  141.0240  184.8539 C   0  0  0  0  0  0  0  0  0  0  0  0
  156.8755  140.6633  184.1231 N   0  0  0  0  0  0  0  0  0  0  0  0
  153.7557  139.2371  183.0051 C   0  0  0  0  0  0  0  0  0  0  0  0
  153.0914  138.2738  183.6747 C   0  0  0  0  0  0  0  0  0  0  0  0
  151.8706  137.7753  183.2598 C   0  0  0  0  0  0  0  0  0  0  0  0
  151.3161  138.2912  182.1116 C   0  0  0  0  0  0  0  0  0  0  0  0
  151.9229  139.2757  181.3691 C   0  0  0  0  0  0  0  0  0  0  0  0
  153.1265  139.7203  181.8390 C   0  0  0  0  0  0  0  0  0  0  0  0
  151.3199  139.7999  180.1520 C   0  0  0  0  0  0  0  0  0  0  0  0
  150.8386  140.2542  179.1474 C   0  0  0  0  0  0  0  0  0  0  0  0
  160.0945  142.2126  185.2165 C   0  0  0  0  0  0  0  0  0  0  0  0
  161.1965  141.5293  184.7057 F   0  0  0  0  0  0  0  0  0  0  0  0
  159.8159  141.8075  186.4933 F   0  0  0  0  0  0  0  0  0  0  0  0
  160.2885  143.5761  185.2511 F   0  0  0  0  0  0  0  0  0  0  0  0
  155.7169  139.1654  185.6298 N   0  0  0  0  0  0  0  0  0  0  0  0
  156.3101  139.5672  186.4578 H   0  0  0  0  0  0  0  0  0  0  0  0
  153.8145  138.4254  187.0268 C   0  0  0  0  0  0  0  0  0  0  0  0
  155.0042  138.0248  186.0732 C   0  0  0  0  0  0  0  0  0  0  0  0
  155.9450  137.3657  187.1381 C   0  0  0  0  0  0  0  0  0  0  0  0
 24 25  1  0  0  0
 25 26  1  0  0  0
 25 22  1  0  0  0
 22  1  1  0  0  0
  1  2  2  0  0  0
  2  3  1  0  0  0
  3  4  2  0  0  0
  4  5  1  0  0  0
  5  6  2  0  0  0
  6  7  1  0  0  0
  7  8  2  0  0  0
  8  9  1  0  0  0
  7 18  1  0  0  0
 18 19  1  0  0  0
 18 20  1  0  0  0
 18 21  1  0  0  0
  2 10  1  0  0  0
 10 11  2  0  0  0
 11 12  1  0  0  0
 12 13  2  0  0  0
 13 14  1  0  0  0
 14 15  2  0  0  0
 14 16  1  0  0  0
 16 17  3  0  0  0
  9  1  1  0  0  0
 15 10  1  0  0  0
  9  4  1  0  0  0
 22 23  1  0  0  0
M  END
> <minimizedAffinity>
-8.07116

> <CNNscore>
0.3870818913

> <CNNaffinity>
6.2315716743

> <CNN_VS>
2.4121284485

> <CNNaffinity_variance>
0.1477683783

$$$$
[H]c1nc(-c2c([H])nc(C(F)(F)F)nc2[H])c([H])c(C([H])([H])N([H])C(=O)[C@@]2([H])N(S(=O)(=O)c3c([H])c([H])c(F)c([H])c3[H])[C@@]([H])(C([H])([H])[H])[C@]([H])(F)C2([H])[H])c1F


 39 42  0  0  0  0  0  0  0  0999 V2000
  155.6923  142.2244  182.7532 C   0  0  0  0  0  0  0  0  0  0  0  0
  154.6965  142.9432  183.1559 O   0  0  0  0  0  0  0  0  0  0  0  0
  155.3481  140.9125  182.3073 N   0  0  0  0  0  0  0  0  0  0  0  0
  156.0072  140.2332  181.9395 H   0  0  0  0  0  0  0  0  0  0  0  0
  158.1625  141.6551  180.1122 C   0  0  0  0  0  0  0  0  0  0  0  0
  158.7711  142.2015  181.4092 C   0  0  0  0  0  0  0  0  0  0  0  0
  158.6617  143.7199  181.2683 C   0  0  0  0  0  0  0  0  0  0  0  0
  159.6115  144.3341  182.0550 F   0  0  0  0  0  0  0  0  0  0  0  0
  157.2453  143.9483  181.8028 C   0  0  0  0  0  0  0  0  0  0  0  0
  157.0051  142.8847  182.8324 C   0  0  0  0  0  0  0  0  0  0  0  0
  157.9741  141.8517  182.4886 N   0  0  0  0  0  0  0  0  0  0  0  0
  158.5302  140.8672  183.7130 S   0  0  0  0  0  0  0  0  0  0  0  0
  159.1394  139.6268  183.0398 O   0  0  0  0  0  0  0  0  0  0  0  0
  157.3759  140.3435  184.5040 O   0  0  0  0  0  0  0  0  0  0  0  0
  159.6990  141.5752  184.7419 C   0  0  0  0  0  0  0  0  0  0  0  0
  160.9823  141.8033  184.3029 C   0  0  0  0  0  0  0  0  0  0  0  0
  161.9069  142.4343  185.1273 C   0  0  0  0  0  0  0  0  0  0  0  0
  161.5549  142.8341  186.4229 C   0  0  0  0  0  0  0  0  0  0  0  0
  162.4241  143.4681  187.2245 F   0  0  0  0  0  0  0  0  0  0  0  0
  160.2723  142.6049  186.8881 C   0  0  0  0  0  0  0  0  0  0  0  0
  159.3756  141.9805  186.0345 C   0  0  0  0  0  0  0  0  0  0  0  0
  153.9174  140.5770  182.3958 C   0  0  0  0  0  0  0  0  0  0  0  0
  153.5354  139.4969  183.2876 C   0  0  0  0  0  0  0  0  0  0  0  0
  153.9968  139.4038  184.6490 C   0  0  0  0  0  0  0  0  0  0  0  0
  153.8327  138.3141  185.3776 C   0  0  0  0  0  0  0  0  0  0  0  0
  153.1628  137.2272  184.7728 N   0  0  0  0  0  0  0  0  0  0  0  0
  152.7335  137.2870  183.5379 C   0  0  0  0  0  0  0  0  0  0  0  0
  152.8966  138.4042  182.7413 C   0  0  0  0  0  0  0  0  0  0  0  0
  152.4114  138.3185  181.4702 F   0  0  0  0  0  0  0  0  0  0  0  0
  154.4245  137.8339  186.6571 C   0  0  0  0  0  0  0  0  0  0  0  0
  155.7188  137.9507  187.0097 C   0  0  0  0  0  0  0  0  0  0  0  0
  156.0380  138.0593  188.3560 N   0  0  0  0  0  0  0  0  0  0  0  0
  155.1176  138.0482  189.3133 C   0  0  0  0  0  0  0  0  0  0  0  0
  153.8141  137.9120  188.9650 N   0  0  0  0  0  0  0  0  0  0  0  0
  153.4411  137.8061  187.6906 C   0  0  0  0  0  0  0  0  0  0  0  0
  155.3316  138.3634  190.7607 C   0  0  0  0  0  0  0  0  0  0  0  0
  154.8605  139.5781  191.1524 F   0  0  0  0  0  0  0  0  0  0  0  0
  156.7389  138.4242  190.9881 F   0  0  0  0  0  0  0  0  0  0  0  0
  154.9206  137.3386  191.5697 F   0  0  0  0  0  0  0  0  0  0  0  0
  5  6  1  0  0  0
  6  7  1  0  0  0
  7  8  1  0  0  0
  7  9  1  0  0  0
  9 10  1  0  0  0
 10 11  1  0  0  0
 11 12  1  0  0  0
 12 13  2  0  0  0
 12 14  2  0  0  0
 12 15  1  0  0  0
 15 16  2  0  0  0
 16 17  1  0  0  0
 17 18  2  0  0  0
 18 19  1  0  0  0
 18 20  1  0  0  0
 20 21  2  0  0  0
 10  1  1  0  0  0
  1  2  2  0  0  0
  1  3  1  0  0  0
  3 22  1  0  0  0
 22 23  1  0  0  0
 23 24  2  0  0  0
 24 25  1  0  0  0
 25 26  2  0  0  0
 26 27  1  0  0  0
 27 28  2  0  0  0
 28 29  1  0  0  0
 25 30  1  0  0  0
 30 31  2  0  0  0
 31 32  1  0  0  0
 32 33  2  0  0  0
 33 34  1  0  0  0
 34 35  2  0  0  0
 33 36  1  0  0  0
 36 37  1  0  0  0
 36 38  1  0  0  0
 36 39  1  0  0  0
 11  6  1  0  0  0
 21 15  1  0  0  0
 28 23  1  0  0  0
 35 30  1  0  0  0
  3  4  1  0  0  0
M  END
> <minimizedAffinity>
-11.85828

> <CNNscore>
0.9262968302

> <CNNaffinity>
8.4004001617

> <CNN_VS>
7.7812638283

> <CNNaffinity_variance>
0.1730267704

$$$$
[H]c1nc(-c2c([H])nc(C(F)(F)F)nc2[H])c([H])c(C([H])([H])N([H])C(=O)[C@@]2([H])N(S(=O)(=O)c3c([H])c([H])c(F)c([H])c3[H])[C@@]([H])(C([H])([H])[H])[C@]([H])(F)C2([H])[H])c1F


 39 42  0  0  0  0  0  0  0  0999 V2000
  155.5838  141.8232  183.0126 C   0  0  0  0  0  0  0  0  0  0  0  0
  154.5657  142.4261  183.5324 O   0  0  0  0  0  0  0  0  0  0  0  0
  155.3249  140.5019  182.5378 N   0  0  0  0  0  0  0  0  0  0  0  0
  156.0087  139.9043  182.0835 H   0  0  0  0  0  0  0  0  0  0  0  0
  157.9683  141.4057  180.2665 C   0  0  0  0  0  0  0  0  0  0  0  0
  158.5838  142.0451  181.5168 C   0  0  0  0  0  0  0  0  0  0  0  0
  158.3254  143.5419  181.3426 C   0  0  0  0  0  0  0  0  0  0  0  0
  159.2496  144.2651  182.0646 F   0  0  0  0  0  0  0  0  0  0  0  0
  156.9208  143.6541  181.9415 C   0  0  0  0  0  0  0  0  0  0  0  0
  156.8310  142.6044  183.0088 C   0  0  0  0  0  0  0  0  0  0  0  0
  157.8754  141.6558  182.6435 N   0  0  0  0  0  0  0  0  0  0  0  0
  158.5793  140.7646  183.8634 S   0  0  0  0  0  0  0  0  0  0  0  0
  159.3084  139.5916  183.1887 O   0  0  0  0  0  0  0  0  0  0  0  0
  157.5184  140.1246  184.6983 O   0  0  0  0  0  0  0  0  0  0  0  0
  159.6880  141.6219  184.8441 C   0  0  0  0  0  0  0  0  0  0  0  0
  159.3432  142.0282  186.1121 C   0  0  0  0  0  0  0  0  0  0  0  0
  160.2720  142.6709  186.9226 C   0  0  0  0  0  0  0  0  0  0  0  0
  161.5681  142.9308  186.4588 C   0  0  0  0  0  0  0  0  0  0  0  0
  162.4871  143.5258  187.2343 F   0  0  0  0  0  0  0  0  0  0  0  0
  161.9325  142.5397  185.1828 C   0  0  0  0  0  0  0  0  0  0  0  0
  160.9819  141.8942  184.4068 C   0  0  0  0  0  0  0  0  0  0  0  0
  153.9457  140.0258  182.7336 C   0  0  0  0  0  0  0  0  0  0  0  0
  153.7093  139.0771  183.8069 C   0  0  0  0  0  0  0  0  0  0  0  0
  154.0899  139.3281  185.1733 C   0  0  0  0  0  0  0  0  0  0  0  0
  154.0797  138.3815  186.0947 C   0  0  0  0  0  0  0  0  0  0  0  0
  153.6601  137.0935  185.6935 N   0  0  0  0  0  0  0  0  0  0  0  0
  153.3088  136.8400  184.4584 C   0  0  0  0  0  0  0  0  0  0  0  0
  153.3175  137.8003  183.4649 C   0  0  0  0  0  0  0  0  0  0  0  0
  152.9403  137.3892  182.2211 F   0  0  0  0  0  0  0  0  0  0  0  0
  154.6640  138.2691  187.4600 C   0  0  0  0  0  0  0  0  0  0  0  0
  153.9700  138.3289  188.6124 C   0  0  0  0  0  0  0  0  0  0  0  0
  154.4425  137.6302  189.7146 N   0  0  0  0  0  0  0  0  0  0  0  0
  155.5559  136.9072  189.6807 C   0  0  0  0  0  0  0  0  0  0  0  0
  156.2687  136.8588  188.5280 N   0  0  0  0  0  0  0  0  0  0  0  0
  155.8682  137.5043  187.4338 C   0  0  0  0  0  0  0  0  0  0  0  0
  156.0376  135.9605  190.7350 C   0  0  0  0  0  0  0  0  0  0  0  0
  155.0504  135.2965  191.3950 F   0  0  0  0  0  0  0  0  0  0  0  0
  156.6986  136.7290  191.7392 F   0  0  0  0  0  0  0  0  0  0  0  0
  157.0223  135.1345  190.2642 F   0  0  0  0  0  0  0  0  0  0  0  0
  5  6  1  0  0  0
  6  7  1  0  0  0
  7  8  1  0  0  0
  7  9  1  0  0  0
  9 10  1  0  0  0
 10 11  1  0  0  0
 11 12  1  0  0  0
 12 13  2  0  0  0
 12 14  2  0  0  0
 12 15  1  0  0  0
 15 16  2  0  0  0
 16 17  1  0  0  0
 17 18  2  0  0  0
 18 19  1  0  0  0
 18 20  1  0  0  0
 20 21  2  0  0  0
 10  1  1  0  0  0
  1  2  2  0  0  0
  1  3  1  0  0  0
  3 22  1  0  0  0
 22 23  1  0  0  0
 23 24  2  0  0  0
 24 25  1  0  0  0
 25 26  2  0  0  0
 26 27  1  0  0  0
 27 28  2  0  0  0
 28 29  1  0  0  0
 25 30  1  0  0  0
 30 31  2  0  0  0
 31 32  1  0  0  0
 32 33  2  0  0  0
 33 34  1  0  0  0
 34 35  2  0  0  0
 33 36  1  0  0  0
 36 37  1  0  0  0
 36 38  1  0  0  0
 36 39  1  0  0  0
 11  6  1  0  0  0
 21 15  1  0  0  0
 28 23  1  0  0  0
 35 30  1  0  0  0
  3  4  1  0  0  0
M  END
> <minimizedAffinity>
-10.98369

> <CNNscore>
0.8909803033

> <CNNaffinity>
8.1169357300

> <CNN_VS>
7.2320299149

> <CNNaffinity_variance>
0.0867453068

$$$$
[H]c1nc(-c2c([H])nc(C(F)(F)F)nc2[H])c([H])c(C([H])([H])N([H])C(=O)[C@@]2([H])N(S(=O)(=O)c3c([H])c([H])c(F)c([H])c3[H])[C@@]([H])(C([H])([H])[H])[C@]([H])(F)C2([H])[H])c1F


 39 42  0  0  0  0  0  0  0  0999 V2000
  155.6970  141.9727  182.5726 C   0  0  0  0  0  0  0  0  0  0  0  0
  154.6305  142.6842  182.4093 O   0  0  0  0  0  0  0  0  0  0  0  0
  155.4854  140.5608  182.5775 N   0  0  0  0  0  0  0  0  0  0  0  0
  156.2187  139.8646  182.6713 H   0  0  0  0  0  0  0  0  0  0  0  0
  158.4527  141.4651  180.2168 C   0  0  0  0  0  0  0  0  0  0  0  0
  158.8854  142.1346  181.5266 C   0  0  0  0  0  0  0  0  0  0  0  0
  158.6706  143.6277  181.2774 C   0  0  0  0  0  0  0  0  0  0  0  0
  159.4867  144.3645  182.1077 F   0  0  0  0  0  0  0  0  0  0  0  0
  157.1948  143.7652  181.6612 C   0  0  0  0  0  0  0  0  0  0  0  0
  156.9392  142.7457  182.7309 C   0  0  0  0  0  0  0  0  0  0  0  0
  158.0161  141.7808  182.5473 N   0  0  0  0  0  0  0  0  0  0  0  0
  158.5250  140.9189  183.8800 S   0  0  0  0  0  0  0  0  0  0  0  0
  159.0594  139.5752  183.3588 O   0  0  0  0  0  0  0  0  0  0  0  0
  157.3488  140.5584  184.7279 O   0  0  0  0  0  0  0  0  0  0  0  0
  159.7384  141.6773  184.8172 C   0  0  0  0  0  0  0  0  0  0  0  0
  159.4787  142.1045  186.0985 C   0  0  0  0  0  0  0  0  0  0  0  0
  160.4886  142.6647  186.8724 C   0  0  0  0  0  0  0  0  0  0  0  0
  161.7823  142.8193  186.3577 C   0  0  0  0  0  0  0  0  0  0  0  0
  162.7771  143.3329  187.0970 F   0  0  0  0  0  0  0  0  0  0  0  0
  162.0625  142.4058  185.0676 C   0  0  0  0  0  0  0  0  0  0  0  0
  161.0320  141.8444  184.3291 C   0  0  0  0  0  0  0  0  0  0  0  0
  154.0846  140.1375  182.4173 C   0  0  0  0  0  0  0  0  0  0  0  0
  153.5488  139.2070  183.3945 C   0  0  0  0  0  0  0  0  0  0  0  0
  154.0652  139.0933  184.7344 C   0  0  0  0  0  0  0  0  0  0  0  0
  153.7304  138.1002  185.5387 C   0  0  0  0  0  0  0  0  0  0  0  0
  152.8194  137.1430  185.0389 N   0  0  0  0  0  0  0  0  0  0  0  0
  152.3354  137.2243  183.8256 C   0  0  0  0  0  0  0  0  0  0  0  0
  152.6706  138.2409  182.9518 C   0  0  0  0  0  0  0  0  0  0  0  0
  152.1005  138.1894  181.7146 F   0  0  0  0  0  0  0  0  0  0  0  0
  154.2913  137.5772  186.8153 C   0  0  0  0  0  0  0  0  0  0  0  0
  155.2650  138.1636  187.5372 C   0  0  0  0  0  0  0  0  0  0  0  0
  155.2792  137.9821  188.9131 N   0  0  0  0  0  0  0  0  0  0  0  0
  154.3723  137.2485  189.5479 C   0  0  0  0  0  0  0  0  0  0  0  0
  153.4004  136.6404  188.8236 N   0  0  0  0  0  0  0  0  0  0  0  0
  153.3292  136.7767  187.5005 C   0  0  0  0  0  0  0  0  0  0  0  0
  154.1752  137.1582  191.0287 C   0  0  0  0  0  0  0  0  0  0  0  0
  152.9048  137.4057  191.4480 F   0  0  0  0  0  0  0  0  0  0  0  0
  154.9677  138.1781  191.6350 F   0  0  0  0  0  0  0  0  0  0  0  0
  154.6968  136.0009  191.5408 F   0  0  0  0  0  0  0  0  0  0  0  0
  5  6  1  0  0  0
  6  7  1  0  0  0
  7  8  1  0  0  0
  7  9  1  0  0  0
  9 10  1  0  0  0
 10 11  1  0  0  0
 11 12  1  0  0  0
 12 13  2  0  0  0
 12 14  2  0  0  0
 12 15  1  0  0  0
 15 16  2  0  0  0
 16 17  1  0  0  0
 17 18  2  0  0  0
 18 19  1  0  0  0
 18 20  1  0  0  0
 20 21  2  0  0  0
 10  1  1  0  0  0
  1  2  2  0  0  0
  1  3  1  0  0  0
  3 22  1  0  0  0
 22 23  1  0  0  0
 23 24  2  0  0  0
 24 25  1  0  0  0
 25 26  2  0  0  0
 26 27  1  0  0  0
 27 28  2  0  0  0
 28 29  1  0  0  0
 25 30  1  0  0  0
 30 31  2  0  0  0
 31 32  1  0  0  0
 32 33  2  0  0  0
 33 34  1  0  0  0
 34 35  2  0  0  0
 33 36  1  0  0  0
 36 37  1  0  0  0
 36 38  1  0  0  0
 36 39  1  0  0  0
 11  6  1  0  0  0
 21 15  1  0  0  0
 28 23  1  0  0  0
 35 30  1  0  0  0
  3  4  1  0  0  0
M  END
> <minimizedAffinity>
-10.88582

> <CNNscore>
0.8569175601

> <CNNaffinity>
7.9921064377

> <CNN_VS>
6.8485765457

> <CNNaffinity_variance>
0.0876948684

$$$$
[H]c1nc(-c2c([H])nc(C(F)(F)F)nc2[H])c([H])c(C([H])([H])N([H])C(=O)[C@@]2([H])N(S(=O)(=O)c3c([H])c([H])c(F)c([H])c3[H])[C@@]([H])(C([H])([H])[H])[C@]([H])(F)C2([H])[H])c1F


 39 42  0  0  0  0  0  0  0  0999 V2000
  155.6119  142.3154  182.8035 C   0  0  0  0  0  0  0  0  0  0  0  0
  154.6555  142.8927  183.4533 O   0  0  0  0  0  0  0  0  0  0  0  0
  155.2375  141.1246  182.1104 N   0  0  0  0  0  0  0  0  0  0  0  0
  155.8623  140.5667  181.5364 H   0  0  0  0  0  0  0  0  0  0  0  0
  158.1081  141.7893  180.1779 C   0  0  0  0  0  0  0  0  0  0  0  0
  158.7017  142.3290  181.4846 C   0  0  0  0  0  0  0  0  0  0  0  0
  158.5811  143.8477  181.3562 C   0  0  0  0  0  0  0  0  0  0  0  0
  159.5196  144.4624  182.1560 F   0  0  0  0  0  0  0  0  0  0  0  0
  157.1586  144.0601  181.8811 C   0  0  0  0  0  0  0  0  0  0  0  0
  156.9186  142.9854  182.8992 C   0  0  0  0  0  0  0  0  0  0  0  0
  157.8987  141.9632  182.5543 N   0  0  0  0  0  0  0  0  0  0  0  0
  158.4528  140.9724  183.7746 S   0  0  0  0  0  0  0  0  0  0  0  0
  158.9692  139.6904  183.1019 O   0  0  0  0  0  0  0  0  0  0  0  0
  157.3062  140.5237  184.6209 O   0  0  0  0  0  0  0  0  0  0  0  0
  159.6974  141.6361  184.7422 C   0  0  0  0  0  0  0  0  0  0  0  0
  160.9695  141.7983  184.2449 C   0  0  0  0  0  0  0  0  0  0  0  0
  161.9579  142.3942  185.0198 C   0  0  0  0  0  0  0  0  0  0  0  0
  161.6823  142.8249  186.3240 C   0  0  0  0  0  0  0  0  0  0  0  0
  162.6146  143.4262  187.0785 F   0  0  0  0  0  0  0  0  0  0  0  0
  160.4121  142.6619  186.8474 C   0  0  0  0  0  0  0  0  0  0  0  0
  159.4505  142.0709  186.0420 C   0  0  0  0  0  0  0  0  0  0  0  0
  153.8275  140.7298  182.2617 C   0  0  0  0  0  0  0  0  0  0  0  0
  153.5413  139.5606  183.0735 C   0  0  0  0  0  0  0  0  0  0  0  0
  154.2128  139.2868  184.3181 C   0  0  0  0  0  0  0  0  0  0  0  0
  154.1143  138.1214  184.9325 C   0  0  0  0  0  0  0  0  0  0  0  0
  153.3008  137.1381  184.3265 N   0  0  0  0  0  0  0  0  0  0  0  0
  152.6798  137.3624  183.1964 C   0  0  0  0  0  0  0  0  0  0  0  0
  152.7676  138.5635  182.5189 C   0  0  0  0  0  0  0  0  0  0  0  0
  152.0783  138.6496  181.3459 F   0  0  0  0  0  0  0  0  0  0  0  0
  154.8813  137.4697  186.0302 C   0  0  0  0  0  0  0  0  0  0  0  0
  155.6089  138.1140  186.9621 C   0  0  0  0  0  0  0  0  0  0  0  0
  155.7477  137.5391  188.2177 N   0  0  0  0  0  0  0  0  0  0  0  0
  155.1948  136.3746  188.5370 C   0  0  0  0  0  0  0  0  0  0  0  0
  154.4767  135.7124  187.5965 N   0  0  0  0  0  0  0  0  0  0  0  0
  154.3033  136.2111  186.3735 C   0  0  0  0  0  0  0  0  0  0  0  0
  155.1085  135.7730  189.9047 C   0  0  0  0  0  0  0  0  0  0  0  0
  153.8457  135.6698  190.4003 F   0  0  0  0  0  0  0  0  0  0  0  0
  155.7871  136.6460  190.8065 F   0  0  0  0  0  0  0  0  0  0  0  0
  155.8197  134.6067  189.9923 F   0  0  0  0  0  0  0  0  0  0  0  0
  5  6  1  0  0  0
  6  7  1  0  0  0
  7  8  1  0  0  0
  7  9  1  0  0  0
  9 10  1  0  0  0
 10 11  1  0  0  0
 11 12  1  0  0  0
 12 13  2  0  0  0
 12 14  2  0  0  0
 12 15  1  0  0  0
 15 16  2  0  0  0
 16 17  1  0  0  0
 17 18  2  0  0  0
 18 19  1  0  0  0
 18 20  1  0  0  0
 20 21  2  0  0  0
 10  1  1  0  0  0
  1  2  2  0  0  0
  1  3  1  0  0  0
  3 22  1  0  0  0
 22 23  1  0  0  0
 23 24  2  0  0  0
 24 25  1  0  0  0
 25 26  2  0  0  0
 26 27  1  0  0  0
 27 28  2  0  0  0
 28 29  1  0  0  0
 25 30  1  0  0  0
 30 31  2  0  0  0
 31 32  1  0  0  0
 32 33  2  0  0  0
 33 34  1  0  0  0
 34 35  2  0  0  0
 33 36  1  0  0  0
 36 37  1  0  0  0
 36 38  1  0  0  0
 36 39  1  0  0  0
 11  6  1  0  0  0
 21 15  1  0  0  0
 28 23  1  0  0  0
 35 30  1  0  0  0
  3  4  1  0  0  0
M  END
> <minimizedAffinity>
-10.60502

> <CNNscore>
0.7999386191

> <CNNaffinity>
8.0101184845

> <CNN_VS>
6.4076032639

> <CNNaffinity_variance>
0.1001744643

$$$$
[H]c1nc(-c2c([H])nc(C(F)(F)F)nc2[H])c([H])c(C([H])([H])N([H])C(=O)[C@@]2([H])N(S(=O)(=O)c3c([H])c([H])c(F)c([H])c3[H])[C@@]([H])(C([H])([H])[H])[C@]([H])(F)C2([H])[H])c1F


 39 42  0  0  0  0  0  0  0  0999 V2000
  155.4580  141.2382  183.1513 C   0  0  0  0  0  0  0  0  0  0  0  0
  155.0119  141.0419  181.9544 O   0  0  0  0  0  0  0  0  0  0  0  0
  154.8075  140.4780  184.1699 N   0  0  0  0  0  0  0  0  0  0  0  0
  155.0528  140.4984  185.1550 H   0  0  0  0  0  0  0  0  0  0  0  0
  157.9880  141.3939  180.5100 C   0  0  0  0  0  0  0  0  0  0  0  0
  158.4347  142.0497  181.8220 C   0  0  0  0  0  0  0  0  0  0  0  0
  157.9330  143.4900  181.7152 C   0  0  0  0  0  0  0  0  0  0  0  0
  158.6909  144.3121  182.5202 F   0  0  0  0  0  0  0  0  0  0  0  0
  156.5067  143.3289  182.2479 C   0  0  0  0  0  0  0  0  0  0  0  0
  156.5534  142.2158  183.2518 C   0  0  0  0  0  0  0  0  0  0  0  0
  157.7578  141.4793  182.8894 N   0  0  0  0  0  0  0  0  0  0  0  0
  158.5529  140.6456  184.0938 S   0  0  0  0  0  0  0  0  0  0  0  0
  159.2516  139.4545  183.4187 O   0  0  0  0  0  0  0  0  0  0  0  0
  157.5583  140.0282  185.0222 O   0  0  0  0  0  0  0  0  0  0  0  0
  159.7123  141.5537  184.9639 C   0  0  0  0  0  0  0  0  0  0  0  0
  159.4260  142.0552  186.2122 C   0  0  0  0  0  0  0  0  0  0  0  0
  160.3959  142.7398  186.9355 C   0  0  0  0  0  0  0  0  0  0  0  0
  161.6746  142.9456  186.4016 C   0  0  0  0  0  0  0  0  0  0  0  0
  162.6326  143.5804  187.0939 F   0  0  0  0  0  0  0  0  0  0  0  0
  161.9804  142.4585  185.1433 C   0  0  0  0  0  0  0  0  0  0  0  0
  160.9901  141.7738  184.4555 C   0  0  0  0  0  0  0  0  0  0  0  0
  153.7178  139.6067  183.7004 C   0  0  0  0  0  0  0  0  0  0  0  0
  153.7156  138.2289  184.1584 C   0  0  0  0  0  0  0  0  0  0  0  0
  153.9056  137.1082  183.2737 C   0  0  0  0  0  0  0  0  0  0  0  0
  153.6790  135.8630  183.6522 C   0  0  0  0  0  0  0  0  0  0  0  0
  153.2514  135.6598  184.9833 N   0  0  0  0  0  0  0  0  0  0  0  0
  153.0720  136.6611  185.8068 C   0  0  0  0  0  0  0  0  0  0  0  0
  153.2873  137.9771  185.4444 C   0  0  0  0  0  0  0  0  0  0  0  0
  153.0458  138.9168  186.4019 F   0  0  0  0  0  0  0  0  0  0  0  0
  153.5165  134.5782  182.9168 C   0  0  0  0  0  0  0  0  0  0  0  0
  152.4001  134.1823  182.2765 C   0  0  0  0  0  0  0  0  0  0  0  0
  152.5219  133.3526  181.1705 N   0  0  0  0  0  0  0  0  0  0  0  0
  153.6969  132.9286  180.7195 C   0  0  0  0  0  0  0  0  0  0  0  0
  154.8232  133.3091  181.3719 N   0  0  0  0  0  0  0  0  0  0  0  0
  154.7750  134.1064  182.4380 C   0  0  0  0  0  0  0  0  0  0  0  0
  153.9521  132.2118  179.4308 C   0  0  0  0  0  0  0  0  0  0  0  0
  155.2537  131.8804  179.2142 F   0  0  0  0  0  0  0  0  0  0  0  0
  153.6171  133.1006  178.3661 F   0  0  0  0  0  0  0  0  0  0  0  0
  153.0914  131.1622  179.2543 F   0  0  0  0  0  0  0  0  0  0  0  0
  5  6  1  0  0  0
  6  7  1  0  0  0
  7  8  1  0  0  0
  7  9  1  0  0  0
  9 10  1  0  0  0
 10 11  1  0  0  0
 11 12  1  0  0  0
 12 13  2  0  0  0
 12 14  2  0  0  0
 12 15  1  0  0  0
 15 16  2  0  0  0
 16 17  1  0  0  0
 17 18  2  0  0  0
 18 19  1  0  0  0
 18 20  1  0  0  0
 20 21  2  0  0  0
 10  1  1  0  0  0
  1  2  2  0  0  0
  1  3  1  0  0  0
  3 22  1  0  0  0
 22 23  1  0  0  0
 23 24  2  0  0  0
 24 25  1  0  0  0
 25 26  2  0  0  0
 26 27  1  0  0  0
 27 28  2  0  0  0
 28 29  1  0  0  0
 25 30  1  0  0  0
 30 31  2  0  0  0
 31 32  1  0  0  0
 32 33  2  0  0  0
 33 34  1  0  0  0
 34 35  2  0  0  0
 33 36  1  0  0  0
 36 37  1  0  0  0
 36 38  1  0  0  0
 36 39  1  0  0  0
 11  6  1  0  0  0
 21 15  1  0  0  0
 28 23  1  0  0  0
 35 30  1  0  0  0
  3  4  1  0  0  0
M  END
> <minimizedAffinity>
-9.45065

> <CNNscore>
0.6454877853

> <CNNaffinity>
7.4902582169

> <CNN_VS>
4.8348703384

> <CNNaffinity_variance>
0.0344944410

$$$$
[H]c1nc(-c2c([H])nc(C(F)(F)F)nc2[H])c([H])c(C([H])([H])N([H])C(=O)[C@@]2([H])N(S(=O)(=O)c3c([H])c([H])c(F)c([H])c3[H])[C@@]([H])(C([H])([H])[H])[C@]([H])(F)C2([H])[H])c1F


 39 42  0  0  0  0  0  0  0  0999 V2000
  155.7080  142.5983  182.7314 C   0  0  0  0  0  0  0  0  0  0  0  0
  154.9303  143.2660  183.5185 O   0  0  0  0  0  0  0  0  0  0  0  0
  155.0847  141.5114  182.0467 N   0  0  0  0  0  0  0  0  0  0  0  0
  155.5486  140.9048  181.3774 H   0  0  0  0  0  0  0  0  0  0  0  0
  157.8737  141.5842  179.9596 C   0  0  0  0  0  0  0  0  0  0  0  0
  158.6460  142.0947  181.1820 C   0  0  0  0  0  0  0  0  0  0  0  0
  158.7319  143.6066  180.9711 C   0  0  0  0  0  0  0  0  0  0  0  0
  159.8121  144.1159  181.6581 F   0  0  0  0  0  0  0  0  0  0  0  0
  157.4033  144.0504  181.5892 C   0  0  0  0  0  0  0  0  0  0  0  0
  157.1000  143.0737  182.6861 C   0  0  0  0  0  0  0  0  0  0  0  0
  157.8924  141.9034  182.3301 N   0  0  0  0  0  0  0  0  0  0  0  0
  158.4013  140.9033  183.5624 S   0  0  0  0  0  0  0  0  0  0  0  0
  158.9732  139.6405  182.8983 O   0  0  0  0  0  0  0  0  0  0  0  0
  157.2213  140.4225  184.3428 O   0  0  0  0  0  0  0  0  0  0  0  0
  159.5837  141.5725  184.6016 C   0  0  0  0  0  0  0  0  0  0  0  0
  160.8584  141.8263  184.1517 C   0  0  0  0  0  0  0  0  0  0  0  0
  161.7937  142.4262  184.9872 C   0  0  0  0  0  0  0  0  0  0  0  0
  161.4616  142.7677  186.3046 C   0  0  0  0  0  0  0  0  0  0  0  0
  162.3411  143.3712  187.1183 F   0  0  0  0  0  0  0  0  0  0  0  0
  160.1880  142.5117  186.7805 C   0  0  0  0  0  0  0  0  0  0  0  0
  159.2801  141.9199  185.9156 C   0  0  0  0  0  0  0  0  0  0  0  0
  153.6607  141.3088  182.3604 C   0  0  0  0  0  0  0  0  0  0  0  0
  153.1530  139.9491  182.3260 C   0  0  0  0  0  0  0  0  0  0  0  0
  152.0357  139.5497  181.5092 C   0  0  0  0  0  0  0  0  0  0  0  0
  151.4402  138.3789  181.6504 C   0  0  0  0  0  0  0  0  0  0  0  0
  151.9540  137.5073  182.6364 N   0  0  0  0  0  0  0  0  0  0  0  0
  152.9683  137.8463  183.3908 C   0  0  0  0  0  0  0  0  0  0  0  0
  153.6093  139.0655  183.2808 C   0  0  0  0  0  0  0  0  0  0  0  0
  154.6420  139.2874  184.1427 F   0  0  0  0  0  0  0  0  0  0  0  0
  150.1442  137.8205  181.1746 C   0  0  0  0  0  0  0  0  0  0  0  0
  149.5024  138.1894  180.0498 C   0  0  0  0  0  0  0  0  0  0  0  0
  148.7097  137.2567  179.3955 N   0  0  0  0  0  0  0  0  0  0  0  0
  148.5544  136.0138  179.8367 C   0  0  0  0  0  0  0  0  0  0  0  0
  149.1835  135.6425  180.9792 N   0  0  0  0  0  0  0  0  0  0  0  0
  149.9606  136.4889  181.6531 C   0  0  0  0  0  0  0  0  0  0  0  0
  147.8997  134.8831  179.1068 C   0  0  0  0  0  0  0  0  0  0  0  0
  148.7426  133.8788  178.7435 F   0  0  0  0  0  0  0  0  0  0  0  0
  147.3895  135.3974  177.8776 F   0  0  0  0  0  0  0  0  0  0  0  0
  146.7801  134.4392  179.7572 F   0  0  0  0  0  0  0  0  0  0  0  0
  5  6  1  0  0  0
  6  7  1  0  0  0
  7  8  1  0  0  0
  7  9  1  0  0  0
  9 10  1  0  0  0
 10 11  1  0  0  0
 11 12  1  0  0  0
 12 13  2  0  0  0
 12 14  2  0  0  0
 12 15  1  0  0  0
 15 16  2  0  0  0
 16 17  1  0  0  0
 17 18  2  0  0  0
 18 19  1  0  0  0
 18 20  1  0  0  0
 20 21  2  0  0  0
 10  1  1  0  0  0
  1  2  2  0  0  0
  1  3  1  0  0  0
  3 22  1  0  0  0
 22 23  1  0  0  0
 23 24  2  0  0  0
 24 25  1  0  0  0
 25 26  2  0  0  0
 26 27  1  0  0  0
 27 28  2  0  0  0
 28 29  1  0  0  0
 25 30  1  0  0  0
 30 31  2  0  0  0
 31 32  1  0  0  0
 32 33  2  0  0  0
 33 34  1  0  0  0
 34 35  2  0  0  0
 33 36  1  0  0  0
 36 37  1  0  0  0
 36 38  1  0  0  0
 36 39  1  0  0  0
 11  6  1  0  0  0
 21 15  1  0  0  0
 28 23  1  0  0  0
 35 30  1  0  0  0
  3  4  1  0  0  0
M  END
> <minimizedAffinity>
-10.27625

> <CNNscore>
0.6298607588

> <CNNaffinity>
7.3565301895

> <CNN_VS>
4.6335897446

> <CNNaffinity_variance>
0.0074898256

$$$$
[H]c1nc(-c2c([H])nc(C(F)(F)F)nc2[H])c([H])c(C([H])([H])N([H])C(=O)[C@@]2([H])N(S(=O)(=O)c3c([H])c([H])c(F)c([H])c3[H])[C@@]([H])(C([H])([H])[H])[C@]([H])(F)C2([H])[H])c1F


 39 42  0  0  0  0  0  0  0  0999 V2000
  155.5562  142.3427  182.7807 C   0  0  0  0  0  0  0  0  0  0  0  0
  154.6049  143.0110  183.3452 O   0  0  0  0  0  0  0  0  0  0  0  0
  155.1600  141.0968  182.2068 N   0  0  0  0  0  0  0  0  0  0  0  0
  155.7789  140.4648  181.7081 H   0  0  0  0  0  0  0  0  0  0  0  0
  157.9344  141.8107  180.0490 C   0  0  0  0  0  0  0  0  0  0  0  0
  158.5910  142.3136  181.3401 C   0  0  0  0  0  0  0  0  0  0  0  0
  158.4994  143.8367  181.2429 C   0  0  0  0  0  0  0  0  0  0  0  0
  159.4821  144.4164  182.0153 F   0  0  0  0  0  0  0  0  0  0  0  0
  157.1038  144.0701  181.8277 C   0  0  0  0  0  0  0  0  0  0  0  0
  156.8803  142.9825  182.8358 C   0  0  0  0  0  0  0  0  0  0  0  0
  157.8230  141.9459  182.4345 N   0  0  0  0  0  0  0  0  0  0  0  0
  158.4026  140.9213  183.6143 S   0  0  0  0  0  0  0  0  0  0  0  0
  158.9991  139.7048  182.8883 O   0  0  0  0  0  0  0  0  0  0  0  0
  157.2637  140.3703  184.4091 O   0  0  0  0  0  0  0  0  0  0  0  0
  159.5906  141.5954  184.6441 C   0  0  0  0  0  0  0  0  0  0  0  0
  160.8704  141.8217  184.1941 C   0  0  0  0  0  0  0  0  0  0  0  0
  161.8110  142.4256  185.0207 C   0  0  0  0  0  0  0  0  0  0  0  0
  161.4788  142.7993  186.3293 C   0  0  0  0  0  0  0  0  0  0  0  0
  162.3638  143.4072  187.1338 F   0  0  0  0  0  0  0  0  0  0  0  0
  160.2000  142.5714  186.8053 C   0  0  0  0  0  0  0  0  0  0  0  0
  159.2870  141.9744  185.9493 C   0  0  0  0  0  0  0  0  0  0  0  0
  153.7360  140.7593  182.3664 C   0  0  0  0  0  0  0  0  0  0  0  0
  153.4031  139.3777  182.6634 C   0  0  0  0  0  0  0  0  0  0  0  0
  152.6387  138.5457  181.7698 C   0  0  0  0  0  0  0  0  0  0  0  0
  152.1496  137.3754  182.1390 C   0  0  0  0  0  0  0  0  0  0  0  0
  152.4188  136.9498  183.4590 N   0  0  0  0  0  0  0  0  0  0  0  0
  153.1112  137.6868  184.2898 C   0  0  0  0  0  0  0  0  0  0  0  0
  153.6289  138.9205  183.9443 C   0  0  0  0  0  0  0  0  0  0  0  0
  154.3171  139.5831  184.9168 F   0  0  0  0  0  0  0  0  0  0  0  0
  151.1269  136.4599  181.5612 C   0  0  0  0  0  0  0  0  0  0  0  0
  151.1870  135.1148  181.5765 C   0  0  0  0  0  0  0  0  0  0  0  0
  150.0021  134.3926  181.6002 N   0  0  0  0  0  0  0  0  0  0  0  0
  148.8085  134.9749  181.6039 C   0  0  0  0  0  0  0  0  0  0  0  0
  148.7420  136.3289  181.5696 N   0  0  0  0  0  0  0  0  0  0  0  0
  149.8419  137.0800  181.5487 C   0  0  0  0  0  0  0  0  0  0  0  0
  147.4900  134.3059  181.8356 C   0  0  0  0  0  0  0  0  0  0  0  0
  146.9361  134.5506  183.0540 F   0  0  0  0  0  0  0  0  0  0  0  0
  147.7076  132.8961  181.8073 F   0  0  0  0  0  0  0  0  0  0  0  0
  146.6239  134.5169  180.7968 F   0  0  0  0  0  0  0  0  0  0  0  0
  5  6  1  0  0  0
  6  7  1  0  0  0
  7  8  1  0  0  0
  7  9  1  0  0  0
  9 10  1  0  0  0
 10 11  1  0  0  0
 11 12  1  0  0  0
 12 13  2  0  0  0
 12 14  2  0  0  0
 12 15  1  0  0  0
 15 16  2  0  0  0
 16 17  1  0  0  0
 17 18  2  0  0  0
 18 19  1  0  0  0
 18 20  1  0  0  0
 20 21  2  0  0  0
 10  1  1  0  0  0
  1  2  2  0  0  0
  1  3  1  0  0  0
  3 22  1  0  0  0
 22 23  1  0  0  0
 23 24  2  0  0  0
 24 25  1  0  0  0
 25 26  2  0  0  0
 26 27  1  0  0  0
 27 28  2  0  0  0
 28 29  1  0  0  0
 25 30  1  0  0  0
 30 31  2  0  0  0
 31 32  1  0  0  0
 32 33  2  0  0  0
 33 34  1  0  0  0
 34 35  2  0  0  0
 33 36  1  0  0  0
 36 37  1  0  0  0
 36 38  1  0  0  0
 36 39  1  0  0  0
 11  6  1  0  0  0
 21 15  1  0  0  0
 28 23  1  0  0  0
 35 30  1  0  0  0
  3  4  1  0  0  0
M  END
> <minimizedAffinity>
-9.57668

> <CNNscore>
0.5751561522

> <CNNaffinity>
7.3585615158

> <CNN_VS>
4.2323217392

> <CNNaffinity_variance>
0.0043377909

$$$$
[H]c1nc(-c2c([H])nc(C(F)(F)F)nc2[H])c([H])c(C([H])([H])N([H])C(=O)[C@@]2([H])N(S(=O)(=O)c3c([H])c([H])c(F)c([H])c3[H])[C@@]([H])(C([H])([H])[H])[C@]([H])(F)C2([H])[H])c1F


 39 42  0  0  0  0  0  0  0  0999 V2000
  155.5848  141.6484  182.7141 C   0  0  0  0  0  0  0  0  0  0  0  0
  155.1534  141.5342  181.5013 O   0  0  0  0  0  0  0  0  0  0  0  0
  154.8174  140.9511  183.6956 N   0  0  0  0  0  0  0  0  0  0  0  0
  155.0344  140.9199  184.6871 H   0  0  0  0  0  0  0  0  0  0  0  0
  158.2630  141.4335  180.2277 C   0  0  0  0  0  0  0  0  0  0  0  0
  158.7121  142.0540  181.5560 C   0  0  0  0  0  0  0  0  0  0  0  0
  158.4034  143.5434  181.4015 C   0  0  0  0  0  0  0  0  0  0  0  0
  159.2111  144.2798  182.2404 F   0  0  0  0  0  0  0  0  0  0  0  0
  156.9397  143.5729  181.8497 C   0  0  0  0  0  0  0  0  0  0  0  0
  156.7872  142.4828  182.8681 C   0  0  0  0  0  0  0  0  0  0  0  0
  157.9078  141.5941  182.5877 N   0  0  0  0  0  0  0  0  0  0  0  0
  158.5201  140.6914  183.8478 S   0  0  0  0  0  0  0  0  0  0  0  0
  159.1667  139.4442  183.2238 O   0  0  0  0  0  0  0  0  0  0  0  0
  157.3990  140.1627  184.6821 O   0  0  0  0  0  0  0  0  0  0  0  0
  159.6759  141.4919  184.8222 C   0  0  0  0  0  0  0  0  0  0  0  0
  160.9409  141.7520  184.3494 C   0  0  0  0  0  0  0  0  0  0  0  0
  161.8525  142.4565  185.1274 C   0  0  0  0  0  0  0  0  0  0  0  0
  161.5064  142.8994  186.4106 C   0  0  0  0  0  0  0  0  0  0  0  0
  162.3621  143.6036  187.1667 F   0  0  0  0  0  0  0  0  0  0  0  0
  160.2425  142.6394  186.9095 C   0  0  0  0  0  0  0  0  0  0  0  0
  159.3580  141.9413  186.1014 C   0  0  0  0  0  0  0  0  0  0  0  0
  153.6443  140.2296  183.1758 C   0  0  0  0  0  0  0  0  0  0  0  0
  153.5735  138.8000  183.4193 C   0  0  0  0  0  0  0  0  0  0  0  0
  152.8248  137.8981  182.5822 C   0  0  0  0  0  0  0  0  0  0  0  0
  152.5794  136.6483  182.9327 C   0  0  0  0  0  0  0  0  0  0  0  0
  153.0985  136.2107  184.1717 N   0  0  0  0  0  0  0  0  0  0  0  0
  153.7824  137.0104  184.9500 C   0  0  0  0  0  0  0  0  0  0  0  0
  154.0494  138.3262  184.6233 C   0  0  0  0  0  0  0  0  0  0  0  0
  154.7611  139.0452  185.5370 F   0  0  0  0  0  0  0  0  0  0  0  0
  151.6365  135.6075  182.4370 C   0  0  0  0  0  0  0  0  0  0  0  0
  150.5484  135.8392  181.6783 C   0  0  0  0  0  0  0  0  0  0  0  0
  150.1270  134.8550  180.7951 N   0  0  0  0  0  0  0  0  0  0  0  0
  150.7517  133.6897  180.6704 C   0  0  0  0  0  0  0  0  0  0  0  0
  151.8369  133.4438  181.4454 N   0  0  0  0  0  0  0  0  0  0  0  0
  152.2940  134.3476  182.3107 C   0  0  0  0  0  0  0  0  0  0  0  0
  150.5095  132.6558  179.6158 C   0  0  0  0  0  0  0  0  0  0  0  0
  149.2037  132.3134  179.4464 F   0  0  0  0  0  0  0  0  0  0  0  0
  151.1540  131.4526  180.0314 F   0  0  0  0  0  0  0  0  0  0  0  0
  151.1418  132.9688  178.4429 F   0  0  0  0  0  0  0  0  0  0  0  0
  5  6  1  0  0  0
  6  7  1  0  0  0
  7  8  1  0  0  0
  7  9  1  0  0  0
  9 10  1  0  0  0
 10 11  1  0  0  0
 11 12  1  0  0  0
 12 13  2  0  0  0
 12 14  2  0  0  0
 12 15  1  0  0  0
 15 16  2  0  0  0
 16 17  1  0  0  0
 17 18  2  0  0  0
 18 19  1  0  0  0
 18 20  1  0  0  0
 20 21  2  0  0  0
 10  1  1  0  0  0
  1  2  2  0  0  0
  1  3  1  0  0  0
  3 22  1  0  0  0
 22 23  1  0  0  0
 23 24  2  0  0  0
 24 25  1  0  0  0
 25 26  2  0  0  0
 26 27  1  0  0  0
 27 28  2  0  0  0
 28 29  1  0  0  0
 25 30  1  0  0  0
 30 31  2  0  0  0
 31 32  1  0  0  0
 32 33  2  0  0  0
 33 34  1  0  0  0
 34 35  2  0  0  0
 33 36  1  0  0  0
 36 37  1  0  0  0
 36 38  1  0  0  0
 36 39  1  0  0  0
 11  6  1  0  0  0
 21 15  1  0  0  0
 28 23  1  0  0  0
 35 30  1  0  0  0
  3  4  1  0  0  0
M  END
> <minimizedAffinity>
-9.48869

> <CNNscore>
0.5205015540

> <CNNaffinity>
7.2474031448

> <CNN_VS>
3.7722845078

> <CNNaffinity_variance>
0.0078889001

$$$$
[H]c1nc(-c2c([H])nc(C(F)(F)F)nc2[H])c([H])c(C([H])([H])N([H])C(=O)[C@@]2([H])N(S(=O)(=O)c3c([H])c([H])c(F)c([H])c3[H])[C@@]([H])(C([H])([H])[H])[C@]([H])(F)C2([H])[H])c1F


 39 42  0  0  0  0  0  0  0  0999 V2000
  155.5186  141.9123  183.0379 C   0  0  0  0  0  0  0  0  0  0  0  0
  154.5039  142.4678  183.6143 O   0  0  0  0  0  0  0  0  0  0  0  0
  155.2581  140.6336  182.4588 N   0  0  0  0  0  0  0  0  0  0  0  0
  155.9390  140.0770  181.9511 H   0  0  0  0  0  0  0  0  0  0  0  0
  158.1209  141.3247  180.5312 C   0  0  0  0  0  0  0  0  0  0  0  0
  158.6327  142.0448  181.7845 C   0  0  0  0  0  0  0  0  0  0  0  0
  158.3940  143.5267  181.4936 C   0  0  0  0  0  0  0  0  0  0  0  0
  159.2573  144.2970  182.2416 F   0  0  0  0  0  0  0  0  0  0  0  0
  156.9450  143.6738  181.9657 C   0  0  0  0  0  0  0  0  0  0  0  0
  156.7640  142.6947  183.0871 C   0  0  0  0  0  0  0  0  0  0  0  0
  157.8323  141.7270  182.8714 N   0  0  0  0  0  0  0  0  0  0  0  0
  158.4303  140.9179  184.2001 S   0  0  0  0  0  0  0  0  0  0  0  0
  158.9144  139.5470  183.7010 O   0  0  0  0  0  0  0  0  0  0  0  0
  157.3162  140.6076  185.1461 O   0  0  0  0  0  0  0  0  0  0  0  0
  159.7149  141.7025  185.0125 C   0  0  0  0  0  0  0  0  0  0  0  0
  159.5368  142.2365  186.2674 C   0  0  0  0  0  0  0  0  0  0  0  0
  160.6033  142.8182  186.9431 C   0  0  0  0  0  0  0  0  0  0  0  0
  161.8724  142.8860  186.3539 C   0  0  0  0  0  0  0  0  0  0  0  0
  162.9207  143.4192  186.9995 F   0  0  0  0  0  0  0  0  0  0  0  0
  162.0710  142.3642  185.0881 C   0  0  0  0  0  0  0  0  0  0  0  0
  160.9857  141.7847  184.4487 C   0  0  0  0  0  0  0  0  0  0  0  0
  153.8817  140.1393  182.6271 C   0  0  0  0  0  0  0  0  0  0  0  0
  153.7046  138.8592  183.2888 C   0  0  0  0  0  0  0  0  0  0  0  0
  152.4214  138.2201  183.4294 C   0  0  0  0  0  0  0  0  0  0  0  0
  152.2335  137.1793  184.2210 C   0  0  0  0  0  0  0  0  0  0  0  0
  153.3566  136.6932  184.9270 N   0  0  0  0  0  0  0  0  0  0  0  0
  154.5331  137.2558  184.8160 C   0  0  0  0  0  0  0  0  0  0  0  0
  154.7660  138.3521  184.0077 C   0  0  0  0  0  0  0  0  0  0  0  0
  156.0383  138.8415  184.0020 F   0  0  0  0  0  0  0  0  0  0  0  0
  151.0214  136.5113  184.7710 C   0  0  0  0  0  0  0  0  0  0  0  0
  150.9799  135.7771  185.8990 C   0  0  0  0  0  0  0  0  0  0  0  0
  149.7991  135.7357  186.6271 N   0  0  0  0  0  0  0  0  0  0  0  0
  148.7045  136.3885  186.2538 C   0  0  0  0  0  0  0  0  0  0  0  0
  148.7351  137.1143  185.1087 N   0  0  0  0  0  0  0  0  0  0  0  0
  149.8376  137.1973  184.3659 C   0  0  0  0  0  0  0  0  0  0  0  0
  147.4594  136.5782  187.0622 C   0  0  0  0  0  0  0  0  0  0  0  0
  147.6626  136.6680  188.4044 F   0  0  0  0  0  0  0  0  0  0  0  0
  146.6490  135.4165  186.8902 F   0  0  0  0  0  0  0  0  0  0  0  0
  146.6803  137.5882  186.5655 F   0  0  0  0  0  0  0  0  0  0  0  0
  5  6  1  0  0  0
  6  7  1  0  0  0
  7  8  1  0  0  0
  7  9  1  0  0  0
  9 10  1  0  0  0
 10 11  1  0  0  0
 11 12  1  0  0  0
 12 13  2  0  0  0
 12 14  2  0  0  0
 12 15  1  0  0  0
 15 16  2  0  0  0
 16 17  1  0  0  0
 17 18  2  0  0  0
 18 19  1  0  0  0
 18 20  1  0  0  0
 20 21  2  0  0  0
 10  1  1  0  0  0
  1  2  2  0  0  0
  1  3  1  0  0  0
  3 22  1  0  0  0
 22 23  1  0  0  0
 23 24  2  0  0  0
 24 25  1  0  0  0
 25 26  2  0  0  0
 26 27  1  0  0  0
 27 28  2  0  0  0
 28 29  1  0  0  0
 25 30  1  0  0  0
 30 31  2  0  0  0
 31 32  1  0  0  0
 32 33  2  0  0  0
 33 34  1  0  0  0
 34 35  2  0  0  0
 33 36  1  0  0  0
 36 37  1  0  0  0
 36 38  1  0  0  0
 36 39  1  0  0  0
 11  6  1  0  0  0
 21 15  1  0  0  0
 28 23  1  0  0  0
 35 30  1  0  0  0
  3  4  1  0  0  0
M  END
> <minimizedAffinity>
-9.60868

> <CNNscore>
0.5188453197

> <CNNaffinity>
7.1637802124

> <CNN_VS>
3.7168939114

> <CNNaffinity_variance>
0.0101677934

$$$$
[H]c1nc(N2C([H])([H])C3([H])C(F)(F)C3([H])C2([H])[H])nc([H])c1-c1nc(N([H])C(=O)[C@@]([H])(n2c([H])nc3c2c(=O)n(C([H])([H])C(=O)C([H])([H])[H])c(=O)n3C([H])([H])[H])C([H])([H])[H])c([H])s1


 41 46  0  0  0  0  0  0  0  0999 V2000
  151.7830  136.4536  191.3124 C   0  0  0  0  0  0  0  0  0  0  0  0
  152.7832  137.1666  191.0074 O   0  0  0  0  0  0  0  0  0  0  0  0
  151.1022  135.6736  190.3263 N   0  0  0  0  0  0  0  0  0  0  0  0
  150.2724  135.0988  190.6245 H   0  0  0  0  0  0  0  0  0  0  0  0
  151.5281  135.6147  188.9428 C   0  0  0  0  0  0  0  0  0  0  0  0
  152.7761  135.1214  188.6110 C   0  0  0  0  0  0  0  0  0  0  0  0
  152.7902  135.3014  186.9175 S   0  0  0  0  0  0  0  0  0  0  0  0
  151.2200  135.9906  186.7235 C   0  0  0  0  0  0  0  0  0  0  0  0
  150.7893  136.0364  187.9646 N   0  0  0  0  0  0  0  0  0  0  0  0
  150.6075  136.4052  185.4668 C   0  0  0  0  0  0  0  0  0  0  0  0
  151.3508  136.2918  184.2979 C   0  0  0  0  0  0  0  0  0  0  0  0
  150.8008  136.6919  183.1495 N   0  0  0  0  0  0  0  0  0  0  0  0
  149.5504  137.2106  183.0365 C   0  0  0  0  0  0  0  0  0  0  0  0
  148.8292  137.3199  184.1649 N   0  0  0  0  0  0  0  0  0  0  0  0
  149.3557  136.9228  185.3516 C   0  0  0  0  0  0  0  0  0  0  0  0
  149.0580  137.6178  181.7700 N   0  0  0  0  0  0  0  0  0  0  0  0
  148.3633  136.7988  180.8212 C   0  0  0  0  0  0  0  0  0  0  0  0
  148.9295  137.2571  179.5001 C   0  0  0  0  0  0  0  0  0  0  0  0
  149.4740  138.6768  179.7614 C   0  0  0  0  0  0  0  0  0  0  0  0
  149.1684  138.9409  181.2231 C   0  0  0  0  0  0  0  0  0  0  0  0
  148.3681  138.4206  178.8088 C   0  0  0  0  0  0  0  0  0  0  0  0
  147.0941  138.8126  179.1608 F   0  0  0  0  0  0  0  0  0  0  0  0
  148.6846  138.5851  177.4821 F   0  0  0  0  0  0  0  0  0  0  0  0
  152.0251  137.5771  193.3920 C   0  0  0  0  0  0  0  0  0  0  0  0
  151.2912  136.4070  192.7103 C   0  0  0  0  0  0  0  0  0  0  0  0
  151.6434  135.1348  193.3025 N   0  0  0  0  0  0  0  0  0  0  0  0
  152.7700  134.7090  193.8847 C   0  0  0  0  0  0  0  0  0  0  0  0
  152.6299  133.4342  194.3303 N   0  0  0  0  0  0  0  0  0  0  0  0
  151.3905  133.0088  194.0374 C   0  0  0  0  0  0  0  0  0  0  0  0
  150.7729  131.8262  194.2729 N   0  0  0  0  0  0  0  0  0  0  0  0
  151.4271  130.7287  194.9493 C   0  0  0  0  0  0  0  0  0  0  0  0
  149.5054  131.7041  193.8510 C   0  0  0  0  0  0  0  0  0  0  0  0
  148.8552  130.6235  194.0350 O   0  0  0  0  0  0  0  0  0  0  0  0
  148.8777  132.7205  193.2175 N   0  0  0  0  0  0  0  0  0  0  0  0
  149.4809  133.8988  192.9774 C   0  0  0  0  0  0  0  0  0  0  0  0
  148.9003  134.8392  192.3844 O   0  0  0  0  0  0  0  0  0  0  0  0
  150.7773  134.0742  193.3932 C   0  0  0  0  0  0  0  0  0  0  0  0
  147.5145  132.5755  192.7955 C   0  0  0  0  0  0  0  0  0  0  0  0
  147.4745  132.3775  191.3315 C   0  0  0  0  0  0  0  0  0  0  0  0
  148.2167  131.2552  190.7240 C   0  0  0  0  0  0  0  0  0  0  0  0
  146.8347  133.1325  190.6406 O   0  0  0  0  0  0  0  0  0  0  0  0
 24 25  1  0  0  0
 25  1  1  0  0  0
  1  2  2  0  0  0
  1  3  1  0  0  0
  3  5  1  0  0  0
  5  6  2  0  0  0
  6  7  1  0  0  0
  7  8  1  0  0  0
  8  9  2  0  0  0
  8 10  1  0  0  0
 10 11  2  0  0  0
 11 12  1  0  0  0
 12 13  2  0  0  0
 13 14  1  0  0  0
 14 15  2  0  0  0
 13 16  1  0  0  0
 16 17  1  0  0  0
 17 18  1  0  0  0
 18 19  1  0  0  0
 19 20  1  0  0  0
 19 21  1  0  0  0
 21 22  1  0  0  0
 21 23  1  0  0  0
 25 26  1  0  0  0
 26 27  1  0  0  0
 27 28  2  0  0  0
 28 29  1  0  0  0
 29 30  1  0  0  0
 30 31  1  0  0  0
 30 32  1  0  0  0
 32 33  2  0  0  0
 32 34  1  0  0  0
 34 38  1  0  0  0
 38 39  1  0  0  0
 39 40  1  0  0  0
 39 41  2  0  0  0
 34 35  1  0  0  0
 35 36  2  0  0  0
 35 37  1  0  0  0
  9  5  1  0  0  0
 15 10  1  0  0  0
 20 16  1  0  0  0
 37 26  1  0  0  0
 21 18  1  0  0  0
 37 29  2  0  0  0
  3  4  1  0  0  0
M  END
> <minimizedAffinity>
-5.67913

> <CNNscore>
0.3539166451

> <CNNaffinity>
5.8760614395

> <CNN_VS>
2.0796358585

> <CNNaffinity_variance>
0.0540639684

$$$$
[H]c1nc(N2C([H])([H])C3([H])C(F)(F)C3([H])C2([H])[H])nc([H])c1-c1nc(N([H])C(=O)[C@@]([H])(n2c([H])nc3c2c(=O)n(C([H])([H])C(=O)C([H])([H])[H])c(=O)n3C([H])([H])[H])C([H])([H])[H])c([H])s1


 41 46  0  0  0  0  0  0  0  0999 V2000
  154.1808  138.5431  184.8543 C   0  0  0  0  0  0  0  0  0  0  0  0
  153.6673  138.8954  185.9562 O   0  0  0  0  0  0  0  0  0  0  0  0
  153.4597  137.7244  183.9302 N   0  0  0  0  0  0  0  0  0  0  0  0
  153.9279  137.4523  183.0277 H   0  0  0  0  0  0  0  0  0  0  0  0
  152.1004  137.2836  184.1691 C   0  0  0  0  0  0  0  0  0  0  0  0
  151.1294  137.4382  183.1974 C   0  0  0  0  0  0  0  0  0  0  0  0
  149.7484  136.8122  183.9730 S   0  0  0  0  0  0  0  0  0  0  0  0
  150.4742  136.3916  185.4811 C   0  0  0  0  0  0  0  0  0  0  0  0
  151.7228  136.7563  185.2916 N   0  0  0  0  0  0  0  0  0  0  0  0
  149.7986  135.8005  186.6302 C   0  0  0  0  0  0  0  0  0  0  0  0
  150.4620  135.7808  187.8514 C   0  0  0  0  0  0  0  0  0  0  0  0
  149.8550  135.2198  188.8993 N   0  0  0  0  0  0  0  0  0  0  0  0
  148.6192  134.6572  188.8605 C   0  0  0  0  0  0  0  0  0  0  0  0
  147.9752  134.6762  187.6815 N   0  0  0  0  0  0  0  0  0  0  0  0
  148.5613  135.2386  186.5936 C   0  0  0  0  0  0  0  0  0  0  0  0
  148.0625  134.0753  190.0284 N   0  0  0  0  0  0  0  0  0  0  0  0
  148.7405  133.8340  191.2676 C   0  0  0  0  0  0  0  0  0  0  0  0
  148.1979  132.4926  191.6944 C   0  0  0  0  0  0  0  0  0  0  0  0
  146.8483  132.3475  190.9609 C   0  0  0  0  0  0  0  0  0  0  0  0
  146.7039  133.6319  190.1678 C   0  0  0  0  0  0  0  0  0  0  0  0
  146.9398  132.3971  192.4392 C   0  0  0  0  0  0  0  0  0  0  0  0
  146.4994  133.5317  193.0868 F   0  0  0  0  0  0  0  0  0  0  0  0
  146.6719  131.2145  193.0851 F   0  0  0  0  0  0  0  0  0  0  0  0
  156.3079  138.9490  185.8322 C   0  0  0  0  0  0  0  0  0  0  0  0
  155.5513  138.9766  184.4909 C   0  0  0  0  0  0  0  0  0  0  0  0
  155.5019  140.3093  183.9301 N   0  0  0  0  0  0  0  0  0  0  0  0
  154.4736  141.1238  183.6677 C   0  0  0  0  0  0  0  0  0  0  0  0
  154.9120  142.3080  183.1692 N   0  0  0  0  0  0  0  0  0  0  0  0
  156.2525  142.2767  183.0994 C   0  0  0  0  0  0  0  0  0  0  0  0
  157.1472  143.2029  182.6782 N   0  0  0  0  0  0  0  0  0  0  0  0
  156.7478  144.5037  182.1902 C   0  0  0  0  0  0  0  0  0  0  0  0
  158.4449  142.8676  182.7319 C   0  0  0  0  0  0  0  0  0  0  0  0
  159.3482  143.6837  182.3544 O   0  0  0  0  0  0  0  0  0  0  0  0
  158.8365  141.6558  183.1864 N   0  0  0  0  0  0  0  0  0  0  0  0
  157.9575  140.7280  183.6065 C   0  0  0  0  0  0  0  0  0  0  0  0
  158.3207  139.6019  184.0222 O   0  0  0  0  0  0  0  0  0  0  0  0
  156.6176  141.0248  183.5744 C   0  0  0  0  0  0  0  0  0  0  0  0
  160.2310  141.3275  183.2565 C   0  0  0  0  0  0  0  0  0  0  0  0
  160.7988  141.8720  184.5076 C   0  0  0  0  0  0  0  0  0  0  0  0
  162.2370  142.1981  184.5778 C   0  0  0  0  0  0  0  0  0  0  0  0
  160.0846  142.0487  185.4644 O   0  0  0  0  0  0  0  0  0  0  0  0
 24 25  1  0  0  0
 25  1  1  0  0  0
  1  2  2  0  0  0
  1  3  1  0  0  0
  3  5  1  0  0  0
  5  6  2  0  0  0
  6  7  1  0  0  0
  7  8  1  0  0  0
  8  9  2  0  0  0
  8 10  1  0  0  0
 10 11  2  0  0  0
 11 12  1  0  0  0
 12 13  2  0  0  0
 13 14  1  0  0  0
 14 15  2  0  0  0
 13 16  1  0  0  0
 16 17  1  0  0  0
 17 18  1  0  0  0
 18 19  1  0  0  0
 19 20  1  0  0  0
 19 21  1  0  0  0
 21 22  1  0  0  0
 21 23  1  0  0  0
 25 26  1  0  0  0
 26 27  1  0  0  0
 27 28  2  0  0  0
 28 29  1  0  0  0
 29 30  1  0  0  0
 30 31  1  0  0  0
 30 32  1  0  0  0
 32 33  2  0  0  0
 32 34  1  0  0  0
 34 38  1  0  0  0
 38 39  1  0  0  0
 39 40  1  0  0  0
 39 41  2  0  0  0
 34 35  1  0  0  0
 35 36  2  0  0  0
 35 37  1  0  0  0
  9  5  1  0  0  0
 15 10  1  0  0  0
 20 16  1  0  0  0
 37 26  1  0  0  0
 21 18  1  0  0  0
 37 29  2  0  0  0
  3  4  1  0  0  0
M  END
> <minimizedAffinity>
-7.25104

> <CNNscore>
0.2647203505

> <CNNaffinity>
6.2789373398

> <CNN_VS>
1.6621625423

> <CNNaffinity_variance>
0.1709803641

$$$$
[H]c1nc(N2C([H])([H])C3([H])C(F)(F)C3([H])C2([H])[H])nc([H])c1-c1nc(N([H])C(=O)[C@@]([H])(n2c([H])nc3c2c(=O)n(C([H])([H])C(=O)C([H])([H])[H])c(=O)n3C([H])([H])[H])C([H])([H])[H])c([H])s1


 41 46  0  0  0  0  0  0  0  0999 V2000
  150.8340  136.0183  186.5628 C   0  0  0  0  0  0  0  0  0  0  0  0
  151.4793  135.2690  185.7728 O   0  0  0  0  0  0  0  0  0  0  0  0
  151.4769  137.0905  187.2564 N   0  0  0  0  0  0  0  0  0  0  0  0
  150.9018  137.6854  187.9069 H   0  0  0  0  0  0  0  0  0  0  0  0
  152.8776  137.4131  187.0745 C   0  0  0  0  0  0  0  0  0  0  0  0
  153.8187  137.0112  188.0038 C   0  0  0  0  0  0  0  0  0  0  0  0
  155.2554  137.6566  187.3558 S   0  0  0  0  0  0  0  0  0  0  0  0
  154.5869  138.3987  185.9485 C   0  0  0  0  0  0  0  0  0  0  0  0
  153.3115  138.1035  186.0667 N   0  0  0  0  0  0  0  0  0  0  0  0
  155.3190  139.1580  184.9414 C   0  0  0  0  0  0  0  0  0  0  0  0
  154.6490  139.5464  183.7873 C   0  0  0  0  0  0  0  0  0  0  0  0
  155.3229  140.2216  182.8539 N   0  0  0  0  0  0  0  0  0  0  0  0
  156.6347  140.5615  182.9486 C   0  0  0  0  0  0  0  0  0  0  0  0
  157.2842  140.1884  184.0640 N   0  0  0  0  0  0  0  0  0  0  0  0
  156.6312  139.5005  185.0354 C   0  0  0  0  0  0  0  0  0  0  0  0
  157.2660  141.2724  181.8958 N   0  0  0  0  0  0  0  0  0  0  0  0
  158.3839  140.8284  181.1168 C   0  0  0  0  0  0  0  0  0  0  0  0
  159.2035  142.0845  180.9548 C   0  0  0  0  0  0  0  0  0  0  0  0
  158.2117  143.2475  181.1652 C   0  0  0  0  0  0  0  0  0  0  0  0
  156.8787  142.5718  181.4229 C   0  0  0  0  0  0  0  0  0  0  0  0
  158.9127  143.0338  179.8772 C   0  0  0  0  0  0  0  0  0  0  0  0
  158.1850  142.5686  178.8026 F   0  0  0  0  0  0  0  0  0  0  0  0
  159.8775  143.9629  179.5714 F   0  0  0  0  0  0  0  0  0  0  0  0
  148.7883  137.2200  186.6933 C   0  0  0  0  0  0  0  0  0  0  0  0
  149.3843  135.8028  186.7875 C   0  0  0  0  0  0  0  0  0  0  0  0
  149.1812  135.2212  188.0965 N   0  0  0  0  0  0  0  0  0  0  0  0
  149.1034  135.7760  189.3113 C   0  0  0  0  0  0  0  0  0  0  0  0
  148.8678  134.8318  190.2579 N   0  0  0  0  0  0  0  0  0  0  0  0
  148.7892  133.6321  189.6602 C   0  0  0  0  0  0  0  0  0  0  0  0
  148.5681  132.3947  190.1658 N   0  0  0  0  0  0  0  0  0  0  0  0
  148.3597  132.1574  191.5765 C   0  0  0  0  0  0  0  0  0  0  0  0
  148.5457  131.3742  189.2957 C   0  0  0  0  0  0  0  0  0  0  0  0
  148.3431  130.1799  189.6921 O   0  0  0  0  0  0  0  0  0  0  0  0
  148.7378  131.5779  187.9728 N   0  0  0  0  0  0  0  0  0  0  0  0
  148.9588  132.8016  187.4593 C   0  0  0  0  0  0  0  0  0  0  0  0
  149.1430  132.9894  186.2330 O   0  0  0  0  0  0  0  0  0  0  0  0
  148.9874  133.8793  188.3090 C   0  0  0  0  0  0  0  0  0  0  0  0
  148.6868  130.4745  187.0578 C   0  0  0  0  0  0  0  0  0  0  0  0
  150.0632  130.0549  186.7210 C   0  0  0  0  0  0  0  0  0  0  0  0
  150.3990  129.6948  185.3291 C   0  0  0  0  0  0  0  0  0  0  0  0
  150.9057  130.0102  187.5842 O   0  0  0  0  0  0  0  0  0  0  0  0
 24 25  1  0  0  0
 25  1  1  0  0  0
  1  2  2  0  0  0
  1  3  1  0  0  0
  3  5  1  0  0  0
  5  6  2  0  0  0
  6  7  1  0  0  0
  7  8  1  0  0  0
  8  9  2  0  0  0
  8 10  1  0  0  0
 10 11  2  0  0  0
 11 12  1  0  0  0
 12 13  2  0  0  0
 13 14  1  0  0  0
 14 15  2  0  0  0
 13 16  1  0  0  0
 16 17  1  0  0  0
 17 18  1  0  0  0
 18 19  1  0  0  0
 19 20  1  0  0  0
 19 21  1  0  0  0
 21 22  1  0  0  0
 21 23  1  0  0  0
 25 26  1  0  0  0
 26 27  1  0  0  0
 27 28  2  0  0  0
 28 29  1  0  0  0
 29 30  1  0  0  0
 30 31  1  0  0  0
 30 32  1  0  0  0
 32 33  2  0  0  0
 32 34  1  0  0  0
 34 38  1  0  0  0
 38 39  1  0  0  0
 39 40  1  0  0  0
 39 41  2  0  0  0
 34 35  1  0  0  0
 35 36  2  0  0  0
 35 37  1  0  0  0
  9  5  1  0  0  0
 15 10  1  0  0  0
 20 16  1  0  0  0
 37 26  1  0  0  0
 21 18  1  0  0  0
 37 29  2  0  0  0
  3  4  1  0  0  0
M  END
> <minimizedAffinity>
-6.29084

> <CNNscore>
0.2371222824

> <CNNaffinity>
6.3015384674

> <CNN_VS>
1.4942351580

> <CNNaffinity_variance>
0.5925455689

$$$$
[H]c1nc(N2C([H])([H])C3([H])C(F)(F)C3([H])C2([H])[H])nc([H])c1-c1nc(N([H])C(=O)[C@@]([H])(n2c([H])nc3c2c(=O)n(C([H])([H])C(=O)C([H])([H])[H])c(=O)n3C([H])([H])[H])C([H])([H])[H])c([H])s1


 41 46  0  0  0  0  0  0  0  0999 V2000
  156.7972  139.8101  183.8853 C   0  0  0  0  0  0  0  0  0  0  0  0
  156.3368  140.9233  184.2737 O   0  0  0  0  0  0  0  0  0  0  0  0
  156.1803  138.5793  184.2708 N   0  0  0  0  0  0  0  0  0  0  0  0
  156.6000  137.6771  183.9276 H   0  0  0  0  0  0  0  0  0  0  0  0
  154.9827  138.5241  185.0843 C   0  0  0  0  0  0  0  0  0  0  0  0
  153.7820  139.0115  184.6030 C   0  0  0  0  0  0  0  0  0  0  0  0
  152.7379  138.7489  185.9226 S   0  0  0  0  0  0  0  0  0  0  0  0
  153.8763  138.0396  187.0085 C   0  0  0  0  0  0  0  0  0  0  0  0
  154.9775  138.0497  186.2907 N   0  0  0  0  0  0  0  0  0  0  0  0
  153.6071  137.5862  188.3680 C   0  0  0  0  0  0  0  0  0  0  0  0
  152.5590  136.6972  188.5750 C   0  0  0  0  0  0  0  0  0  0  0  0
  152.2961  136.2985  189.8213 N   0  0  0  0  0  0  0  0  0  0  0  0
  152.9859  136.7038  190.9191 C   0  0  0  0  0  0  0  0  0  0  0  0
  154.0005  137.5621  190.7214 N   0  0  0  0  0  0  0  0  0  0  0  0
  154.2975  137.9895  189.4675 C   0  0  0  0  0  0  0  0  0  0  0  0
  152.6223  136.2305  192.2060 N   0  0  0  0  0  0  0  0  0  0  0  0
  152.8818  134.9262  192.7400 C   0  0  0  0  0  0  0  0  0  0  0  0
  151.6140  134.6113  193.4945 C   0  0  0  0  0  0  0  0  0  0  0  0
  150.9717  135.9804  193.8003 C   0  0  0  0  0  0  0  0  0  0  0  0
  151.9303  136.9940  193.2059 C   0  0  0  0  0  0  0  0  0  0  0  0
  151.4314  135.0687  194.8745 C   0  0  0  0  0  0  0  0  0  0  0  0
  152.5634  135.4081  195.5843 F   0  0  0  0  0  0  0  0  0  0  0  0
  150.4337  134.4791  195.6125 F   0  0  0  0  0  0  0  0  0  0  0  0
  159.1311  139.3744  183.9794 C   0  0  0  0  0  0  0  0  0  0  0  0
  157.9943  139.7550  183.0123 C   0  0  0  0  0  0  0  0  0  0  0  0
  158.2127  141.0532  182.4120 N   0  0  0  0  0  0  0  0  0  0  0  0
  157.8236  141.5648  181.2388 C   0  0  0  0  0  0  0  0  0  0  0  0
  158.2365  142.8520  181.1139 N   0  0  0  0  0  0  0  0  0  0  0  0
  158.9108  143.1981  182.2222 C   0  0  0  0  0  0  0  0  0  0  0  0
  159.5111  144.3598  182.5767 N   0  0  0  0  0  0  0  0  0  0  0  0
  159.5133  145.5259  181.7222 C   0  0  0  0  0  0  0  0  0  0  0  0
  160.1149  144.3951  183.7739 C   0  0  0  0  0  0  0  0  0  0  0  0
  160.7015  145.4510  184.1807 O   0  0  0  0  0  0  0  0  0  0  0  0
  160.1219  143.3142  184.5864 N   0  0  0  0  0  0  0  0  0  0  0  0
  159.5300  142.1553  184.2451 C   0  0  0  0  0  0  0  0  0  0  0  0
  159.5419  141.1512  184.9963 O   0  0  0  0  0  0  0  0  0  0  0  0
  158.8953  142.0702  183.0308 C   0  0  0  0  0  0  0  0  0  0  0  0
  160.7540  143.3821  185.8722 C   0  0  0  0  0  0  0  0  0  0  0  0
  162.0987  142.7749  185.7883 C   0  0  0  0  0  0  0  0  0  0  0  0
  162.9570  142.7279  186.9887 C   0  0  0  0  0  0  0  0  0  0  0  0
  162.4878  142.3195  184.7404 O   0  0  0  0  0  0  0  0  0  0  0  0
 24 25  1  0  0  0
 25  1  1  0  0  0
  1  2  2  0  0  0
  1  3  1  0  0  0
  3  5  1  0  0  0
  5  6  2  0  0  0
  6  7  1  0  0  0
  7  8  1  0  0  0
  8  9  2  0  0  0
  8 10  1  0  0  0
 10 11  2  0  0  0
 11 12  1  0  0  0
 12 13  2  0  0  0
 13 14  1  0  0  0
 14 15  2  0  0  0
 13 16  1  0  0  0
 16 17  1  0  0  0
 17 18  1  0  0  0
 18 19  1  0  0  0
 19 20  1  0  0  0
 19 21  1  0  0  0
 21 22  1  0  0  0
 21 23  1  0  0  0
 25 26  1  0  0  0
 26 27  1  0  0  0
 27 28  2  0  0  0
 28 29  1  0  0  0
 29 30  1  0  0  0
 30 31  1  0  0  0
 30 32  1  0  0  0
 32 33  2  0  0  0
 32 34  1  0  0  0
 34 38  1  0  0  0
 38 39  1  0  0  0
 39 40  1  0  0  0
 39 41  2  0  0  0
 34 35  1  0  0  0
 35 36  2  0  0  0
 35 37  1  0  0  0
  9  5  1  0  0  0
 15 10  1  0  0  0
 20 16  1  0  0  0
 37 26  1  0  0  0
 21 18  1  0  0  0
 37 29  2  0  0  0
  3  4  1  0  0  0
M  END
> <minimizedAffinity>
-8.83169

> <CNNscore>
0.2076992095

> <CNNaffinity>
6.5845513344

> <CNN_VS>
1.3676061630

> <CNNaffinity_variance>
0.0614316687

$$$$
[H]c1nc(N2C([H])([H])C3([H])C(F)(F)C3([H])C2([H])[H])nc([H])c1-c1nc(N([H])C(=O)[C@@]([H])(n2c([H])nc3c2c(=O)n(C([H])([H])C(=O)C([H])([H])[H])c(=O)n3C([H])([H])[H])C([H])([H])[H])c([H])s1


 41 46  0  0  0  0  0  0  0  0999 V2000
  150.8785  136.1281  186.1537 C   0  0  0  0  0  0  0  0  0  0  0  0
  150.3626  137.2611  186.3818 O   0  0  0  0  0  0  0  0  0  0  0  0
  151.9048  135.9667  185.1715 N   0  0  0  0  0  0  0  0  0  0  0  0
  152.3021  135.0051  185.0122 H   0  0  0  0  0  0  0  0  0  0  0  0
  152.4442  137.0765  184.4121 C   0  0  0  0  0  0  0  0  0  0  0  0
  151.8008  137.5304  183.2760 C   0  0  0  0  0  0  0  0  0  0  0  0
  152.8338  138.7820  182.7593 S   0  0  0  0  0  0  0  0  0  0  0  0
  154.0208  138.6610  184.0062 C   0  0  0  0  0  0  0  0  0  0  0  0
  153.5487  137.6738  184.7343 N   0  0  0  0  0  0  0  0  0  0  0  0
  155.2233  139.4756  184.1365 C   0  0  0  0  0  0  0  0  0  0  0  0
  156.1957  139.0809  185.0477 C   0  0  0  0  0  0  0  0  0  0  0  0
  157.2868  139.8371  185.1854 N   0  0  0  0  0  0  0  0  0  0  0  0
  157.5208  140.9814  184.4918 C   0  0  0  0  0  0  0  0  0  0  0  0
  156.5829  141.3643  183.6092 N   0  0  0  0  0  0  0  0  0  0  0  0
  155.4598  140.6200  183.4420 C   0  0  0  0  0  0  0  0  0  0  0  0
  158.7090  141.7228  184.7171 N   0  0  0  0  0  0  0  0  0  0  0  0
  159.6977  142.0679  183.7388 C   0  0  0  0  0  0  0  0  0  0  0  0
  160.9934  141.8948  184.4918 C   0  0  0  0  0  0  0  0  0  0  0  0
  160.6169  142.0169  185.9830 C   0  0  0  0  0  0  0  0  0  0  0  0
  159.1210  142.2661  185.9808 C   0  0  0  0  0  0  0  0  0  0  0  0
  161.5282  142.9790  185.3197 C   0  0  0  0  0  0  0  0  0  0  0  0
  161.0675  144.2539  185.0686 F   0  0  0  0  0  0  0  0  0  0  0  0
  162.8462  142.8980  185.6989 F   0  0  0  0  0  0  0  0  0  0  0  0
  149.1483  134.4996  186.1710 C   0  0  0  0  0  0  0  0  0  0  0  0
  150.4302  134.9324  186.9072 C   0  0  0  0  0  0  0  0  0  0  0  0
  150.1619  135.3012  188.2802 N   0  0  0  0  0  0  0  0  0  0  0  0
  149.0173  135.3929  188.9666 C   0  0  0  0  0  0  0  0  0  0  0  0
  149.2554  135.7470  190.2553 N   0  0  0  0  0  0  0  0  0  0  0  0
  150.5793  135.8932  190.4248 C   0  0  0  0  0  0  0  0  0  0  0  0
  151.3086  136.2312  191.5154 N   0  0  0  0  0  0  0  0  0  0  0  0
  150.7039  136.5134  192.7978 C   0  0  0  0  0  0  0  0  0  0  0  0
  152.6400  136.2946  191.3645 C   0  0  0  0  0  0  0  0  0  0  0  0
  153.3958  136.6049  192.3428 O   0  0  0  0  0  0  0  0  0  0  0  0
  153.2226  136.0330  190.1727 N   0  0  0  0  0  0  0  0  0  0  0  0
  152.5090  135.6972  189.0828 C   0  0  0  0  0  0  0  0  0  0  0  0
  153.0492  135.4606  187.9760 O   0  0  0  0  0  0  0  0  0  0  0  0
  151.1427  135.6153  189.1872 C   0  0  0  0  0  0  0  0  0  0  0  0
  154.6499  136.0846  190.0405 C   0  0  0  0  0  0  0  0  0  0  0  0
  155.0774  137.4925  189.9026 C   0  0  0  0  0  0  0  0  0  0  0  0
  156.0963  138.0414  190.8192 C   0  0  0  0  0  0  0  0  0  0  0  0
  154.5931  138.1857  189.0412 O   0  0  0  0  0  0  0  0  0  0  0  0
 24 25  1  0  0  0
 25  1  1  0  0  0
  1  2  2  0  0  0
  1  3  1  0  0  0
  3  5  1  0  0  0
  5  6  2  0  0  0
  6  7  1  0  0  0
  7  8  1  0  0  0
  8  9  2  0  0  0
  8 10  1  0  0  0
 10 11  2  0  0  0
 11 12  1  0  0  0
 12 13  2  0  0  0
 13 14  1  0  0  0
 14 15  2  0  0  0
 13 16  1  0  0  0
 16 17  1  0  0  0
 17 18  1  0  0  0
 18 19  1  0  0  0
 19 20  1  0  0  0
 19 21  1  0  0  0
 21 22  1  0  0  0
 21 23  1  0  0  0
 25 26  1  0  0  0
 26 27  1  0  0  0
 27 28  2  0  0  0
 28 29  1  0  0  0
 29 30  1  0  0  0
 30 31  1  0  0  0
 30 32  1  0  0  0
 32 33  2  0  0  0
 32 34  1  0  0  0
 34 38  1  0  0  0
 38 39  1  0  0  0
 39 40  1  0  0  0
 39 41  2  0  0  0
 34 35  1  0  0  0
 35 36  2  0  0  0
 35 37  1  0  0  0
  9  5  1  0  0  0
 15 10  1  0  0  0
 20 16  1  0  0  0
 37 26  1  0  0  0
 21 18  1  0  0  0
 37 29  2  0  0  0
  3  4  1  0  0  0
M  END
> <minimizedAffinity>
-8.01428

> <CNNscore>
0.1854282618

> <CNNaffinity>
6.3459486961

> <CNN_VS>
1.1767182350

> <CNNaffinity_variance>
0.2756453454

$$$$
[H]c1nc(N2C([H])([H])C3([H])C(F)(F)C3([H])C2([H])[H])nc([H])c1-c1nc(N([H])C(=O)[C@@]([H])(n2c([H])nc3c2c(=O)n(C([H])([H])C(=O)C([H])([H])[H])c(=O)n3C([H])([H])[H])C([H])([H])[H])c([H])s1


 41 46  0  0  0  0  0  0  0  0999 V2000
  154.1430  136.9893  190.0872 C   0  0  0  0  0  0  0  0  0  0  0  0
  155.2217  136.6056  189.5477 O   0  0  0  0  0  0  0  0  0  0  0  0
  153.0680  137.5112  189.3024 N   0  0  0  0  0  0  0  0  0  0  0  0
  152.1909  137.8222  189.7941 H   0  0  0  0  0  0  0  0  0  0  0  0
  153.1228  137.5970  187.8571 C   0  0  0  0  0  0  0  0  0  0  0  0
  152.2621  136.8501  187.0747 C   0  0  0  0  0  0  0  0  0  0  0  0
  152.7520  137.2776  185.5006 S   0  0  0  0  0  0  0  0  0  0  0  0
  154.0169  138.3746  185.9188 C   0  0  0  0  0  0  0  0  0  0  0  0
  153.9802  138.3420  187.2323 N   0  0  0  0  0  0  0  0  0  0  0  0
  154.8740  139.1003  184.9886 C   0  0  0  0  0  0  0  0  0  0  0  0
  154.2789  139.7891  183.9384 C   0  0  0  0  0  0  0  0  0  0  0  0
  155.0626  140.4352  183.0725 N   0  0  0  0  0  0  0  0  0  0  0  0
  156.4188  140.4693  183.1415 C   0  0  0  0  0  0  0  0  0  0  0  0
  156.9965  139.8053  184.1568 N   0  0  0  0  0  0  0  0  0  0  0  0
  156.2312  139.1369  185.0573 C   0  0  0  0  0  0  0  0  0  0  0  0
  157.1660  141.1767  182.1650 N   0  0  0  0  0  0  0  0  0  0  0  0
  158.5649  141.0308  181.8904 C   0  0  0  0  0  0  0  0  0  0  0  0
  159.0104  142.4502  181.6405 C   0  0  0  0  0  0  0  0  0  0  0  0
  157.7317  143.2127  181.2357 C   0  0  0  0  0  0  0  0  0  0  0  0
  156.6350  142.1659  181.2698 C   0  0  0  0  0  0  0  0  0  0  0  0
  158.8789  143.0526  180.3114 C   0  0  0  0  0  0  0  0  0  0  0  0
  158.7436  142.1971  179.2388 F   0  0  0  0  0  0  0  0  0  0  0  0
  159.5951  144.1975  180.0589 F   0  0  0  0  0  0  0  0  0  0  0  0
  155.0007  135.8466  191.9858 C   0  0  0  0  0  0  0  0  0  0  0  0
  153.9654  136.9033  191.5567 C   0  0  0  0  0  0  0  0  0  0  0  0
  152.6137  136.4819  191.8545 N   0  0  0  0  0  0  0  0  0  0  0  0
  151.5881  137.1269  192.4216 C   0  0  0  0  0  0  0  0  0  0  0  0
  150.4864  136.3349  192.4663 N   0  0  0  0  0  0  0  0  0  0  0  0
  150.7878  135.1456  191.9208 C   0  0  0  0  0  0  0  0  0  0  0  0
  150.0374  134.0336  191.7313 N   0  0  0  0  0  0  0  0  0  0  0  0
  148.6502  133.9548  192.1303 C   0  0  0  0  0  0  0  0  0  0  0  0
  150.6357  132.9852  191.1463 C   0  0  0  0  0  0  0  0  0  0  0  0
  149.9977  131.9027  190.9325 O   0  0  0  0  0  0  0  0  0  0  0  0
  151.9320  133.0416  190.7659 N   0  0  0  0  0  0  0  0  0  0  0  0
  152.6871  134.1398  190.9494 C   0  0  0  0  0  0  0  0  0  0  0  0
  153.8911  134.1897  190.6020 O   0  0  0  0  0  0  0  0  0  0  0  0
  152.1193  135.2408  191.5409 C   0  0  0  0  0  0  0  0  0  0  0  0
  152.5445  131.9162  190.1212 C   0  0  0  0  0  0  0  0  0  0  0  0
  152.0558  131.8246  188.7295 C   0  0  0  0  0  0  0  0  0  0  0  0
  152.1851  132.9882  187.8301 C   0  0  0  0  0  0  0  0  0  0  0  0
  151.5553  130.7996  188.3349 O   0  0  0  0  0  0  0  0  0  0  0  0
 24 25  1  0  0  0
 25  1  1  0  0  0
  1  2  2  0  0  0
  1  3  1  0  0  0
  3  5  1  0  0  0
  5  6  2  0  0  0
  6  7  1  0  0  0
  7  8  1  0  0  0
  8  9  2  0  0  0
  8 10  1  0  0  0
 10 11  2  0  0  0
 11 12  1  0  0  0
 12 13  2  0  0  0
 13 14  1  0  0  0
 14 15  2  0  0  0
 13 16  1  0  0  0
 16 17  1  0  0  0
 17 18  1  0  0  0
 18 19  1  0  0  0
 19 20  1  0  0  0
 19 21  1  0  0  0
 21 22  1  0  0  0
 21 23  1  0  0  0
 25 26  1  0  0  0
 26 27  1  0  0  0
 27 28  2  0  0  0
 28 29  1  0  0  0
 29 30  1  0  0  0
 30 31  1  0  0  0
 30 32  1  0  0  0
 32 33  2  0  0  0
 32 34  1  0  0  0
 34 38  1  0  0  0
 38 39  1  0  0  0
 39 40  1  0  0  0
 39 41  2  0  0  0
 34 35  1  0  0  0
 35 36  2  0  0  0
 35 37  1  0  0  0
  9  5  1  0  0  0
 15 10  1  0  0  0
 20 16  1  0  0  0
 37 26  1  0  0  0
 21 18  1  0  0  0
 37 29  2  0  0  0
  3  4  1  0  0  0
M  END
> <minimizedAffinity>
-7.34722

> <CNNscore>
0.1839165092

> <CNNaffinity>
6.1978249550

> <CNN_VS>
1.1398823261

> <CNNaffinity_variance>
0.1071950942

$$$$
[H]c1nc(N2C([H])([H])C3([H])C(F)(F)C3([H])C2([H])[H])nc([H])c1-c1nc(N([H])C(=O)[C@@]([H])(n2c([H])nc3c2c(=O)n(C([H])([H])C(=O)C([H])([H])[H])c(=O)n3C([H])([H])[H])C([H])([H])[H])c([H])s1


 41 46  0  0  0  0  0  0  0  0999 V2000
  156.3464  135.3910  189.2878 C   0  0  0  0  0  0  0  0  0  0  0  0
  157.0666  136.4145  189.4767 O   0  0  0  0  0  0  0  0  0  0  0  0
  155.1709  135.4530  188.4763 N   0  0  0  0  0  0  0  0  0  0  0  0
  154.5998  134.5779  188.3503 H   0  0  0  0  0  0  0  0  0  0  0  0
  154.7531  136.6605  187.7932 C   0  0  0  0  0  0  0  0  0  0  0  0
  153.5934  137.3142  188.1654 C   0  0  0  0  0  0  0  0  0  0  0  0
  153.5450  138.6084  187.0595 S   0  0  0  0  0  0  0  0  0  0  0  0
  154.9912  138.2508  186.1884 C   0  0  0  0  0  0  0  0  0  0  0  0
  155.4150  137.1676  186.8006 N   0  0  0  0  0  0  0  0  0  0  0  0
  155.5281  139.0017  185.0595 C   0  0  0  0  0  0  0  0  0  0  0  0
  156.8645  139.3823  185.0920 C   0  0  0  0  0  0  0  0  0  0  0  0
  157.3525  140.0893  184.0706 N   0  0  0  0  0  0  0  0  0  0  0  0
  156.6293  140.4714  182.9860 C   0  0  0  0  0  0  0  0  0  0  0  0
  155.3376  140.1034  182.9515 N   0  0  0  0  0  0  0  0  0  0  0  0
  154.8064  139.3833  183.9726 C   0  0  0  0  0  0  0  0  0  0  0  0
  157.2371  141.2323  181.9544 N   0  0  0  0  0  0  0  0  0  0  0  0
  158.3358  140.8260  181.1289 C   0  0  0  0  0  0  0  0  0  0  0  0
  159.1534  142.0880  181.0089 C   0  0  0  0  0  0  0  0  0  0  0  0
  158.1687  143.2400  181.2986 C   0  0  0  0  0  0  0  0  0  0  0  0
  156.8411  142.5532  181.5544 C   0  0  0  0  0  0  0  0  0  0  0  0
  158.8392  143.0886  179.9857 C   0  0  0  0  0  0  0  0  0  0  0  0
  158.0858  142.6766  178.9072 F   0  0  0  0  0  0  0  0  0  0  0  0
  159.7981  144.0310  179.7029 F   0  0  0  0  0  0  0  0  0  0  0  0
  157.1086  134.4738  191.3429 C   0  0  0  0  0  0  0  0  0  0  0  0
  156.7086  134.0925  189.9051 C   0  0  0  0  0  0  0  0  0  0  0  0
  157.8135  133.5055  189.1786 N   0  0  0  0  0  0  0  0  0  0  0  0
  159.1351  133.5597  189.3784 C   0  0  0  0  0  0  0  0  0  0  0  0
  159.7932  132.8171  188.4518 N   0  0  0  0  0  0  0  0  0  0  0  0
  158.8926  132.2629  187.6245 C   0  0  0  0  0  0  0  0  0  0  0  0
  159.0461  131.4465  186.5542 N   0  0  0  0  0  0  0  0  0  0  0  0
  160.3429  131.0015  186.0957 C   0  0  0  0  0  0  0  0  0  0  0  0
  157.9310  131.0534  185.9206 C   0  0  0  0  0  0  0  0  0  0  0  0
  157.9909  130.2848  184.9056 O   0  0  0  0  0  0  0  0  0  0  0  0
  156.7099  131.4591  186.3362 N   0  0  0  0  0  0  0  0  0  0  0  0
  156.5451  132.2700  187.3969 C   0  0  0  0  0  0  0  0  0  0  0  0
  155.4127  132.6510  187.7783 O   0  0  0  0  0  0  0  0  0  0  0  0
  157.6559  132.6970  188.0810 C   0  0  0  0  0  0  0  0  0  0  0  0
  155.5298  131.0076  185.6573 C   0  0  0  0  0  0  0  0  0  0  0  0
  155.0656  132.0613  184.7309 C   0  0  0  0  0  0  0  0  0  0  0  0
  153.6648  132.5236  184.7906 C   0  0  0  0  0  0  0  0  0  0  0  0
  155.8336  132.5395  183.9319 O   0  0  0  0  0  0  0  0  0  0  0  0
 24 25  1  0  0  0
 25  1  1  0  0  0
  1  2  2  0  0  0
  1  3  1  0  0  0
  3  5  1  0  0  0
  5  6  2  0  0  0
  6  7  1  0  0  0
  7  8  1  0  0  0
  8  9  2  0  0  0
  8 10  1  0  0  0
 10 11  2  0  0  0
 11 12  1  0  0  0
 12 13  2  0  0  0
 13 14  1  0  0  0
 14 15  2  0  0  0
 13 16  1  0  0  0
 16 17  1  0  0  0
 17 18  1  0  0  0
 18 19  1  0  0  0
 19 20  1  0  0  0
 19 21  1  0  0  0
 21 22  1  0  0  0
 21 23  1  0  0  0
 25 26  1  0  0  0
 26 27  1  0  0  0
 27 28  2  0  0  0
 28 29  1  0  0  0
 29 30  1  0  0  0
 30 31  1  0  0  0
 30 32  1  0  0  0
 32 33  2  0  0  0
 32 34  1  0  0  0
 34 38  1  0  0  0
 38 39  1  0  0  0
 39 40  1  0  0  0
 39 41  2  0  0  0
 34 35  1  0  0  0
 35 36  2  0  0  0
 35 37  1  0  0  0
  9  5  1  0  0  0
 15 10  1  0  0  0
 20 16  1  0  0  0
 37 26  1  0  0  0
 21 18  1  0  0  0
 37 29  2  0  0  0
  3  4  1  0  0  0
M  END
> <minimizedAffinity>
-7.42575

> <CNNscore>
0.1789783388

> <CNNaffinity>
6.2849440575

> <CNN_VS>
1.1248688698

> <CNNaffinity_variance>
0.2124499530

$$$$
[H]c1nc(N2C([H])([H])C3([H])C(F)(F)C3([H])C2([H])[H])nc([H])c1-c1nc(N([H])C(=O)[C@@]([H])(n2c([H])nc3c2c(=O)n(C([H])([H])C(=O)C([H])([H])[H])c(=O)n3C([H])([H])[H])C([H])([H])[H])c([H])s1


 41 46  0  0  0  0  0  0  0  0999 V2000
  155.7944  135.2750  189.2574 C   0  0  0  0  0  0  0  0  0  0  0  0
  156.1759  134.7451  188.1731 O   0  0  0  0  0  0  0  0  0  0  0  0
  154.9972  136.4619  189.2605 N   0  0  0  0  0  0  0  0  0  0  0  0
  154.7064  136.8702  190.1860 H   0  0  0  0  0  0  0  0  0  0  0  0
  154.5448  137.1051  188.0437 C   0  0  0  0  0  0  0  0  0  0  0  0
  153.2259  137.0036  187.6425 C   0  0  0  0  0  0  0  0  0  0  0  0
  153.2310  137.8784  186.1813 S   0  0  0  0  0  0  0  0  0  0  0  0
  154.8985  138.3222  186.1582 C   0  0  0  0  0  0  0  0  0  0  0  0
  155.3400  137.7737  187.2682 N   0  0  0  0  0  0  0  0  0  0  0  0
  155.5723  139.0973  185.1229 C   0  0  0  0  0  0  0  0  0  0  0  0
  154.8335  139.5182  184.0236 C   0  0  0  0  0  0  0  0  0  0  0  0
  155.4530  140.2082  183.0636 N   0  0  0  0  0  0  0  0  0  0  0  0
  156.7719  140.5334  183.0807 C   0  0  0  0  0  0  0  0  0  0  0  0
  157.4879  140.1289  184.1431 N   0  0  0  0  0  0  0  0  0  0  0  0
  156.8915  139.4252  185.1393 C   0  0  0  0  0  0  0  0  0  0  0  0
  157.3416  141.2622  182.0052 N   0  0  0  0  0  0  0  0  0  0  0  0
  158.3761  140.8109  181.1221 C   0  0  0  0  0  0  0  0  0  0  0  0
  159.2251  142.0441  180.9375 C   0  0  0  0  0  0  0  0  0  0  0  0
  158.2965  143.2308  181.2691 C   0  0  0  0  0  0  0  0  0  0  0  0
  156.9650  142.5907  181.6114 C   0  0  0  0  0  0  0  0  0  0  0  0
  158.8831  143.0426  179.9212 C   0  0  0  0  0  0  0  0  0  0  0  0
  158.0546  142.6431  178.8943 F   0  0  0  0  0  0  0  0  0  0  0  0
  159.8532  143.9499  179.5701 F   0  0  0  0  0  0  0  0  0  0  0  0
  157.6190  134.2113  190.3459 C   0  0  0  0  0  0  0  0  0  0  0  0
  156.1649  134.6718  190.5601 C   0  0  0  0  0  0  0  0  0  0  0  0
  155.2855  133.5581  190.8425 N   0  0  0  0  0  0  0  0  0  0  0  0
  155.3193  132.2796  190.4503 C   0  0  0  0  0  0  0  0  0  0  0  0
  154.2924  131.5805  190.9978 N   0  0  0  0  0  0  0  0  0  0  0  0
  153.5662  132.4099  191.7642 C   0  0  0  0  0  0  0  0  0  0  0  0
  152.4576  132.1942  192.5126 N   0  0  0  0  0  0  0  0  0  0  0  0
  151.8248  130.8980  192.6086 C   0  0  0  0  0  0  0  0  0  0  0  0
  151.9560  133.2449  193.1786 C   0  0  0  0  0  0  0  0  0  0  0  0
  150.9157  133.1239  193.9049 O   0  0  0  0  0  0  0  0  0  0  0  0
  152.5355  134.4642  193.1011 N   0  0  0  0  0  0  0  0  0  0  0  0
  153.6358  134.6907  192.3609 C   0  0  0  0  0  0  0  0  0  0  0  0
  154.1694  135.8231  192.2844 O   0  0  0  0  0  0  0  0  0  0  0  0
  154.1892  133.6460  191.6632 C   0  0  0  0  0  0  0  0  0  0  0  0
  151.9951  135.5683  193.8403 C   0  0  0  0  0  0  0  0  0  0  0  0
  150.7617  136.0426  193.1785 C   0  0  0  0  0  0  0  0  0  0  0  0
  150.8441  136.6914  191.8549 C   0  0  0  0  0  0  0  0  0  0  0  0
  149.6940  135.8959  193.7220 O   0  0  0  0  0  0  0  0  0  0  0  0
 24 25  1  0  0  0
 25  1  1  0  0  0
  1  2  2  0  0  0
  1  3  1  0  0  0
  3  5  1  0  0  0
  5  6  2  0  0  0
  6  7  1  0  0  0
  7  8  1  0  0  0
  8  9  2  0  0  0
  8 10  1  0  0  0
 10 11  2  0  0  0
 11 12  1  0  0  0
 12 13  2  0  0  0
 13 14  1  0  0  0
 14 15  2  0  0  0
 13 16  1  0  0  0
 16 17  1  0  0  0
 17 18  1  0  0  0
 18 19  1  0  0  0
 19 20  1  0  0  0
 19 21  1  0  0  0
 21 22  1  0  0  0
 21 23  1  0  0  0
 25 26  1  0  0  0
 26 27  1  0  0  0
 27 28  2  0  0  0
 28 29  1  0  0  0
 29 30  1  0  0  0
 30 31  1  0  0  0
 30 32  1  0  0  0
 32 33  2  0  0  0
 32 34  1  0  0  0
 34 38  1  0  0  0
 38 39  1  0  0  0
 39 40  1  0  0  0
 39 41  2  0  0  0
 34 35  1  0  0  0
 35 36  2  0  0  0
 35 37  1  0  0  0
  9  5  1  0  0  0
 15 10  1  0  0  0
 20 16  1  0  0  0
 37 26  1  0  0  0
 21 18  1  0  0  0
 37 29  2  0  0  0
  3  4  1  0  0  0
M  END
> <minimizedAffinity>
-8.19149

> <CNNscore>
0.1764897108

> <CNNaffinity>
6.2092447281

> <CNN_VS>
1.0958677530

> <CNNaffinity_variance>
0.0918088034

$$$$
[H]c1nc(N2C([H])([H])C3([H])C(F)(F)C3([H])C2([H])[H])nc([H])c1-c1nc(N([H])C(=O)[C@@]([H])(n2c([H])nc3c2c(=O)n(C([H])([H])C(=O)C([H])([H])[H])c(=O)n3C([H])([H])[H])C([H])([H])[H])c([H])s1


 41 46  0  0  0  0  0  0  0  0999 V2000
  154.5897  137.4606  189.2753 C   0  0  0  0  0  0  0  0  0  0  0  0
  155.6588  137.9778  188.8377 O   0  0  0  0  0  0  0  0  0  0  0  0
  153.4820  137.2059  188.4079 N   0  0  0  0  0  0  0  0  0  0  0  0
  152.6113  136.7782  188.8162 H   0  0  0  0  0  0  0  0  0  0  0  0
  153.5213  137.4797  186.9857 C   0  0  0  0  0  0  0  0  0  0  0  0
  152.7231  136.7681  186.1098 C   0  0  0  0  0  0  0  0  0  0  0  0
  153.1661  137.4330  184.6058 S   0  0  0  0  0  0  0  0  0  0  0  0
  154.3354  138.5714  185.1672 C   0  0  0  0  0  0  0  0  0  0  0  0
  154.3088  138.3685  186.4657 N   0  0  0  0  0  0  0  0  0  0  0  0
  155.1225  139.4800  184.3419 C   0  0  0  0  0  0  0  0  0  0  0  0
  156.4191  139.7828  184.7405 C   0  0  0  0  0  0  0  0  0  0  0  0
  157.1336  140.6320  183.9992 N   0  0  0  0  0  0  0  0  0  0  0  0
  156.6810  141.2324  182.8678 C   0  0  0  0  0  0  0  0  0  0  0  0
  155.4283  140.9402  182.4796 N   0  0  0  0  0  0  0  0  0  0  0  0
  154.6717  140.0804  183.2086 C   0  0  0  0  0  0  0  0  0  0  0  0
  157.5148  142.1304  182.1533 N   0  0  0  0  0  0  0  0  0  0  0  0
  157.0848  143.2071  181.3109 C   0  0  0  0  0  0  0  0  0  0  0  0
  158.0600  143.1475  180.1615 C   0  0  0  0  0  0  0  0  0  0  0  0
  159.2994  142.4154  180.7169 C   0  0  0  0  0  0  0  0  0  0  0  0
  158.9506  142.1148  182.1618 C   0  0  0  0  0  0  0  0  0  0  0  0
  159.3592  143.8196  180.2470 C   0  0  0  0  0  0  0  0  0  0  0  0
  159.4937  144.8209  181.1850 F   0  0  0  0  0  0  0  0  0  0  0  0
  160.0496  144.0191  179.0761 F   0  0  0  0  0  0  0  0  0  0  0  0
  155.6506  137.8185  191.3710 C   0  0  0  0  0  0  0  0  0  0  0  0
  154.4602  137.1005  190.7077 C   0  0  0  0  0  0  0  0  0  0  0  0
  154.5514  135.6640  190.8532 N   0  0  0  0  0  0  0  0  0  0  0  0
  155.2877  134.7520  190.2084 C   0  0  0  0  0  0  0  0  0  0  0  0
  155.0669  133.5108  190.7122 N   0  0  0  0  0  0  0  0  0  0  0  0
  154.1690  133.6024  191.7063 C   0  0  0  0  0  0  0  0  0  0  0  0
  153.6293  132.6569  192.5127 N   0  0  0  0  0  0  0  0  0  0  0  0
  153.9796  131.2579  192.4127 C   0  0  0  0  0  0  0  0  0  0  0  0
  152.7413  133.0700  193.4293 C   0  0  0  0  0  0  0  0  0  0  0  0
  152.1893  132.2422  194.2260 O   0  0  0  0  0  0  0  0  0  0  0  0
  152.4026  134.3746  193.5375 N   0  0  0  0  0  0  0  0  0  0  0  0
  152.9312  135.3221  192.7421 C   0  0  0  0  0  0  0  0  0  0  0  0
  152.6123  136.5312  192.8387 O   0  0  0  0  0  0  0  0  0  0  0  0
  153.8477  134.9499  191.7903 C   0  0  0  0  0  0  0  0  0  0  0  0
  151.4679  134.7966  194.5403 C   0  0  0  0  0  0  0  0  0  0  0  0
  150.1178  134.8810  193.9454 C   0  0  0  0  0  0  0  0  0  0  0  0
  149.3174  133.6530  193.7689 C   0  0  0  0  0  0  0  0  0  0  0  0
  149.6757  135.9524  193.6085 O   0  0  0  0  0  0  0  0  0  0  0  0
 24 25  1  0  0  0
 25  1  1  0  0  0
  1  2  2  0  0  0
  1  3  1  0  0  0
  3  5  1  0  0  0
  5  6  2  0  0  0
  6  7  1  0  0  0
  7  8  1  0  0  0
  8  9  2  0  0  0
  8 10  1  0  0  0
 10 11  2  0  0  0
 11 12  1  0  0  0
 12 13  2  0  0  0
 13 14  1  0  0  0
 14 15  2  0  0  0
 13 16  1  0  0  0
 16 17  1  0  0  0
 17 18  1  0  0  0
 18 19  1  0  0  0
 19 20  1  0  0  0
 19 21  1  0  0  0
 21 22  1  0  0  0
 21 23  1  0  0  0
 25 26  1  0  0  0
 26 27  1  0  0  0
 27 28  2  0  0  0
 28 29  1  0  0  0
 29 30  1  0  0  0
 30 31  1  0  0  0
 30 32  1  0  0  0
 32 33  2  0  0  0
 32 34  1  0  0  0
 34 38  1  0  0  0
 38 39  1  0  0  0
 39 40  1  0  0  0
 39 41  2  0  0  0
 34 35  1  0  0  0
 35 36  2  0  0  0
 35 37  1  0  0  0
  9  5  1  0  0  0
 15 10  1  0  0  0
 20 16  1  0  0  0
 37 26  1  0  0  0
 21 18  1  0  0  0
 37 29  2  0  0  0
  3  4  1  0  0  0
M  END
> <minimizedAffinity>
-8.65184

> <CNNscore>
0.1755864918

> <CNNaffinity>
6.2550969124

> <CNN_VS>
1.0983104706

> <CNNaffinity_variance>
0.0252553932

$$$$
[H]c1nc2c(c(=O)n(C([H])([H])C(=O)C([H])([H])C([H])([H])[H])c(=O)n2C([H])([H])[H])n1[C@]([H])(C(=O)N([H])[H])C([H])([H])[H]


 24 25  0  0  0  0  0  0  0  0999 V2000
  153.6365  135.7384  190.7551 N   0  0  0  0  0  0  0  0  0  0  0  0
  154.7608  136.4187  191.0682 C   0  0  0  0  0  0  0  0  0  0  0  0
  155.2232  136.2573  192.2382 O   0  0  0  0  0  0  0  0  0  0  0  0
  155.3513  137.2261  190.1694 N   0  0  0  0  0  0  0  0  0  0  0  0
  156.5615  137.9493  190.5279 C   0  0  0  0  0  0  0  0  0  0  0  0
  154.7914  137.3387  188.9481 C   0  0  0  0  0  0  0  0  0  0  0  0
  155.1828  138.0666  187.8995 N   0  0  0  0  0  0  0  0  0  0  0  0
  154.3119  137.8537  186.9164 C   0  0  0  0  0  0  0  0  0  0  0  0
  153.3454  136.9957  187.2911 N   0  0  0  0  0  0  0  0  0  0  0  0
  153.6469  136.6707  188.5706 C   0  0  0  0  0  0  0  0  0  0  0  0
  153.0730  135.8533  189.5217 C   0  0  0  0  0  0  0  0  0  0  0  0
  152.0471  135.2229  189.2579 O   0  0  0  0  0  0  0  0  0  0  0  0
  152.2446  136.5318  186.5134 C   0  0  0  0  0  0  0  0  0  0  0  0
  150.9829  137.3171  186.6125 C   0  0  0  0  0  0  0  0  0  0  0  0
  152.6095  136.1181  185.1227 C   0  0  0  0  0  0  0  0  0  0  0  0
  153.4088  134.9701  184.9629 N   0  0  0  0  0  0  0  0  0  0  0  0
  152.2009  136.7920  184.1754 O   0  0  0  0  0  0  0  0  0  0  0  0
  154.2914  134.8779  185.4853 H   0  0  0  0  0  0  0  0  0  0  0  0
  153.1049  134.2223  184.3191 H   0  0  0  0  0  0  0  0  0  0  0  0
  152.9837  134.8707  191.6994 C   0  0  0  0  0  0  0  0  0  0  0  0
  152.2057  135.5966  192.7083 C   0  0  0  0  0  0  0  0  0  0  0  0
  151.3762  136.4260  192.3825 O   0  0  0  0  0  0  0  0  0  0  0  0
  152.1553  133.8895  194.5298 C   0  0  0  0  0  0  0  0  0  0  0  0
  152.4128  135.3360  194.1493 C   0  0  0  0  0  0  0  0  0  0  0  0
 23 24  1  0  0  0
 24 21  1  0  0  0
 21 22  2  0  0  0
 21 20  1  0  0  0
 20  1  1  0  0  0
  1  2  1  0  0  0
  2  3  2  0  0  0
  2  4  1  0  0  0
  4  5  1  0  0  0
  4  6  1  0  0  0
  6  7  1  0  0  0
  7  8  2  0  0  0
  8  9  1  0  0  0
  9 13  1  0  0  0
 13 14  1  0  0  0
 13 15  1  0  0  0
 15 16  1  0  0  0
 15 17  2  0  0  0
  9 10  1  0  0  0
 10 11  1  0  0  0
 11 12  2  0  0  0
 11  1  1  0  0  0
 10  6  2  0  0  0
 16 18  1  0  0  0
 16 19  1  0  0  0
M  END
> <minimizedAffinity>
-3.58341

> <CNNscore>
0.6321921349

> <CNNaffinity>
4.7194147110

> <CNN_VS>
2.9835767746

> <CNNaffinity_variance>
0.0613482296

$$$$
[H]c1nc2c(c(=O)n(C([H])([H])C(=O)C([H])([H])C([H])([H])[H])c(=O)n2C([H])([H])[H])n1[C@]([H])(C(=O)N([H])[H])C([H])([H])[H]


 24 25  0  0  0  0  0  0  0  0999 V2000
  155.9735  135.3671  188.9091 N   0  0  0  0  0  0  0  0  0  0  0  0
  155.9841  136.2249  189.9527 C   0  0  0  0  0  0  0  0  0  0  0  0
  156.6812  135.8959  190.9600 O   0  0  0  0  0  0  0  0  0  0  0  0
  155.2827  137.3714  189.9103 N   0  0  0  0  0  0  0  0  0  0  0  0
  155.3083  138.2806  191.0455 C   0  0  0  0  0  0  0  0  0  0  0  0
  154.5687  137.6419  188.7990 C   0  0  0  0  0  0  0  0  0  0  0  0
  153.8018  138.6986  188.5200 N   0  0  0  0  0  0  0  0  0  0  0  0
  153.3007  138.5190  187.3006 C   0  0  0  0  0  0  0  0  0  0  0  0
  153.7201  137.3601  186.7608 N   0  0  0  0  0  0  0  0  0  0  0  0
  154.5190  136.8071  187.7039 C   0  0  0  0  0  0  0  0  0  0  0  0
  155.2523  135.6420  187.7882 C   0  0  0  0  0  0  0  0  0  0  0  0
  155.2574  134.8450  186.8480 O   0  0  0  0  0  0  0  0  0  0  0  0
  153.3942  136.8294  185.4786 C   0  0  0  0  0  0  0  0  0  0  0  0
  152.0875  136.1237  185.3639 C   0  0  0  0  0  0  0  0  0  0  0  0
  153.7044  137.7481  184.3394 C   0  0  0  0  0  0  0  0  0  0  0  0
  152.6631  138.0716  183.4487 N   0  0  0  0  0  0  0  0  0  0  0  0
  154.8510  138.1842  184.2225 O   0  0  0  0  0  0  0  0  0  0  0  0
  152.1028  137.3244  183.0151 H   0  0  0  0  0  0  0  0  0  0  0  0
  152.4651  139.0619  183.2332 H   0  0  0  0  0  0  0  0  0  0  0  0
  156.7127  134.1327  188.9305 C   0  0  0  0  0  0  0  0  0  0  0  0
  158.1382  134.3082  188.6354 C   0  0  0  0  0  0  0  0  0  0  0  0
  158.5052  135.0217  187.7197 O   0  0  0  0  0  0  0  0  0  0  0  0
  158.5769  132.8623  190.6233 C   0  0  0  0  0  0  0  0  0  0  0  0
  159.1651  133.6194  189.4467 C   0  0  0  0  0  0  0  0  0  0  0  0
 23 24  1  0  0  0
 24 21  1  0  0  0
 21 22  2  0  0  0
 21 20  1  0  0  0
 20  1  1  0  0  0
  1  2  1  0  0  0
  2  3  2  0  0  0
  2  4  1  0  0  0
  4  5  1  0  0  0
  4  6  1  0  0  0
  6  7  1  0  0  0
  7  8  2  0  0  0
  8  9  1  0  0  0
  9 13  1  0  0  0
 13 14  1  0  0  0
 13 15  1  0  0  0
 15 16  1  0  0  0
 15 17  2  0  0  0
  9 10  1  0  0  0
 10 11  1  0  0  0
 11 12  2  0  0  0
 11  1  1  0  0  0
 10  6  2  0  0  0
 16 18  1  0  0  0
 16 19  1  0  0  0
M  END
> <minimizedAffinity>
-4.00410

> <CNNscore>
0.5885937214

> <CNNaffinity>
4.5503425598

> <CNN_VS>
2.6783030033

> <CNNaffinity_variance>
0.1650070548

$$$$
[H]c1nc2c(c(=O)n(C([H])([H])C(=O)C([H])([H])C([H])([H])[H])c(=O)n2C([H])([H])[H])n1[C@]([H])(C(=O)N([H])[H])C([H])([H])[H]


 24 25  0  0  0  0  0  0  0  0999 V2000
  157.7210  141.1395  183.2111 N   0  0  0  0  0  0  0  0  0  0  0  0
  157.1118  142.1688  182.5830 C   0  0  0  0  0  0  0  0  0  0  0  0
  156.0094  141.9195  182.0076 O   0  0  0  0  0  0  0  0  0  0  0  0
  157.6617  143.3960  182.5773 N   0  0  0  0  0  0  0  0  0  0  0  0
  156.9885  144.4901  181.8946 C   0  0  0  0  0  0  0  0  0  0  0  0
  158.8367  143.5717  183.2146 C   0  0  0  0  0  0  0  0  0  0  0  0
  159.5721  144.6781  183.3480 N   0  0  0  0  0  0  0  0  0  0  0  0
  160.6500  144.3592  184.0599 C   0  0  0  0  0  0  0  0  0  0  0  0
  160.6467  143.0584  184.4040 N   0  0  0  0  0  0  0  0  0  0  0  0
  159.5048  142.5617  183.8721 C   0  0  0  0  0  0  0  0  0  0  0  0
  158.9070  141.3190  183.8540 C   0  0  0  0  0  0  0  0  0  0  0  0
  159.4447  140.3655  184.4206 O   0  0  0  0  0  0  0  0  0  0  0  0
  161.6298  142.3563  185.1605 C   0  0  0  0  0  0  0  0  0  0  0  0
  162.9352  142.1092  184.4873 C   0  0  0  0  0  0  0  0  0  0  0  0
  161.7414  142.8040  186.5837 C   0  0  0  0  0  0  0  0  0  0  0  0
  160.5511  143.0148  187.3055 N   0  0  0  0  0  0  0  0  0  0  0  0
  162.8620  142.9715  187.0681 O   0  0  0  0  0  0  0  0  0  0  0  0
  159.8104  143.6155  186.9172 H   0  0  0  0  0  0  0  0  0  0  0  0
  160.4258  142.5638  188.2259 H   0  0  0  0  0  0  0  0  0  0  0  0
  157.1553  139.8165  183.2294 C   0  0  0  0  0  0  0  0  0  0  0  0
  156.2372  139.5967  184.3513 C   0  0  0  0  0  0  0  0  0  0  0  0
  156.6569  139.3058  185.4565 O   0  0  0  0  0  0  0  0  0  0  0  0
  153.9801  138.8862  185.1483 C   0  0  0  0  0  0  0  0  0  0  0  0
  154.7758  139.7238  184.1640 C   0  0  0  0  0  0  0  0  0  0  0  0
 23 24  1  0  0  0
 24 21  1  0  0  0
 21 22  2  0  0  0
 21 20  1  0  0  0
 20  1  1  0  0  0
  1  2  1  0  0  0
  2  3  2  0  0  0
  2  4  1  0  0  0
  4  5  1  0  0  0
  4  6  1  0  0  0
  6  7  1  0  0  0
  7  8  2  0  0  0
  8  9  1  0  0  0
  9 13  1  0  0  0
 13 14  1  0  0  0
 13 15  1  0  0  0
 15 16  1  0  0  0
 15 17  2  0  0  0
  9 10  1  0  0  0
 10 11  1  0  0  0
 11 12  2  0  0  0
 11  1  1  0  0  0
 10  6  2  0  0  0
 16 18  1  0  0  0
 16 19  1  0  0  0
M  END
> <minimizedAffinity>
-7.09525

> <CNNscore>
0.5589190125

> <CNNaffinity>
6.0344934464

> <CNN_VS>
3.3727931976

> <CNNaffinity_variance>
0.1686008871

$$$$
[H]c1nc2c(c(=O)n(C([H])([H])C(=O)C([H])([H])C([H])([H])[H])c(=O)n2C([H])([H])[H])n1[C@]([H])(C(=O)N([H])[H])C([H])([H])[H]


 24 25  0  0  0  0  0  0  0  0999 V2000
  152.2351  136.9594  188.3490 N   0  0  0  0  0  0  0  0  0  0  0  0
  153.3514  137.6842  188.5802 C   0  0  0  0  0  0  0  0  0  0  0  0
  153.7762  138.4053  187.6271 O   0  0  0  0  0  0  0  0  0  0  0  0
  153.9725  137.6331  189.7719 N   0  0  0  0  0  0  0  0  0  0  0  0
  155.1734  138.4219  189.9991 C   0  0  0  0  0  0  0  0  0  0  0  0
  153.4517  136.8394  190.7293 C   0  0  0  0  0  0  0  0  0  0  0  0
  153.8791  136.6212  191.9752 N   0  0  0  0  0  0  0  0  0  0  0  0
  153.0390  135.7588  192.5417 C   0  0  0  0  0  0  0  0  0  0  0  0
  152.0579  135.3975  191.6948 N   0  0  0  0  0  0  0  0  0  0  0  0
  152.3170  136.0778  190.5531 C   0  0  0  0  0  0  0  0  0  0  0  0
  151.7109  136.1590  189.3168 C   0  0  0  0  0  0  0  0  0  0  0  0
  150.6913  135.5067  189.0837 O   0  0  0  0  0  0  0  0  0  0  0  0
  150.9826  134.4953  191.9433 C   0  0  0  0  0  0  0  0  0  0  0  0
  151.2386  133.0583  191.6470 C   0  0  0  0  0  0  0  0  0  0  0  0
  150.2607  134.7437  193.2299 C   0  0  0  0  0  0  0  0  0  0  0  0
  150.3007  133.7386  194.2150 N   0  0  0  0  0  0  0  0  0  0  0  0
  149.6614  135.8101  193.3791 O   0  0  0  0  0  0  0  0  0  0  0  0
  150.0479  132.7696  193.9755 H   0  0  0  0  0  0  0  0  0  0  0  0
  150.5847  133.9792  195.1782 H   0  0  0  0  0  0  0  0  0  0  0  0
  151.5536  136.9940  187.0821 C   0  0  0  0  0  0  0  0  0  0  0  0
  151.9549  135.9091  186.1810 C   0  0  0  0  0  0  0  0  0  0  0  0
  153.0516  135.3891  186.2759 O   0  0  0  0  0  0  0  0  0  0  0  0
  150.0103  136.4628  184.7158 C   0  0  0  0  0  0  0  0  0  0  0  0
  151.0325  135.4213  185.1329 C   0  0  0  0  0  0  0  0  0  0  0  0
 23 24  1  0  0  0
 24 21  1  0  0  0
 21 22  2  0  0  0
 21 20  1  0  0  0
 20  1  1  0  0  0
  1  2  1  0  0  0
  2  3  2  0  0  0
  2  4  1  0  0  0
  4  5  1  0  0  0
  4  6  1  0  0  0
  6  7  1  0  0  0
  7  8  2  0  0  0
  8  9  1  0  0  0
  9 13  1  0  0  0
 13 14  1  0  0  0
 13 15  1  0  0  0
 15 16  1  0  0  0
 15 17  2  0  0  0
  9 10  1  0  0  0
 10 11  1  0  0  0
 11 12  2  0  0  0
 11  1  1  0  0  0
 10  6  2  0  0  0
 16 18  1  0  0  0
 16 19  1  0  0  0
M  END
> <minimizedAffinity>
-3.51886

> <CNNscore>
0.5535145998

> <CNNaffinity>
4.4647035599

> <CNN_VS>
2.4712786674

> <CNNaffinity_variance>
0.0833196864

$$$$
[H]c1nc2c(c(=O)n(C([H])([H])C(=O)C([H])([H])C([H])([H])[H])c(=O)n2C([H])([H])[H])n1[C@]([H])(C(=O)N([H])[H])C([H])([H])[H]


 24 25  0  0  0  0  0  0  0  0999 V2000
  153.6313  136.4310  190.1072 N   0  0  0  0  0  0  0  0  0  0  0  0
  153.3975  137.0154  191.3025 C   0  0  0  0  0  0  0  0  0  0  0  0
  154.3419  137.6982  191.8031 O   0  0  0  0  0  0  0  0  0  0  0  0
  152.2121  136.8707  191.9209 N   0  0  0  0  0  0  0  0  0  0  0  0
  151.9819  137.5087  193.2078 C   0  0  0  0  0  0  0  0  0  0  0  0
  151.2637  136.1269  191.3166 C   0  0  0  0  0  0  0  0  0  0  0  0
  150.0253  135.8380  191.7234 N   0  0  0  0  0  0  0  0  0  0  0  0
  149.4663  135.0705  190.7913 C   0  0  0  0  0  0  0  0  0  0  0  0
  150.3108  134.8420  189.7690 N   0  0  0  0  0  0  0  0  0  0  0  0
  151.4431  135.5072  190.0990 C   0  0  0  0  0  0  0  0  0  0  0  0
  152.6726  135.6808  189.4987 C   0  0  0  0  0  0  0  0  0  0  0  0
  152.9079  135.1571  188.4080 O   0  0  0  0  0  0  0  0  0  0  0  0
  150.0682  134.0683  188.5967 C   0  0  0  0  0  0  0  0  0  0  0  0
  149.4115  132.7465  188.7967 C   0  0  0  0  0  0  0  0  0  0  0  0
  149.5348  134.8570  187.4427 C   0  0  0  0  0  0  0  0  0  0  0  0
  150.4581  135.3869  186.5212 N   0  0  0  0  0  0  0  0  0  0  0  0
  148.3167  135.0135  187.3419 O   0  0  0  0  0  0  0  0  0  0  0  0
  151.2559  135.9471  186.8528 H   0  0  0  0  0  0  0  0  0  0  0  0
  150.3301  135.2106  185.5119 H   0  0  0  0  0  0  0  0  0  0  0  0
  154.8916  136.5678  189.4264 C   0  0  0  0  0  0  0  0  0  0  0  0
  154.8689  137.5824  188.3680 C   0  0  0  0  0  0  0  0  0  0  0  0
  154.2241  138.6071  188.4962 O   0  0  0  0  0  0  0  0  0  0  0  0
  155.2911  138.4050  186.0486 C   0  0  0  0  0  0  0  0  0  0  0  0
  155.6316  137.3820  187.1169 C   0  0  0  0  0  0  0  0  0  0  0  0
 23 24  1  0  0  0
 24 21  1  0  0  0
 21 22  2  0  0  0
 21 20  1  0  0  0
 20  1  1  0  0  0
  1  2  1  0  0  0
  2  3  2  0  0  0
  2  4  1  0  0  0
  4  5  1  0  0  0
  4  6  1  0  0  0
  6  7  1  0  0  0
  7  8  2  0  0  0
  8  9  1  0  0  0
  9 13  1  0  0  0
 13 14  1  0  0  0
 13 15  1  0  0  0
 15 16  1  0  0  0
 15 17  2  0  0  0
  9 10  1  0  0  0
 10 11  1  0  0  0
 11 12  2  0  0  0
 11  1  1  0  0  0
 10  6  2  0  0  0
 16 18  1  0  0  0
 16 19  1  0  0  0
M  END
> <minimizedAffinity>
-3.65559

> <CNNscore>
0.5134780407

> <CNNaffinity>
4.5743002892

> <CNN_VS>
2.3488028049

> <CNNaffinity_variance>
0.0952077657

$$$$
[H]c1nc2c(c(=O)n(C([H])([H])C(=O)C([H])([H])C([H])([H])[H])c(=O)n2C([H])([H])[H])n1[C@]([H])(C(=O)N([H])[H])C([H])([H])[H]


 24 25  0  0  0  0  0  0  0  0999 V2000
  153.5712  139.6729  183.0560 N   0  0  0  0  0  0  0  0  0  0  0  0
  153.8905  138.9532  184.1537 C   0  0  0  0  0  0  0  0  0  0  0  0
  153.0188  138.1358  184.5787 O   0  0  0  0  0  0  0  0  0  0  0  0
  155.0825  139.1076  184.7570 N   0  0  0  0  0  0  0  0  0  0  0  0
  155.4055  138.3223  185.9382 C   0  0  0  0  0  0  0  0  0  0  0  0
  155.9498  139.9995  184.2375 C   0  0  0  0  0  0  0  0  0  0  0  0
  157.1762  140.3291  184.6497 N   0  0  0  0  0  0  0  0  0  0  0  0
  157.6423  141.2576  183.8184 C   0  0  0  0  0  0  0  0  0  0  0  0
  156.7476  141.5535  182.8581 N   0  0  0  0  0  0  0  0  0  0  0  0
  155.6813  140.7614  183.1212 C   0  0  0  0  0  0  0  0  0  0  0  0
  154.4482  140.5726  182.5330 C   0  0  0  0  0  0  0  0  0  0  0  0
  154.1357  141.2181  181.5305 O   0  0  0  0  0  0  0  0  0  0  0  0
  156.8893  142.4952  181.7975 C   0  0  0  0  0  0  0  0  0  0  0  0
  156.6703  143.9267  182.1458 C   0  0  0  0  0  0  0  0  0  0  0  0
  158.0694  142.2464  180.9122 C   0  0  0  0  0  0  0  0  0  0  0  0
  157.9701  141.2231  179.9504 N   0  0  0  0  0  0  0  0  0  0  0  0
  159.0776  142.9402  181.0564 O   0  0  0  0  0  0  0  0  0  0  0  0
  157.6700  140.2785  180.2297 H   0  0  0  0  0  0  0  0  0  0  0  0
  158.2000  141.4255  178.9643 H   0  0  0  0  0  0  0  0  0  0  0  0
  152.3018  139.5288  182.3938 C   0  0  0  0  0  0  0  0  0  0  0  0
  152.3547  138.6355  181.2323 C   0  0  0  0  0  0  0  0  0  0  0  0
  152.6545  137.4621  181.3575 O   0  0  0  0  0  0  0  0  0  0  0  0
  151.0028  140.2467  179.8865 C   0  0  0  0  0  0  0  0  0  0  0  0
  152.0441  139.1424  179.8781 C   0  0  0  0  0  0  0  0  0  0  0  0
 23 24  1  0  0  0
 24 21  1  0  0  0
 21 22  2  0  0  0
 21 20  1  0  0  0
 20  1  1  0  0  0
  1  2  1  0  0  0
  2  3  2  0  0  0
  2  4  1  0  0  0
  4  5  1  0  0  0
  4  6  1  0  0  0
  6  7  1  0  0  0
  7  8  2  0  0  0
  8  9  1  0  0  0
  9 13  1  0  0  0
 13 14  1  0  0  0
 13 15  1  0  0  0
 15 16  1  0  0  0
 15 17  2  0  0  0
  9 10  1  0  0  0
 10 11  1  0  0  0
 11 12  2  0  0  0
 11  1  1  0  0  0
 10  6  2  0  0  0
 16 18  1  0  0  0
 16 19  1  0  0  0
M  END
> <minimizedAffinity>
-6.53670

> <CNNscore>
0.4820007086

> <CNNaffinity>
5.1494755745

> <CNN_VS>
2.4820508957

> <CNNaffinity_variance>
0.3093135357

$$$$
[H]c1nc2c(c(=O)n(C([H])([H])C(=O)C([H])([H])C([H])([H])[H])c(=O)n2C([H])([H])[H])n1[C@]([H])(C(=O)N([H])[H])C([H])([H])[H]


 24 25  0  0  0  0  0  0  0  0999 V2000
  151.9423  138.1580  182.5803 N   0  0  0  0  0  0  0  0  0  0  0  0
  151.9352  138.9563  181.4905 C   0  0  0  0  0  0  0  0  0  0  0  0
  153.0611  139.2494  180.9854 O   0  0  0  0  0  0  0  0  0  0  0  0
  150.7789  139.4112  180.9762 N   0  0  0  0  0  0  0  0  0  0  0  0
  150.7945  140.2698  179.8020 C   0  0  0  0  0  0  0  0  0  0  0  0
  149.6274  139.0496  181.5771 C   0  0  0  0  0  0  0  0  0  0  0  0
  148.3697  139.3674  181.2610 N   0  0  0  0  0  0  0  0  0  0  0  0
  147.5722  138.7743  182.1456 C   0  0  0  0  0  0  0  0  0  0  0  0
  148.2764  138.0659  183.0472 N   0  0  0  0  0  0  0  0  0  0  0  0
  149.5710  138.2387  182.6897 C   0  0  0  0  0  0  0  0  0  0  0  0
  150.7788  137.7941  183.1853 C   0  0  0  0  0  0  0  0  0  0  0  0
  150.8092  137.0647  184.1784 O   0  0  0  0  0  0  0  0  0  0  0  0
  147.7716  137.3026  184.1401 C   0  0  0  0  0  0  0  0  0  0  0  0
  148.0227  135.8351  184.0981 C   0  0  0  0  0  0  0  0  0  0  0  0
  147.9934  137.9312  185.4795 C   0  0  0  0  0  0  0  0  0  0  0  0
  148.9296  137.3323  186.3438 N   0  0  0  0  0  0  0  0  0  0  0  0
  147.3532  138.9417  185.7753 O   0  0  0  0  0  0  0  0  0  0  0  0
  148.8705  136.3257  186.5524 H   0  0  0  0  0  0  0  0  0  0  0  0
  149.6750  137.9082  186.7668 H   0  0  0  0  0  0  0  0  0  0  0  0
  153.1657  137.6606  183.1518 C   0  0  0  0  0  0  0  0  0  0  0  0
  153.7527  138.5703  184.1405 C   0  0  0  0  0  0  0  0  0  0  0  0
  153.3514  138.5900  185.2898 O   0  0  0  0  0  0  0  0  0  0  0  0
  154.4210  140.9435  183.7454 C   0  0  0  0  0  0  0  0  0  0  0  0
  154.8493  139.4875  183.7617 C   0  0  0  0  0  0  0  0  0  0  0  0
 23 24  1  0  0  0
 24 21  1  0  0  0
 21 22  2  0  0  0
 21 20  1  0  0  0
 20  1  1  0  0  0
  1  2  1  0  0  0
  2  3  2  0  0  0
  2  4  1  0  0  0
  4  5  1  0  0  0
  4  6  1  0  0  0
  6  7  1  0  0  0
  7  8  2  0  0  0
  8  9  1  0  0  0
  9 13  1  0  0  0
 13 14  1  0  0  0
 13 15  1  0  0  0
 15 16  1  0  0  0
 15 17  2  0  0  0
  9 10  1  0  0  0
 10 11  1  0  0  0
 11 12  2  0  0  0
 11  1  1  0  0  0
 10  6  2  0  0  0
 16 18  1  0  0  0
 16 19  1  0  0  0
M  END
> <minimizedAffinity>
-4.39429

> <CNNscore>
0.4804621935

> <CNNaffinity>
4.6556515694

> <CNN_VS>
2.2368645668

> <CNNaffinity_variance>
0.1931673586

$$$$
[H]c1nc2c(c(=O)n(C([H])([H])C(=O)C([H])([H])C([H])([H])[H])c(=O)n2C([H])([H])[H])n1[C@]([H])(C(=O)N([H])[H])C([H])([H])[H]


 24 25  0  0  0  0  0  0  0  0999 V2000
  158.5004  141.4803  183.9206 N   0  0  0  0  0  0  0  0  0  0  0  0
  158.0157  142.5606  183.2703 C   0  0  0  0  0  0  0  0  0  0  0  0
  158.8526  143.4523  182.9339 O   0  0  0  0  0  0  0  0  0  0  0  0
  156.7032  142.6709  182.9989 N   0  0  0  0  0  0  0  0  0  0  0  0
  156.2028  143.8430  182.2976 C   0  0  0  0  0  0  0  0  0  0  0  0
  155.8842  141.6751  183.3933 C   0  0  0  0  0  0  0  0  0  0  0  0
  154.5630  141.5542  183.2439 N   0  0  0  0  0  0  0  0  0  0  0  0
  154.2013  140.3993  183.7968 C   0  0  0  0  0  0  0  0  0  0  0  0
  155.2589  139.7471  184.3130 N   0  0  0  0  0  0  0  0  0  0  0  0
  156.3194  140.5499  184.0591 C   0  0  0  0  0  0  0  0  0  0  0  0
  157.6721  140.4761  184.3176 C   0  0  0  0  0  0  0  0  0  0  0  0
  158.1364  139.4996  184.9094 O   0  0  0  0  0  0  0  0  0  0  0  0
  155.2629  138.4884  184.9819 C   0  0  0  0  0  0  0  0  0  0  0  0
  155.5985  138.5078  186.4329 C   0  0  0  0  0  0  0  0  0  0  0  0
  154.1123  137.6017  184.6239 C   0  0  0  0  0  0  0  0  0  0  0  0
  152.9684  137.6398  185.4437 N   0  0  0  0  0  0  0  0  0  0  0  0
  154.2073  136.8755  183.6328 O   0  0  0  0  0  0  0  0  0  0  0  0
  153.0587  137.5242  186.4629 H   0  0  0  0  0  0  0  0  0  0  0  0
  152.0393  137.7840  185.0169 H   0  0  0  0  0  0  0  0  0  0  0  0
  159.8997  141.3396  184.2256 C   0  0  0  0  0  0  0  0  0  0  0  0
  160.3115  142.0992  185.4102 C   0  0  0  0  0  0  0  0  0  0  0  0
  159.6400  142.0889  186.4258 O   0  0  0  0  0  0  0  0  0  0  0  0
  162.3005  142.8511  186.7191 C   0  0  0  0  0  0  0  0  0  0  0  0
  161.5563  142.8976  185.3971 C   0  0  0  0  0  0  0  0  0  0  0  0
 23 24  1  0  0  0
 24 21  1  0  0  0
 21 22  2  0  0  0
 21 20  1  0  0  0
 20  1  1  0  0  0
  1  2  1  0  0  0
  2  3  2  0  0  0
  2  4  1  0  0  0
  4  5  1  0  0  0
  4  6  1  0  0  0
  6  7  1  0  0  0
  7  8  2  0  0  0
  8  9  1  0  0  0
  9 13  1  0  0  0
 13 14  1  0  0  0
 13 15  1  0  0  0
 15 16  1  0  0  0
 15 17  2  0  0  0
  9 10  1  0  0  0
 10 11  1  0  0  0
 11 12  2  0  0  0
 11  1  1  0  0  0
 10  6  2  0  0  0
 16 18  1  0  0  0
 16 19  1  0  0  0
M  END
> <minimizedAffinity>
-6.42377

> <CNNscore>
0.4738667607

> <CNNaffinity>
5.4783964157

> <CNN_VS>
2.5960299969

> <CNNaffinity_variance>
0.1014587283

$$$$
[H]c1nc2c(c(=O)n(C([H])([H])C(=O)C([H])([H])C([H])([H])[H])c(=O)n2C([H])([H])[H])n1[C@]([H])(C(=O)N([H])[H])C([H])([H])[H]


 24 25  0  0  0  0  0  0  0  0999 V2000
  153.0458  135.5037  189.9248 N   0  0  0  0  0  0  0  0  0  0  0  0
  153.9354  134.5096  189.7112 C   0  0  0  0  0  0  0  0  0  0  0  0
  154.9873  134.8080  189.0684 O   0  0  0  0  0  0  0  0  0  0  0  0
  153.7020  133.2657  190.1659 N   0  0  0  0  0  0  0  0  0  0  0  0
  154.6736  132.2103  189.9245 C   0  0  0  0  0  0  0  0  0  0  0  0
  152.5570  133.0372  190.8401 C   0  0  0  0  0  0  0  0  0  0  0  0
  152.1038  131.9044  191.3822 N   0  0  0  0  0  0  0  0  0  0  0  0
  150.9266  132.1712  191.9422 C   0  0  0  0  0  0  0  0  0  0  0  0
  150.5864  133.4632  191.7829 N   0  0  0  0  0  0  0  0  0  0  0  0
  151.6128  134.0094  191.0890 C   0  0  0  0  0  0  0  0  0  0  0  0
  151.8907  135.2709  190.6057 C   0  0  0  0  0  0  0  0  0  0  0  0
  151.0936  136.1930  190.7890 O   0  0  0  0  0  0  0  0  0  0  0  0
  149.4043  134.1144  192.2418 C   0  0  0  0  0  0  0  0  0  0  0  0
  148.1188  133.3986  192.0110 C   0  0  0  0  0  0  0  0  0  0  0  0
  149.5341  134.7336  193.5976 C   0  0  0  0  0  0  0  0  0  0  0  0
  149.3640  133.9037  194.7222 N   0  0  0  0  0  0  0  0  0  0  0  0
  149.7824  135.9378  193.6800 O   0  0  0  0  0  0  0  0  0  0  0  0
  148.5277  133.3086  194.8038 H   0  0  0  0  0  0  0  0  0  0  0  0
  150.0824  133.8959  195.4639 H   0  0  0  0  0  0  0  0  0  0  0  0
  153.2702  136.8421  189.4462 C   0  0  0  0  0  0  0  0  0  0  0  0
  154.2007  137.6060  190.2832 C   0  0  0  0  0  0  0  0  0  0  0  0
  154.0285  137.7020  191.4846 O   0  0  0  0  0  0  0  0  0  0  0  0
  156.6618  137.9993  190.4352 C   0  0  0  0  0  0  0  0  0  0  0  0
  155.3732  138.2793  189.6838 C   0  0  0  0  0  0  0  0  0  0  0  0
 23 24  1  0  0  0
 24 21  1  0  0  0
 21 22  2  0  0  0
 21 20  1  0  0  0
 20  1  1  0  0  0
  1  2  1  0  0  0
  2  3  2  0  0  0
  2  4  1  0  0  0
  4  5  1  0  0  0
  4  6  1  0  0  0
  6  7  1  0  0  0
  7  8  2  0  0  0
  8  9  1  0  0  0
  9 13  1  0  0  0
 13 14  1  0  0  0
 13 15  1  0  0  0
 15 16  1  0  0  0
 15 17  2  0  0  0
  9 10  1  0  0  0
 10 11  1  0  0  0
 11 12  2  0  0  0
 11  1  1  0  0  0
 10  6  2  0  0  0
 16 18  1  0  0  0
 16 19  1  0  0  0
M  END
> <minimizedAffinity>
-3.99266

> <CNNscore>
0.4674164653

> <CNNaffinity>
4.3983211517

> <CNN_VS>
2.0558476448

> <CNNaffinity_variance>
0.0204020720

$$$$
[H]c1nc2nc([H])n(C([H])([H])c3nc(C([H])([H])C([H])(F)c4c([H])c([H])c(Cl)c([H])c4[H])no3)c(=O)c2c([H])c1[H]


 27 30  0  0  0  0  0  0  0  0999 V2000
  155.7427  140.5837  183.7243 C   0  0  0  0  0  0  0  0  0  0  0  0
  154.6093  140.3586  183.0831 N   0  0  0  0  0  0  0  0  0  0  0  0
  154.0414  139.2661  183.4879 O   0  0  0  0  0  0  0  0  0  0  0  0
  154.8045  138.7262  184.4322 C   0  0  0  0  0  0  0  0  0  0  0  0
  155.8640  139.5306  184.5913 N   0  0  0  0  0  0  0  0  0  0  0  0
  156.7667  141.6214  183.6850 C   0  0  0  0  0  0  0  0  0  0  0  0
  158.3010  139.8458  183.0970 F   0  0  0  0  0  0  0  0  0  0  0  0
  158.1618  141.1745  183.3796 C   0  0  0  0  0  0  0  0  0  0  0  0
  159.1793  141.6334  184.3524 C   0  0  0  0  0  0  0  0  0  0  0  0
  160.4922  141.7972  183.9020 C   0  0  0  0  0  0  0  0  0  0  0  0
  161.5044  142.2032  184.7424 C   0  0  0  0  0  0  0  0  0  0  0  0
  161.2634  142.4674  186.0745 C   0  0  0  0  0  0  0  0  0  0  0  0
  162.5652  142.9851  187.1340 Cl  0  0  0  0  0  0  0  0  0  0  0  0
  159.9750  142.3105  186.5340 C   0  0  0  0  0  0  0  0  0  0  0  0
  158.9586  141.9000  185.6797 C   0  0  0  0  0  0  0  0  0  0  0  0
  154.5079  137.4601  185.1592 C   0  0  0  0  0  0  0  0  0  0  0  0
  154.4802  137.8082  186.5804 N   0  0  0  0  0  0  0  0  0  0  0  0
  153.4372  138.4992  187.0770 C   0  0  0  0  0  0  0  0  0  0  0  0
  153.4539  138.7971  188.3884 N   0  0  0  0  0  0  0  0  0  0  0  0
  154.4646  138.4298  189.1984 C   0  0  0  0  0  0  0  0  0  0  0  0
  154.4873  138.7231  190.5044 N   0  0  0  0  0  0  0  0  0  0  0  0
  155.5108  138.3497  191.3184 C   0  0  0  0  0  0  0  0  0  0  0  0
  156.5895  137.6415  190.8323 C   0  0  0  0  0  0  0  0  0  0  0  0
  156.5919  137.3258  189.4898 C   0  0  0  0  0  0  0  0  0  0  0  0
  155.5261  137.7221  188.6739 C   0  0  0  0  0  0  0  0  0  0  0  0
  155.5163  137.4116  187.3250 C   0  0  0  0  0  0  0  0  0  0  0  0
  156.4957  136.7663  186.8739 O   0  0  0  0  0  0  0  0  0  0  0  0
  7  8  1  0  0  0
  8  6  1  0  0  0
  6  1  1  0  0  0
  1  2  2  0  0  0
  2  3  1  0  0  0
  3  4  1  0  0  0
  4 16  1  0  0  0
 16 17  1  0  0  0
 17 18  1  0  0  0
 18 19  2  0  0  0
 19 20  1  0  0  0
 20 21  2  0  0  0
 21 22  1  0  0  0
 22 23  2  0  0  0
 23 24  1  0  0  0
 24 25  2  0  0  0
 25 26  1  0  0  0
 26 27  2  0  0  0
  4  5  2  0  0  0
  8  9  1  0  0  0
  9 10  2  0  0  0
 10 11  1  0  0  0
 11 12  2  0  0  0
 12 13  1  0  0  0
 12 14  1  0  0  0
 14 15  2  0  0  0
  5  1  1  0  0  0
 15  9  1  0  0  0
 26 17  1  0  0  0
 25 20  1  0  0  0
M  END
> <minimizedAffinity>
-8.56680

> <CNNscore>
0.7167877555

> <CNNaffinity>
6.4281449318

> <CNN_VS>
4.6076154709

> <CNNaffinity_variance>
0.1044770479

$$$$
[H]c1nc2nc([H])n(C([H])([H])c3nc(C([H])([H])C([H])(F)c4c([H])c([H])c(Cl)c([H])c4[H])no3)c(=O)c2c([H])c1[H]


 27 30  0  0  0  0  0  0  0  0999 V2000
  155.5408  140.2671  183.8864 C   0  0  0  0  0  0  0  0  0  0  0  0
  154.6444  139.9673  182.9629 N   0  0  0  0  0  0  0  0  0  0  0  0
  153.8667  139.0046  183.3479 O   0  0  0  0  0  0  0  0  0  0  0  0
  154.2384  138.6330  184.5682 C   0  0  0  0  0  0  0  0  0  0  0  0
  155.2755  139.4058  184.9176 N   0  0  0  0  0  0  0  0  0  0  0  0
  156.6306  141.2298  183.9987 C   0  0  0  0  0  0  0  0  0  0  0  0
  158.1142  139.4053  183.4304 F   0  0  0  0  0  0  0  0  0  0  0  0
  157.9879  140.7564  183.5832 C   0  0  0  0  0  0  0  0  0  0  0  0
  159.1035  141.3208  184.3764 C   0  0  0  0  0  0  0  0  0  0  0  0
  158.8439  141.7042  185.6951 C   0  0  0  0  0  0  0  0  0  0  0  0
  159.8178  142.2539  186.4982 C   0  0  0  0  0  0  0  0  0  0  0  0
  161.1006  142.4509  186.0314 C   0  0  0  0  0  0  0  0  0  0  0  0
  162.3324  143.1530  187.0683 Cl  0  0  0  0  0  0  0  0  0  0  0  0
  161.3725  142.0787  184.7340 C   0  0  0  0  0  0  0  0  0  0  0  0
  160.3841  141.5247  183.9294 C   0  0  0  0  0  0  0  0  0  0  0  0
  153.5990  137.5533  185.3713 C   0  0  0  0  0  0  0  0  0  0  0  0
  154.4234  137.4009  186.5708 N   0  0  0  0  0  0  0  0  0  0  0  0
  155.4710  136.5559  186.5565 C   0  0  0  0  0  0  0  0  0  0  0  0
  156.2007  136.4476  187.6811 N   0  0  0  0  0  0  0  0  0  0  0  0
  155.9159  137.1474  188.7955 C   0  0  0  0  0  0  0  0  0  0  0  0
  156.6380  137.0443  189.9180 N   0  0  0  0  0  0  0  0  0  0  0  0
  156.3461  137.7534  191.0411 C   0  0  0  0  0  0  0  0  0  0  0  0
  155.2780  138.6249  191.0794 C   0  0  0  0  0  0  0  0  0  0  0  0
  154.5168  138.7506  189.9363 C   0  0  0  0  0  0  0  0  0  0  0  0
  154.8389  138.0092  188.7939 C   0  0  0  0  0  0  0  0  0  0  0  0
  154.0829  138.1261  187.6402 C   0  0  0  0  0  0  0  0  0  0  0  0
  153.1078  138.9182  187.6667 O   0  0  0  0  0  0  0  0  0  0  0  0
  7  8  1  0  0  0
  8  6  1  0  0  0
  6  1  1  0  0  0
  1  2  2  0  0  0
  2  3  1  0  0  0
  3  4  1  0  0  0
  4 16  1  0  0  0
 16 17  1  0  0  0
 17 18  1  0  0  0
 18 19  2  0  0  0
 19 20  1  0  0  0
 20 21  2  0  0  0
 21 22  1  0  0  0
 22 23  2  0  0  0
 23 24  1  0  0  0
 24 25  2  0  0  0
 25 26  1  0  0  0
 26 27  2  0  0  0
  4  5  2  0  0  0
  8  9  1  0  0  0
  9 10  2  0  0  0
 10 11  1  0  0  0
 11 12  2  0  0  0
 12 13  1  0  0  0
 12 14  1  0  0  0
 14 15  2  0  0  0
  5  1  1  0  0  0
 15  9  1  0  0  0
 26 17  1  0  0  0
 25 20  1  0  0  0
M  END
> <minimizedAffinity>
-8.85010

> <CNNscore>
0.6530821323

> <CNNaffinity>
6.3250646591

> <CNN_VS>
4.1307868958

> <CNNaffinity_variance>
0.1102453023

$$$$
[H]c1nc2nc([H])n(C([H])([H])c3nc(C([H])([H])C([H])(F)c4c([H])c([H])c(Cl)c([H])c4[H])no3)c(=O)c2c([H])c1[H]


 27 30  0  0  0  0  0  0  0  0999 V2000
  154.6604  139.8868  184.1048 C   0  0  0  0  0  0  0  0  0  0  0  0
  155.7755  139.4399  184.6550 N   0  0  0  0  0  0  0  0  0  0  0  0
  155.5417  138.4816  185.4959 O   0  0  0  0  0  0  0  0  0  0  0  0
  154.2313  138.2642  185.5242 C   0  0  0  0  0  0  0  0  0  0  0  0
  153.6693  139.1271  184.6671 N   0  0  0  0  0  0  0  0  0  0  0  0
  154.3279  140.9161  183.1264 C   0  0  0  0  0  0  0  0  0  0  0  0
  153.9082  143.2721  183.4813 F   0  0  0  0  0  0  0  0  0  0  0  0
  154.8540  142.2908  183.3955 C   0  0  0  0  0  0  0  0  0  0  0  0
  155.9817  142.6966  182.5262 C   0  0  0  0  0  0  0  0  0  0  0  0
  156.5647  141.7239  181.7093 C   0  0  0  0  0  0  0  0  0  0  0  0
  157.6284  142.0098  180.8831 C   0  0  0  0  0  0  0  0  0  0  0  0
  158.1676  143.2781  180.8266 C   0  0  0  0  0  0  0  0  0  0  0  0
  159.5245  143.6273  179.7672 Cl  0  0  0  0  0  0  0  0  0  0  0  0
  157.6046  144.2477  181.6256 C   0  0  0  0  0  0  0  0  0  0  0  0
  156.5313  143.9515  182.4571 C   0  0  0  0  0  0  0  0  0  0  0  0
  153.5463  137.2423  186.3645 C   0  0  0  0  0  0  0  0  0  0  0  0
  154.1439  137.3488  187.6961 N   0  0  0  0  0  0  0  0  0  0  0  0
  153.9982  138.4850  188.4030 C   0  0  0  0  0  0  0  0  0  0  0  0
  154.5642  138.5383  189.6219 N   0  0  0  0  0  0  0  0  0  0  0  0
  155.2571  137.5072  190.1408 C   0  0  0  0  0  0  0  0  0  0  0  0
  155.8229  137.5538  191.3531 N   0  0  0  0  0  0  0  0  0  0  0  0
  156.5219  136.5093  191.8728 C   0  0  0  0  0  0  0  0  0  0  0  0
  156.6845  135.3357  191.1672 C   0  0  0  0  0  0  0  0  0  0  0  0
  156.1117  135.2604  189.9150 C   0  0  0  0  0  0  0  0  0  0  0  0
  155.3973  136.3498  189.4035 C   0  0  0  0  0  0  0  0  0  0  0  0
  154.8177  136.2872  188.1481 C   0  0  0  0  0  0  0  0  0  0  0  0
  154.9611  135.2211  187.4985 O   0  0  0  0  0  0  0  0  0  0  0  0
  7  8  1  0  0  0
  8  6  1  0  0  0
  6  1  1  0  0  0
  1  2  2  0  0  0
  2  3  1  0  0  0
  3  4  1  0  0  0
  4 16  1  0  0  0
 16 17  1  0  0  0
 17 18  1  0  0  0
 18 19  2  0  0  0
 19 20  1  0  0  0
 20 21  2  0  0  0
 21 22  1  0  0  0
 22 23  2  0  0  0
 23 24  1  0  0  0
 24 25  2  0  0  0
 25 26  1  0  0  0
 26 27  2  0  0  0
  4  5  2  0  0  0
  8  9  1  0  0  0
  9 10  2  0  0  0
 10 11  1  0  0  0
 11 12  2  0  0  0
 12 13  1  0  0  0
 12 14  1  0  0  0
 14 15  2  0  0  0
  5  1  1  0  0  0
 15  9  1  0  0  0
 26 17  1  0  0  0
 25 20  1  0  0  0
M  END
> <minimizedAffinity>
-7.46621

> <CNNscore>
0.5719471574

> <CNNaffinity>
5.9079689980

> <CNN_VS>
3.3790459633

> <CNNaffinity_variance>
0.0943769664

$$$$
[H]c1nc2nc([H])n(C([H])([H])c3nc(C([H])([H])C([H])(F)c4c([H])c([H])c(Cl)c([H])c4[H])no3)c(=O)c2c([H])c1[H]


 27 30  0  0  0  0  0  0  0  0999 V2000
  154.5104  140.1591  183.6608 C   0  0  0  0  0  0  0  0  0  0  0  0
  155.6420  139.7753  184.2248 N   0  0  0  0  0  0  0  0  0  0  0  0
  155.4717  138.7304  184.9727 O   0  0  0  0  0  0  0  0  0  0  0  0
  154.1892  138.3872  184.9212 C   0  0  0  0  0  0  0  0  0  0  0  0
  153.5783  139.2628  184.1119 N   0  0  0  0  0  0  0  0  0  0  0  0
  154.1159  141.2321  182.7551 C   0  0  0  0  0  0  0  0  0  0  0  0
  153.7513  143.6095  183.0148 F   0  0  0  0  0  0  0  0  0  0  0  0
  154.6627  142.5932  183.0509 C   0  0  0  0  0  0  0  0  0  0  0  0
  155.8911  142.9370  182.2992 C   0  0  0  0  0  0  0  0  0  0  0  0
  156.4994  141.9336  181.5400 C   0  0  0  0  0  0  0  0  0  0  0  0
  157.6535  142.1612  180.8245 C   0  0  0  0  0  0  0  0  0  0  0  0
  158.2626  143.3987  180.8271 C   0  0  0  0  0  0  0  0  0  0  0  0
  159.7346  143.6735  179.9088 Cl  0  0  0  0  0  0  0  0  0  0  0  0
  157.6759  144.3980  181.5705 C   0  0  0  0  0  0  0  0  0  0  0  0
  156.5111  144.1606  182.2903 C   0  0  0  0  0  0  0  0  0  0  0  0
  153.5766  137.2363  185.6421 C   0  0  0  0  0  0  0  0  0  0  0  0
  154.3781  137.0452  186.8515 N   0  0  0  0  0  0  0  0  0  0  0  0
  155.2665  136.0356  186.9096 C   0  0  0  0  0  0  0  0  0  0  0  0
  155.9813  135.8978  188.0405 N   0  0  0  0  0  0  0  0  0  0  0  0
  155.8337  136.7256  189.0920 C   0  0  0  0  0  0  0  0  0  0  0  0
  156.5419  136.5939  190.2204 N   0  0  0  0  0  0  0  0  0  0  0  0
  156.3891  137.4328  191.2799 C   0  0  0  0  0  0  0  0  0  0  0  0
  155.4854  138.4738  191.2434 C   0  0  0  0  0  0  0  0  0  0  0  0
  154.7423  138.6326  190.0926 C   0  0  0  0  0  0  0  0  0  0  0  0
  154.9191  137.7553  189.0166 C   0  0  0  0  0  0  0  0  0  0  0  0
  154.1795  137.9037  187.8559 C   0  0  0  0  0  0  0  0  0  0  0  0
  153.3537  138.8499  187.8145 O   0  0  0  0  0  0  0  0  0  0  0  0
  7  8  1  0  0  0
  8  6  1  0  0  0
  6  1  1  0  0  0
  1  2  2  0  0  0
  2  3  1  0  0  0
  3  4  1  0  0  0
  4 16  1  0  0  0
 16 17  1  0  0  0
 17 18  1  0  0  0
 18 19  2  0  0  0
 19 20  1  0  0  0
 20 21  2  0  0  0
 21 22  1  0  0  0
 22 23  2  0  0  0
 23 24  1  0  0  0
 24 25  2  0  0  0
 25 26  1  0  0  0
 26 27  2  0  0  0
  4  5  2  0  0  0
  8  9  1  0  0  0
  9 10  2  0  0  0
 10 11  1  0  0  0
 11 12  2  0  0  0
 12 13  1  0  0  0
 12 14  1  0  0  0
 14 15  2  0  0  0
  5  1  1  0  0  0
 15  9  1  0  0  0
 26 17  1  0  0  0
 25 20  1  0  0  0
M  END
> <minimizedAffinity>
-8.09245

> <CNNscore>
0.5493935943

> <CNNaffinity>
5.9563570023

> <CNN_VS>
3.2723844051

> <CNNaffinity_variance>
0.1400733888

$$$$
[H]c1nc2nc([H])n(C([H])([H])c3nc(C([H])([H])C([H])(F)c4c([H])c([H])c(Cl)c([H])c4[H])no3)c(=O)c2c([H])c1[H]


 27 30  0  0  0  0  0  0  0  0999 V2000
  154.5531  140.3276  183.5295 C   0  0  0  0  0  0  0  0  0  0  0  0
  153.9453  139.6360  182.5817 N   0  0  0  0  0  0  0  0  0  0  0  0
  153.3596  138.5835  183.0604 O   0  0  0  0  0  0  0  0  0  0  0  0
  153.5706  138.5509  184.3718 C   0  0  0  0  0  0  0  0  0  0  0  0
  154.3092  139.6254  184.6797 N   0  0  0  0  0  0  0  0  0  0  0  0
  155.3418  141.5537  183.5736 C   0  0  0  0  0  0  0  0  0  0  0  0
  157.3625  141.7747  184.8855 F   0  0  0  0  0  0  0  0  0  0  0  0
  156.8249  141.3922  183.6898 C   0  0  0  0  0  0  0  0  0  0  0  0
  157.5925  141.9396  182.5482 C   0  0  0  0  0  0  0  0  0  0  0  0
  158.1034  143.2356  182.6609 C   0  0  0  0  0  0  0  0  0  0  0  0
  158.8135  143.8291  181.6414 C   0  0  0  0  0  0  0  0  0  0  0  0
  159.0523  143.1643  180.4568 C   0  0  0  0  0  0  0  0  0  0  0  0
  159.9603  143.9347  179.1655 Cl  0  0  0  0  0  0  0  0  0  0  0  0
  158.5553  141.8866  180.3299 C   0  0  0  0  0  0  0  0  0  0  0  0
  157.8392  141.2944  181.3632 C   0  0  0  0  0  0  0  0  0  0  0  0
  153.0653  137.5000  185.2991 C   0  0  0  0  0  0  0  0  0  0  0  0
  154.0476  137.4098  186.3801 N   0  0  0  0  0  0  0  0  0  0  0  0
  155.1570  136.6663  186.2122 C   0  0  0  0  0  0  0  0  0  0  0  0
  156.0320  136.6122  187.2321 N   0  0  0  0  0  0  0  0  0  0  0  0
  155.8307  137.2682  188.3904 C   0  0  0  0  0  0  0  0  0  0  0  0
  156.6976  137.2186  189.4093 N   0  0  0  0  0  0  0  0  0  0  0  0
  156.4895  137.8832  190.5774 C   0  0  0  0  0  0  0  0  0  0  0  0
  155.3607  138.6509  190.7723 C   0  0  0  0  0  0  0  0  0  0  0  0
  154.4505  138.7197  189.7386 C   0  0  0  0  0  0  0  0  0  0  0  0
  154.6887  138.0260  188.5466 C   0  0  0  0  0  0  0  0  0  0  0  0
  153.7832  138.0866  187.5015 C   0  0  0  0  0  0  0  0  0  0  0  0
  152.7517  138.7841  187.6709 O   0  0  0  0  0  0  0  0  0  0  0  0
  7  8  1  0  0  0
  8  6  1  0  0  0
  6  1  1  0  0  0
  1  2  2  0  0  0
  2  3  1  0  0  0
  3  4  1  0  0  0
  4 16  1  0  0  0
 16 17  1  0  0  0
 17 18  1  0  0  0
 18 19  2  0  0  0
 19 20  1  0  0  0
 20 21  2  0  0  0
 21 22  1  0  0  0
 22 23  2  0  0  0
 23 24  1  0  0  0
 24 25  2  0  0  0
 25 26  1  0  0  0
 26 27  2  0  0  0
  4  5  2  0  0  0
  8  9  1  0  0  0
  9 10  2  0  0  0
 10 11  1  0  0  0
 11 12  2  0  0  0
 12 13  1  0  0  0
 12 14  1  0  0  0
 14 15  2  0  0  0
  5  1  1  0  0  0
 15  9  1  0  0  0
 26 17  1  0  0  0
 25 20  1  0  0  0
M  END
> <minimizedAffinity>
-7.93818

> <CNNscore>
0.5058490634

> <CNNaffinity>
6.0115599632

> <CNN_VS>
3.0409419537

> <CNNaffinity_variance>
0.1757718325

$$$$
[H]c1nc2nc([H])n(C([H])([H])c3nc(C([H])([H])C([H])(F)c4c([H])c([H])c(Cl)c([H])c4[H])no3)c(=O)c2c([H])c1[H]


 27 30  0  0  0  0  0  0  0  0999 V2000
  154.1597  139.5867  183.6049 C   0  0  0  0  0  0  0  0  0  0  0  0
  154.9603  139.0317  184.4977 N   0  0  0  0  0  0  0  0  0  0  0  0
  154.5987  137.8179  184.7732 O   0  0  0  0  0  0  0  0  0  0  0  0
  153.5212  137.5312  184.0506 C   0  0  0  0  0  0  0  0  0  0  0  0
  153.2352  138.6173  183.3201 N   0  0  0  0  0  0  0  0  0  0  0  0
  154.0859  140.8852  182.9447 C   0  0  0  0  0  0  0  0  0  0  0  0
  154.2514  143.0215  184.0679 F   0  0  0  0  0  0  0  0  0  0  0  0
  154.9355  141.9763  183.5163 C   0  0  0  0  0  0  0  0  0  0  0  0
  156.0155  142.4461  182.6189 C   0  0  0  0  0  0  0  0  0  0  0  0
  156.7232  141.4895  181.8857 C   0  0  0  0  0  0  0  0  0  0  0  0
  157.7538  141.8363  181.0412 C   0  0  0  0  0  0  0  0  0  0  0  0
  158.1341  143.1525  180.8819 C   0  0  0  0  0  0  0  0  0  0  0  0
  159.4508  143.5790  179.8003 Cl  0  0  0  0  0  0  0  0  0  0  0  0
  157.4469  144.1070  181.5976 C   0  0  0  0  0  0  0  0  0  0  0  0
  156.4079  143.7493  182.4483 C   0  0  0  0  0  0  0  0  0  0  0  0
  152.7908  136.2329  184.0723 C   0  0  0  0  0  0  0  0  0  0  0  0
  153.4953  135.3581  183.1342 N   0  0  0  0  0  0  0  0  0  0  0  0
  153.1884  135.4006  181.8243 C   0  0  0  0  0  0  0  0  0  0  0  0
  153.8611  134.5792  180.9989 N   0  0  0  0  0  0  0  0  0  0  0  0
  154.8123  133.7346  181.4399 C   0  0  0  0  0  0  0  0  0  0  0  0
  155.4855  132.9144  180.6237 N   0  0  0  0  0  0  0  0  0  0  0  0
  156.4455  132.0629  181.0743 C   0  0  0  0  0  0  0  0  0  0  0  0
  156.7769  132.0018  182.4115 C   0  0  0  0  0  0  0  0  0  0  0  0
  156.0987  132.8362  183.2750 C   0  0  0  0  0  0  0  0  0  0  0  0
  155.1151  133.7031  182.7853 C   0  0  0  0  0  0  0  0  0  0  0  0
  154.4270  134.5456  183.6413 C   0  0  0  0  0  0  0  0  0  0  0  0
  154.7230  134.4961  184.8616 O   0  0  0  0  0  0  0  0  0  0  0  0
  7  8  1  0  0  0
  8  6  1  0  0  0
  6  1  1  0  0  0
  1  2  2  0  0  0
  2  3  1  0  0  0
  3  4  1  0  0  0
  4 16  1  0  0  0
 16 17  1  0  0  0
 17 18  1  0  0  0
 18 19  2  0  0  0
 19 20  1  0  0  0
 20 21  2  0  0  0
 21 22  1  0  0  0
 22 23  2  0  0  0
 23 24  1  0  0  0
 24 25  2  0  0  0
 25 26  1  0  0  0
 26 27  2  0  0  0
  4  5  2  0  0  0
  8  9  1  0  0  0
  9 10  2  0  0  0
 10 11  1  0  0  0
 11 12  2  0  0  0
 12 13  1  0  0  0
 12 14  1  0  0  0
 14 15  2  0  0  0
  5  1  1  0  0  0
 15  9  1  0  0  0
 26 17  1  0  0  0
 25 20  1  0  0  0
M  END
> <minimizedAffinity>
-6.77637

> <CNNscore>
0.4959185421

> <CNNaffinity>
5.9334082603

> <CNN_VS>
2.9424872398

> <CNNaffinity_variance>
0.1536817253

$$$$
[H]c1nc2nc([H])n(C([H])([H])c3nc(C([H])([H])C([H])(F)c4c([H])c([H])c(Cl)c([H])c4[H])no3)c(=O)c2c([H])c1[H]


 27 30  0  0  0  0  0  0  0  0999 V2000
  156.8561  140.4255  182.9837 C   0  0  0  0  0  0  0  0  0  0  0  0
  156.0968  141.0675  182.1133 N   0  0  0  0  0  0  0  0  0  0  0  0
  154.8653  140.6672  182.1683 O   0  0  0  0  0  0  0  0  0  0  0  0
  154.7758  139.7252  183.1011 C   0  0  0  0  0  0  0  0  0  0  0  0
  156.0015  139.5628  183.6171 N   0  0  0  0  0  0  0  0  0  0  0  0
  158.2669  140.4603  183.3518 C   0  0  0  0  0  0  0  0  0  0  0  0
  159.4739  142.0731  182.0120 F   0  0  0  0  0  0  0  0  0  0  0  0
  158.9553  141.7844  183.2419 C   0  0  0  0  0  0  0  0  0  0  0  0
  159.9300  142.0600  184.3217 C   0  0  0  0  0  0  0  0  0  0  0  0
  161.2911  141.9774  184.0152 C   0  0  0  0  0  0  0  0  0  0  0  0
  162.2651  142.2008  184.9624 C   0  0  0  0  0  0  0  0  0  0  0  0
  161.9359  142.5179  186.2637 C   0  0  0  0  0  0  0  0  0  0  0  0
  163.1901  142.8005  187.4606 Cl  0  0  0  0  0  0  0  0  0  0  0  0
  160.5991  142.6029  186.5819 C   0  0  0  0  0  0  0  0  0  0  0  0
  159.6217  142.3758  185.6205 C   0  0  0  0  0  0  0  0  0  0  0  0
  153.5284  139.0035  183.4786 C   0  0  0  0  0  0  0  0  0  0  0  0
  153.8398  138.2773  184.7105 N   0  0  0  0  0  0  0  0  0  0  0  0
  153.9137  138.9448  185.8770 C   0  0  0  0  0  0  0  0  0  0  0  0
  154.2024  138.2371  186.9836 N   0  0  0  0  0  0  0  0  0  0  0  0
  154.4145  136.9079  186.9544 C   0  0  0  0  0  0  0  0  0  0  0  0
  154.7023  136.1977  188.0520 N   0  0  0  0  0  0  0  0  0  0  0  0
  154.9158  134.8549  188.0172 C   0  0  0  0  0  0  0  0  0  0  0  0
  154.8454  134.1500  186.8341 C   0  0  0  0  0  0  0  0  0  0  0  0
  154.5504  134.8571  185.6875 C   0  0  0  0  0  0  0  0  0  0  0  0
  154.3351  136.2386  185.7509 C   0  0  0  0  0  0  0  0  0  0  0  0
  154.0384  136.9600  184.6075 C   0  0  0  0  0  0  0  0  0  0  0  0
  153.9724  136.3251  183.5251 O   0  0  0  0  0  0  0  0  0  0  0  0
  7  8  1  0  0  0
  8  6  1  0  0  0
  6  1  1  0  0  0
  1  2  2  0  0  0
  2  3  1  0  0  0
  3  4  1  0  0  0
  4 16  1  0  0  0
 16 17  1  0  0  0
 17 18  1  0  0  0
 18 19  2  0  0  0
 19 20  1  0  0  0
 20 21  2  0  0  0
 21 22  1  0  0  0
 22 23  2  0  0  0
 23 24  1  0  0  0
 24 25  2  0  0  0
 25 26  1  0  0  0
 26 27  2  0  0  0
  4  5  2  0  0  0
  8  9  1  0  0  0
  9 10  2  0  0  0
 10 11  1  0  0  0
 11 12  2  0  0  0
 12 13  1  0  0  0
 12 14  1  0  0  0
 14 15  2  0  0  0
  5  1  1  0  0  0
 15  9  1  0  0  0
 26 17  1  0  0  0
 25 20  1  0  0  0
M  END
> <minimizedAffinity>
-7.71713

> <CNNscore>
0.4674154520

> <CNNaffinity>
6.2288780212

> <CNN_VS>
2.9114737511

> <CNNaffinity_variance>
0.1727053672

$$$$
[H]c1nc2nc([H])n(C([H])([H])c3nc(C([H])([H])C([H])(F)c4c([H])c([H])c(Cl)c([H])c4[H])no3)c(=O)c2c([H])c1[H]


 27 30  0  0  0  0  0  0  0  0999 V2000
  156.4811  140.3255  183.3573 C   0  0  0  0  0  0  0  0  0  0  0  0
  155.6545  140.4074  184.3850 N   0  0  0  0  0  0  0  0  0  0  0  0
  154.4393  140.6450  184.0018 O   0  0  0  0  0  0  0  0  0  0  0  0
  154.4307  140.7287  182.6757 C   0  0  0  0  0  0  0  0  0  0  0  0
  155.6890  140.5329  182.2596 N   0  0  0  0  0  0  0  0  0  0  0  0
  157.9102  140.0841  183.1939 C   0  0  0  0  0  0  0  0  0  0  0  0
  159.4498  141.2427  181.7310 F   0  0  0  0  0  0  0  0  0  0  0  0
  158.7634  141.2804  182.9109 C   0  0  0  0  0  0  0  0  0  0  0  0
  159.6354  141.6912  184.0348 C   0  0  0  0  0  0  0  0  0  0  0  0
  161.0027  141.8382  183.7858 C   0  0  0  0  0  0  0  0  0  0  0  0
  161.8880  142.1998  184.7764 C   0  0  0  0  0  0  0  0  0  0  0  0
  161.4592  142.4339  186.0663 C   0  0  0  0  0  0  0  0  0  0  0  0
  162.6008  142.8949  187.3191 Cl  0  0  0  0  0  0  0  0  0  0  0  0
  160.1148  142.2928  186.3280 C   0  0  0  0  0  0  0  0  0  0  0  0
  159.2275  141.9273  185.3229 C   0  0  0  0  0  0  0  0  0  0  0  0
  153.2274  140.9924  181.8378 C   0  0  0  0  0  0  0  0  0  0  0  0
  152.5006  139.7242  181.7654 N   0  0  0  0  0  0  0  0  0  0  0  0
  152.8589  138.7040  182.5670 C   0  0  0  0  0  0  0  0  0  0  0  0
  152.1632  137.5575  182.4664 N   0  0  0  0  0  0  0  0  0  0  0  0
  151.1407  137.4080  181.6035 C   0  0  0  0  0  0  0  0  0  0  0  0
  150.4443  136.2695  181.4984 N   0  0  0  0  0  0  0  0  0  0  0  0
  149.4120  136.1236  180.6250 C   0  0  0  0  0  0  0  0  0  0  0  0
  149.0271  137.1545  179.7939 C   0  0  0  0  0  0  0  0  0  0  0  0
  149.7277  138.3391  179.8814 C   0  0  0  0  0  0  0  0  0  0  0  0
  150.7860  138.4630  180.7888 C   0  0  0  0  0  0  0  0  0  0  0  0
  151.4972  139.6465  180.8864 C   0  0  0  0  0  0  0  0  0  0  0  0
  151.1528  140.5910  180.1326 O   0  0  0  0  0  0  0  0  0  0  0  0
  7  8  1  0  0  0
  8  6  1  0  0  0
  6  1  1  0  0  0
  1  2  2  0  0  0
  2  3  1  0  0  0
  3  4  1  0  0  0
  4 16  1  0  0  0
 16 17  1  0  0  0
 17 18  1  0  0  0
 18 19  2  0  0  0
 19 20  1  0  0  0
 20 21  2  0  0  0
 21 22  1  0  0  0
 22 23  2  0  0  0
 23 24  1  0  0  0
 24 25  2  0  0  0
 25 26  1  0  0  0
 26 27  2  0  0  0
  4  5  2  0  0  0
  8  9  1  0  0  0
  9 10  2  0  0  0
 10 11  1  0  0  0
 11 12  2  0  0  0
 12 13  1  0  0  0
 12 14  1  0  0  0
 14 15  2  0  0  0
  5  1  1  0  0  0
 15  9  1  0  0  0
 26 17  1  0  0  0
 25 20  1  0  0  0
M  END
> <minimizedAffinity>
-8.69656

> <CNNscore>
0.4594873786

> <CNNaffinity>
6.0183992386

> <CNN_VS>
2.7653784752

> <CNNaffinity_variance>
0.1233164296

$$$$
[H]c1nc2nc([H])n(C([H])([H])c3nc(C([H])([H])C([H])(F)c4c([H])c([H])c(Cl)c([H])c4[H])no3)c(=O)c2c([H])c1[H]


 27 30  0  0  0  0  0  0  0  0999 V2000
  154.1936  140.1593  182.8453 C   0  0  0  0  0  0  0  0  0  0  0  0
  153.8473  140.6997  181.6902 N   0  0  0  0  0  0  0  0  0  0  0  0
  152.9921  139.9610  181.0555 O   0  0  0  0  0  0  0  0  0  0  0  0
  152.7441  138.8846  181.7939 C   0  0  0  0  0  0  0  0  0  0  0  0
  153.4811  138.9915  182.9076 N   0  0  0  0  0  0  0  0  0  0  0  0
  155.0873  140.5308  183.9364 C   0  0  0  0  0  0  0  0  0  0  0  0
  157.2175  140.0126  184.9594 F   0  0  0  0  0  0  0  0  0  0  0  0
  156.5232  140.1361  183.7900 C   0  0  0  0  0  0  0  0  0  0  0  0
  157.2773  140.9263  182.7904 C   0  0  0  0  0  0  0  0  0  0  0  0
  157.1958  142.3199  182.8573 C   0  0  0  0  0  0  0  0  0  0  0  0
  157.8502  143.1310  181.9575 C   0  0  0  0  0  0  0  0  0  0  0  0
  158.6198  142.5981  180.9445 C   0  0  0  0  0  0  0  0  0  0  0  0
  159.4489  143.6462  179.8046 Cl  0  0  0  0  0  0  0  0  0  0  0  0
  158.7100  141.2266  180.8648 C   0  0  0  0  0  0  0  0  0  0  0  0
  158.0463  140.4144  181.7764 C   0  0  0  0  0  0  0  0  0  0  0  0
  151.8134  137.7821  181.4228 C   0  0  0  0  0  0  0  0  0  0  0  0
  150.5578  138.0623  182.1205 N   0  0  0  0  0  0  0  0  0  0  0  0
  149.7143  138.9886  181.6283 C   0  0  0  0  0  0  0  0  0  0  0  0
  148.5723  139.2133  182.3021 N   0  0  0  0  0  0  0  0  0  0  0  0
  148.2588  138.5499  183.4310 C   0  0  0  0  0  0  0  0  0  0  0  0
  147.1239  138.7688  184.1064 N   0  0  0  0  0  0  0  0  0  0  0  0
  146.8119  138.0960  185.2464 C   0  0  0  0  0  0  0  0  0  0  0  0
  147.6602  137.1429  185.7694 C   0  0  0  0  0  0  0  0  0  0  0  0
  148.8369  136.8973  185.0935 C   0  0  0  0  0  0  0  0  0  0  0  0
  149.1339  137.6037  183.9223 C   0  0  0  0  0  0  0  0  0  0  0  0
  150.3115  137.3667  183.2345 C   0  0  0  0  0  0  0  0  0  0  0  0
  151.0903  136.4997  183.7044 O   0  0  0  0  0  0  0  0  0  0  0  0
  7  8  1  0  0  0
  8  6  1  0  0  0
  6  1  1  0  0  0
  1  2  2  0  0  0
  2  3  1  0  0  0
  3  4  1  0  0  0
  4 16  1  0  0  0
 16 17  1  0  0  0
 17 18  1  0  0  0
 18 19  2  0  0  0
 19 20  1  0  0  0
 20 21  2  0  0  0
 21 22  1  0  0  0
 22 23  2  0  0  0
 23 24  1  0  0  0
 24 25  2  0  0  0
 25 26  1  0  0  0
 26 27  2  0  0  0
  4  5  2  0  0  0
  8  9  1  0  0  0
  9 10  2  0  0  0
 10 11  1  0  0  0
 11 12  2  0  0  0
 12 13  1  0  0  0
 12 14  1  0  0  0
 14 15  2  0  0  0
  5  1  1  0  0  0
 15  9  1  0  0  0
 26 17  1  0  0  0
 25 20  1  0  0  0
M  END
> <minimizedAffinity>
-7.31056

> <CNNscore>
0.4572663307

> <CNNaffinity>
5.9576687813

> <CNN_VS>
2.7242412567

> <CNNaffinity_variance>
0.1214346662

$$$$
[H]c1nc2c(c(=O)n(C([H])([H])C(=O)C([H])([H])OC([H])([H])[H])c(=O)n2C([H])([H])[H])n1[C@]([H])(C(=O)N([H])[H])C([H])([H])[H]


 25 26  0  0  0  0  0  0  0  0999 V2000
  150.3993  136.8424  184.1525 N   0  0  0  0  0  0  0  0  0  0  0  0
  149.3463  137.1694  184.9278 C   0  0  0  0  0  0  0  0  0  0  0  0
  149.3125  136.7644  186.1293 O   0  0  0  0  0  0  0  0  0  0  0  0
  148.3241  137.9171  184.4630 N   0  0  0  0  0  0  0  0  0  0  0  0
  147.1910  138.2461  185.3456 C   0  0  0  0  0  0  0  0  0  0  0  0
  148.3518  138.3518  183.1914 C   0  0  0  0  0  0  0  0  0  0  0  0
  147.4794  139.0961  182.4936 N   0  0  0  0  0  0  0  0  0  0  0  0
  147.9597  139.2618  181.2488 C   0  0  0  0  0  0  0  0  0  0  0  0
  149.1582  138.6102  181.1588 N   0  0  0  0  0  0  0  0  0  0  0  0
  149.3862  138.0597  182.3478 C   0  0  0  0  0  0  0  0  0  0  0  0
  150.4106  137.2851  182.8838 C   0  0  0  0  0  0  0  0  0  0  0  0
  151.4117  136.9619  182.1809 O   0  0  0  0  0  0  0  0  0  0  0  0
  149.9857  138.5451  180.0056 C   0  0  0  0  0  0  0  0  0  0  0  0
  149.1032  138.5344  178.7740 C   0  0  0  0  0  0  0  0  0  0  0  0
  150.8728  139.7459  179.8782 C   0  0  0  0  0  0  0  0  0  0  0  0
  150.7907  140.4476  178.6601 N   0  0  0  0  0  0  0  0  0  0  0  0
  151.6405  140.1234  180.7687 O   0  0  0  0  0  0  0  0  0  0  0  0
  150.6806  139.9311  177.7773 H   0  0  0  0  0  0  0  0  0  0  0  0
  150.8401  141.4763  178.6554 H   0  0  0  0  0  0  0  0  0  0  0  0
  151.5015  136.0264  184.6555 C   0  0  0  0  0  0  0  0  0  0  0  0
  152.4321  136.8309  185.4768 C   0  0  0  0  0  0  0  0  0  0  0  0
  152.9836  137.7881  184.9857 O   0  0  0  0  0  0  0  0  0  0  0  0
  152.6794  136.4600  186.8874 C   0  0  0  0  0  0  0  0  0  0  0  0
  153.1216  137.2943  188.9356 C   0  0  0  0  0  0  0  0  0  0  0  0
  153.4148  137.4108  187.5868 O   0  0  0  0  0  0  0  0  0  0  0  0
 24 25  1  0  0  0
 25 23  1  0  0  0
 23 21  1  0  0  0
 21 22  2  0  0  0
 21 20  1  0  0  0
 20  1  1  0  0  0
  1  2  1  0  0  0
  2  3  2  0  0  0
  2  4  1  0  0  0
  4  5  1  0  0  0
  4  6  1  0  0  0
  6  7  1  0  0  0
  7  8  2  0  0  0
  8  9  1  0  0  0
  9 13  1  0  0  0
 13 14  1  0  0  0
 13 15  1  0  0  0
 15 16  1  0  0  0
 15 17  2  0  0  0
  9 10  1  0  0  0
 10 11  1  0  0  0
 11 12  2  0  0  0
 11  1  1  0  0  0
 10  6  2  0  0  0
 16 18  1  0  0  0
 16 19  1  0  0  0
M  END
> <minimizedAffinity>
-3.97658

> <CNNscore>
0.5817585588

> <CNNaffinity>
4.5359234810

> <CNN_VS>
2.6388123035

> <CNNaffinity_variance>
0.0362411588

$$$$
[H]c1nc2c(c(=O)n(C([H])([H])C(=O)C([H])([H])OC([H])([H])[H])c(=O)n2C([H])([H])[H])n1[C@]([H])(C(=O)N([H])[H])C([H])([H])[H]


 25 26  0  0  0  0  0  0  0  0999 V2000
  155.0055  140.1352  183.5891 N   0  0  0  0  0  0  0  0  0  0  0  0
  155.1150  139.1182  184.4671 C   0  0  0  0  0  0  0  0  0  0  0  0
  156.0912  139.1014  185.2766 O   0  0  0  0  0  0  0  0  0  0  0  0
  154.2144  138.1146  184.5110 N   0  0  0  0  0  0  0  0  0  0  0  0
  154.3772  137.0208  185.4847 C   0  0  0  0  0  0  0  0  0  0  0  0
  153.1759  138.1246  183.6577 C   0  0  0  0  0  0  0  0  0  0  0  0
  152.1585  137.2642  183.4952 N   0  0  0  0  0  0  0  0  0  0  0  0
  151.3717  137.7160  182.5030 C   0  0  0  0  0  0  0  0  0  0  0  0
  151.9019  138.8842  182.0303 N   0  0  0  0  0  0  0  0  0  0  0  0
  153.0004  139.1225  182.7410 C   0  0  0  0  0  0  0  0  0  0  0  0
  153.9614  140.1291  182.7433 C   0  0  0  0  0  0  0  0  0  0  0  0
  153.8858  141.0964  181.9313 O   0  0  0  0  0  0  0  0  0  0  0  0
  151.3663  139.6760  180.9791 C   0  0  0  0  0  0  0  0  0  0  0  0
  152.1565  139.4046  179.7151 C   0  0  0  0  0  0  0  0  0  0  0  0
  149.9438  139.3195  180.6717 C   0  0  0  0  0  0  0  0  0  0  0  0
  149.7254  138.6457  179.4547 N   0  0  0  0  0  0  0  0  0  0  0  0
  148.9978  139.5865  181.4190 O   0  0  0  0  0  0  0  0  0  0  0  0
  150.2659  138.9075  178.6195 H   0  0  0  0  0  0  0  0  0  0  0  0
  149.0259  137.8916  179.4032 H   0  0  0  0  0  0  0  0  0  0  0  0
  155.9858  141.2168  183.5381 C   0  0  0  0  0  0  0  0  0  0  0  0
  156.9963  140.9745  182.4853 C   0  0  0  0  0  0  0  0  0  0  0  0
  157.6763  139.9761  182.5319 O   0  0  0  0  0  0  0  0  0  0  0  0
  157.1657  141.9516  181.3875 C   0  0  0  0  0  0  0  0  0  0  0  0
  158.3477  142.1566  179.4777 C   0  0  0  0  0  0  0  0  0  0  0  0
  157.4436  141.3594  180.1603 O   0  0  0  0  0  0  0  0  0  0  0  0
 24 25  1  0  0  0
 25 23  1  0  0  0
 23 21  1  0  0  0
 21 22  2  0  0  0
 21 20  1  0  0  0
 20  1  1  0  0  0
  1  2  1  0  0  0
  2  3  2  0  0  0
  2  4  1  0  0  0
  4  5  1  0  0  0
  4  6  1  0  0  0
  6  7  1  0  0  0
  7  8  2  0  0  0
  8  9  1  0  0  0
  9 13  1  0  0  0
 13 14  1  0  0  0
 13 15  1  0  0  0
 15 16  1  0  0  0
 15 17  2  0  0  0
  9 10  1  0  0  0
 10 11  1  0  0  0
 11 12  2  0  0  0
 11  1  1  0  0  0
 10  6  2  0  0  0
 16 18  1  0  0  0
 16 19  1  0  0  0
M  END
> <minimizedAffinity>
-5.78409

> <CNNscore>
0.5528563261

> <CNNaffinity>
4.9122881889

> <CNN_VS>
2.7157895565

> <CNNaffinity_variance>
0.1100672483

$$$$
[H]c1nc2c(c(=O)n(C([H])([H])C(=O)C([H])([H])OC([H])([H])[H])c(=O)n2C([H])([H])[H])n1[C@]([H])(C(=O)N([H])[H])C([H])([H])[H]


 25 26  0  0  0  0  0  0  0  0999 V2000
  157.7768  141.4000  183.0447 N   0  0  0  0  0  0  0  0  0  0  0  0
  157.2904  142.5194  182.4725 C   0  0  0  0  0  0  0  0  0  0  0  0
  156.2094  142.4577  181.8120 O   0  0  0  0  0  0  0  0  0  0  0  0
  157.9206  143.7073  182.5819 N   0  0  0  0  0  0  0  0  0  0  0  0
  157.3541  144.9041  181.9354 C   0  0  0  0  0  0  0  0  0  0  0  0
  159.0661  143.7825  183.2810 C   0  0  0  0  0  0  0  0  0  0  0  0
  159.8765  144.8212  183.5386 N   0  0  0  0  0  0  0  0  0  0  0  0
  160.9053  144.3846  184.2861 C   0  0  0  0  0  0  0  0  0  0  0  0
  160.7413  143.0451  184.5051 N   0  0  0  0  0  0  0  0  0  0  0  0
  159.6181  142.6899  183.8880 C   0  0  0  0  0  0  0  0  0  0  0  0
  158.9231  141.4933  183.7396 C   0  0  0  0  0  0  0  0  0  0  0  0
  159.3545  140.4262  184.2647 O   0  0  0  0  0  0  0  0  0  0  0  0
  161.6161  142.2105  185.2515 C   0  0  0  0  0  0  0  0  0  0  0  0
  162.9589  142.1641  184.5512 C   0  0  0  0  0  0  0  0  0  0  0  0
  161.8755  142.7492  186.6254 C   0  0  0  0  0  0  0  0  0  0  0  0
  160.7358  143.0597  187.3920 N   0  0  0  0  0  0  0  0  0  0  0  0
  163.0077  142.9223  187.0868 O   0  0  0  0  0  0  0  0  0  0  0  0
  159.9139  143.4828  186.9405 H   0  0  0  0  0  0  0  0  0  0  0  0
  160.7269  142.8619  188.4026 H   0  0  0  0  0  0  0  0  0  0  0  0
  157.0969  140.1134  182.9187 C   0  0  0  0  0  0  0  0  0  0  0  0
  156.0851  139.9358  183.9831 C   0  0  0  0  0  0  0  0  0  0  0  0
  156.4343  139.5668  185.0801 O   0  0  0  0  0  0  0  0  0  0  0  0
  154.6597  140.2106  183.6983 C   0  0  0  0  0  0  0  0  0  0  0  0
  153.1871  140.6907  182.0590 C   0  0  0  0  0  0  0  0  0  0  0  0
  154.2946  139.9261  182.3869 O   0  0  0  0  0  0  0  0  0  0  0  0
 24 25  1  0  0  0
 25 23  1  0  0  0
 23 21  1  0  0  0
 21 22  2  0  0  0
 21 20  1  0  0  0
 20  1  1  0  0  0
  1  2  1  0  0  0
  2  3  2  0  0  0
  2  4  1  0  0  0
  4  5  1  0  0  0
  4  6  1  0  0  0
  6  7  1  0  0  0
  7  8  2  0  0  0
  8  9  1  0  0  0
  9 13  1  0  0  0
 13 14  1  0  0  0
 13 15  1  0  0  0
 15 16  1  0  0  0
 15 17  2  0  0  0
  9 10  1  0  0  0
 10 11  1  0  0  0
 11 12  2  0  0  0
 11  1  1  0  0  0
 10  6  2  0  0  0
 16 18  1  0  0  0
 16 19  1  0  0  0
M  END
> <minimizedAffinity>
-6.85075

> <CNNscore>
0.5519363880

> <CNNaffinity>
5.9125061035

> <CNN_VS>
3.2633273602

> <CNNaffinity_variance>
0.1767478734

$$$$
[H]c1nc2c(c(=O)n(C([H])([H])C(=O)C([H])([H])OC([H])([H])[H])c(=O)n2C([H])([H])[H])n1[C@]([H])(C(=O)N([H])[H])C([H])([H])[H]


 25 26  0  0  0  0  0  0  0  0999 V2000
  153.6074  136.0755  188.1124 N   0  0  0  0  0  0  0  0  0  0  0  0
  154.7552  136.7251  188.3911 C   0  0  0  0  0  0  0  0  0  0  0  0
  155.4529  137.1863  187.4377 O   0  0  0  0  0  0  0  0  0  0  0  0
  155.1853  136.9001  189.6578 N   0  0  0  0  0  0  0  0  0  0  0  0
  156.4492  137.6127  189.9148 C   0  0  0  0  0  0  0  0  0  0  0  0
  154.4518  136.4158  190.6747 C   0  0  0  0  0  0  0  0  0  0  0  0
  154.6498  136.4524  192.0019 N   0  0  0  0  0  0  0  0  0  0  0  0
  153.6257  135.8226  192.6037 C   0  0  0  0  0  0  0  0  0  0  0  0
  152.7644  135.3803  191.6385 N   0  0  0  0  0  0  0  0  0  0  0  0
  153.2783  135.7472  190.4680 C   0  0  0  0  0  0  0  0  0  0  0  0
  152.8868  135.5976  189.1410 C   0  0  0  0  0  0  0  0  0  0  0  0
  151.8149  134.9928  188.8477 O   0  0  0  0  0  0  0  0  0  0  0  0
  151.5570  134.6661  191.8642 C   0  0  0  0  0  0  0  0  0  0  0  0
  151.6703  133.9232  193.1798 C   0  0  0  0  0  0  0  0  0  0  0  0
  150.3765  135.5795  191.9961 C   0  0  0  0  0  0  0  0  0  0  0  0
  149.6205  135.7840  190.8259 N   0  0  0  0  0  0  0  0  0  0  0  0
  150.0595  136.1349  193.0524 O   0  0  0  0  0  0  0  0  0  0  0  0
  150.0948  135.8654  189.9166 H   0  0  0  0  0  0  0  0  0  0  0  0
  148.5944  135.8507  190.8822 H   0  0  0  0  0  0  0  0  0  0  0  0
  153.1473  135.8804  186.7398 C   0  0  0  0  0  0  0  0  0  0  0  0
  152.0798  136.8432  186.3909 C   0  0  0  0  0  0  0  0  0  0  0  0
  152.2475  138.0210  186.6057 O   0  0  0  0  0  0  0  0  0  0  0  0
  150.8206  136.3593  185.7836 C   0  0  0  0  0  0  0  0  0  0  0  0
  149.1554  137.2781  184.5715 C   0  0  0  0  0  0  0  0  0  0  0  0
  150.5099  136.9887  184.5831 O   0  0  0  0  0  0  0  0  0  0  0  0
 24 25  1  0  0  0
 25 23  1  0  0  0
 23 21  1  0  0  0
 21 22  2  0  0  0
 21 20  1  0  0  0
 20  1  1  0  0  0
  1  2  1  0  0  0
  2  3  2  0  0  0
  2  4  1  0  0  0
  4  5  1  0  0  0
  4  6  1  0  0  0
  6  7  1  0  0  0
  7  8  2  0  0  0
  8  9  1  0  0  0
  9 13  1  0  0  0
 13 14  1  0  0  0
 13 15  1  0  0  0
 15 16  1  0  0  0
 15 17  2  0  0  0
  9 10  1  0  0  0
 10 11  1  0  0  0
 11 12  2  0  0  0
 11  1  1  0  0  0
 10  6  2  0  0  0
 16 18  1  0  0  0
 16 19  1  0  0  0
M  END
> <minimizedAffinity>
-3.37587

> <CNNscore>
0.5425186157

> <CNNaffinity>
4.4731531143

> <CNN_VS>
2.4267687798

> <CNNaffinity_variance>
0.0141457291

$$$$
[H]c1nc2c(c(=O)n(C([H])([H])C(=O)C([H])([H])OC([H])([H])[H])c(=O)n2C([H])([H])[H])n1[C@]([H])(C(=O)N([H])[H])C([H])([H])[H]


 25 26  0  0  0  0  0  0  0  0999 V2000
  153.8380  136.1062  189.7914 N   0  0  0  0  0  0  0  0  0  0  0  0
  153.6655  136.3396  191.1077 C   0  0  0  0  0  0  0  0  0  0  0  0
  154.6771  136.5929  191.8295 O   0  0  0  0  0  0  0  0  0  0  0  0
  152.4451  136.3121  191.6823 N   0  0  0  0  0  0  0  0  0  0  0  0
  152.3048  136.5688  193.1264 C   0  0  0  0  0  0  0  0  0  0  0  0
  151.3671  136.0457  190.9250 C   0  0  0  0  0  0  0  0  0  0  0  0
  150.0654  135.9593  191.2414 N   0  0  0  0  0  0  0  0  0  0  0  0
  149.3736  135.6667  190.1263 C   0  0  0  0  0  0  0  0  0  0  0  0
  150.2549  135.5670  189.0859 N   0  0  0  0  0  0  0  0  0  0  0  0
  151.4656  135.7995  189.5846 C   0  0  0  0  0  0  0  0  0  0  0  0
  152.7495  135.8412  189.0493 C   0  0  0  0  0  0  0  0  0  0  0  0
  152.9434  135.6263  187.8177 O   0  0  0  0  0  0  0  0  0  0  0  0
  149.9204  135.2697  187.7373 C   0  0  0  0  0  0  0  0  0  0  0  0
  148.6983  134.3741  187.7256 C   0  0  0  0  0  0  0  0  0  0  0  0
  149.5503  136.4981  186.9631 C   0  0  0  0  0  0  0  0  0  0  0  0
  148.1800  136.6620  186.6836 N   0  0  0  0  0  0  0  0  0  0  0  0
  150.3730  137.3349  186.5788 O   0  0  0  0  0  0  0  0  0  0  0  0
  147.6043  135.8440  186.4431 H   0  0  0  0  0  0  0  0  0  0  0  0
  147.7564  137.5999  186.7214 H   0  0  0  0  0  0  0  0  0  0  0  0
  155.1610  136.1289  189.1727 C   0  0  0  0  0  0  0  0  0  0  0  0
  155.4590  137.4573  188.5942 C   0  0  0  0  0  0  0  0  0  0  0  0
  155.5141  138.4231  189.3193 O   0  0  0  0  0  0  0  0  0  0  0  0
  155.6869  137.5932  187.1388 C   0  0  0  0  0  0  0  0  0  0  0  0
  155.1959  138.7445  185.2627 C   0  0  0  0  0  0  0  0  0  0  0  0
  154.7077  138.3418  186.4949 O   0  0  0  0  0  0  0  0  0  0  0  0
 24 25  1  0  0  0
 25 23  1  0  0  0
 23 21  1  0  0  0
 21 22  2  0  0  0
 21 20  1  0  0  0
 20  1  1  0  0  0
  1  2  1  0  0  0
  2  3  2  0  0  0
  2  4  1  0  0  0
  4  5  1  0  0  0
  4  6  1  0  0  0
  6  7  1  0  0  0
  7  8  2  0  0  0
  8  9  1  0  0  0
  9 13  1  0  0  0
 13 14  1  0  0  0
 13 15  1  0  0  0
 15 16  1  0  0  0
 15 17  2  0  0  0
  9 10  1  0  0  0
 10 11  1  0  0  0
 11 12  2  0  0  0
 11  1  1  0  0  0
 10  6  2  0  0  0
 16 18  1  0  0  0
 16 19  1  0  0  0
M  END
> <minimizedAffinity>
-3.51096

> <CNNscore>
0.5382871032

> <CNNaffinity>
4.4477324486

> <CNN_VS>
2.3941569328

> <CNNaffinity_variance>
0.0644118637

$$$$
[H]c1nc2c(c(=O)n(C([H])([H])C(=O)C([H])([H])OC([H])([H])[H])c(=O)n2C([H])([H])[H])n1[C@]([H])(C(=O)N([H])[H])C([H])([H])[H]


 25 26  0  0  0  0  0  0  0  0999 V2000
  157.7290  141.3092  183.1358 N   0  0  0  0  0  0  0  0  0  0  0  0
  157.2267  142.4097  182.5411 C   0  0  0  0  0  0  0  0  0  0  0  0
  156.1366  142.3234  181.8986 O   0  0  0  0  0  0  0  0  0  0  0  0
  157.8505  143.6041  182.6092 N   0  0  0  0  0  0  0  0  0  0  0  0
  157.2666  144.7794  181.9394 C   0  0  0  0  0  0  0  0  0  0  0  0
  159.0057  143.7053  183.2889 C   0  0  0  0  0  0  0  0  0  0  0  0
  159.8128  144.7556  183.5065 N   0  0  0  0  0  0  0  0  0  0  0  0
  160.8554  144.3458  184.2500 C   0  0  0  0  0  0  0  0  0  0  0  0
  160.7036  143.0117  184.5072 N   0  0  0  0  0  0  0  0  0  0  0  0
  159.5738  142.6329  183.9166 C   0  0  0  0  0  0  0  0  0  0  0  0
  158.8848  141.4284  183.8108 C   0  0  0  0  0  0  0  0  0  0  0  0
  159.3311  140.3785  184.3578 O   0  0  0  0  0  0  0  0  0  0  0  0
  161.5949  142.2029  185.2626 C   0  0  0  0  0  0  0  0  0  0  0  0
  162.9363  142.1700  184.5589 C   0  0  0  0  0  0  0  0  0  0  0  0
  161.8487  142.7654  186.6280 C   0  0  0  0  0  0  0  0  0  0  0  0
  160.7060  143.0729  187.3911 N   0  0  0  0  0  0  0  0  0  0  0  0
  162.9791  142.9597  187.0854 O   0  0  0  0  0  0  0  0  0  0  0  0
  159.8783  143.4786  186.9344 H   0  0  0  0  0  0  0  0  0  0  0  0
  160.7005  142.8901  188.4046 H   0  0  0  0  0  0  0  0  0  0  0  0
  157.0560  140.0154  183.0544 C   0  0  0  0  0  0  0  0  0  0  0  0
  156.0526  139.8650  184.1308 C   0  0  0  0  0  0  0  0  0  0  0  0
  154.9488  140.3360  183.9852 O   0  0  0  0  0  0  0  0  0  0  0  0
  156.4060  139.1418  185.3720 C   0  0  0  0  0  0  0  0  0  0  0  0
  155.7448  137.9089  187.1410 C   0  0  0  0  0  0  0  0  0  0  0  0
  155.3302  138.4727  185.9456 O   0  0  0  0  0  0  0  0  0  0  0  0
 24 25  1  0  0  0
 25 23  1  0  0  0
 23 21  1  0  0  0
 21 22  2  0  0  0
 21 20  1  0  0  0
 20  1  1  0  0  0
  1  2  1  0  0  0
  2  3  2  0  0  0
  2  4  1  0  0  0
  4  5  1  0  0  0
  4  6  1  0  0  0
  6  7  1  0  0  0
  7  8  2  0  0  0
  8  9  1  0  0  0
  9 13  1  0  0  0
 13 14  1  0  0  0
 13 15  1  0  0  0
 15 16  1  0  0  0
 15 17  2  0  0  0
  9 10  1  0  0  0
 10 11  1  0  0  0
 11 12  2  0  0  0
 11  1  1  0  0  0
 10  6  2  0  0  0
 16 18  1  0  0  0
 16 19  1  0  0  0
M  END
> <minimizedAffinity>
-6.55189

> <CNNscore>
0.5236974955

> <CNNaffinity>
5.9757041931

> <CNN_VS>
3.1294612885

> <CNNaffinity_variance>
0.1571938992

$$$$
[H]c1nc2c(c(=O)n(C([H])([H])C(=O)C([H])([H])OC([H])([H])[H])c(=O)n2C([H])([H])[H])n1[C@]([H])(C(=O)N([H])[H])C([H])([H])[H]


 25 26  0  0  0  0  0  0  0  0999 V2000
  153.5792  139.7280  183.0224 N   0  0  0  0  0  0  0  0  0  0  0  0
  153.9157  139.0203  184.1191 C   0  0  0  0  0  0  0  0  0  0  0  0
  153.0807  138.1996  184.6068 O   0  0  0  0  0  0  0  0  0  0  0  0
  155.1179  139.1588  184.7155 N   0  0  0  0  0  0  0  0  0  0  0  0
  155.4405  138.3674  185.9158 C   0  0  0  0  0  0  0  0  0  0  0  0
  156.0097  140.0253  184.2050 C   0  0  0  0  0  0  0  0  0  0  0  0
  157.2520  140.3477  184.5981 N   0  0  0  0  0  0  0  0  0  0  0  0
  157.7393  141.2750  183.7552 C   0  0  0  0  0  0  0  0  0  0  0  0
  156.7870  141.5428  182.8116 N   0  0  0  0  0  0  0  0  0  0  0  0
  155.7383  140.7760  183.0961 C   0  0  0  0  0  0  0  0  0  0  0  0
  154.4826  140.5899  182.5256 C   0  0  0  0  0  0  0  0  0  0  0  0
  154.1378  141.2396  181.4962 O   0  0  0  0  0  0  0  0  0  0  0  0
  156.9134  142.4679  181.7406 C   0  0  0  0  0  0  0  0  0  0  0  0
  157.0807  143.8591  182.3172 C   0  0  0  0  0  0  0  0  0  0  0  0
  158.1323  142.2067  180.9093 C   0  0  0  0  0  0  0  0  0  0  0  0
  158.0499  141.1203  180.0172 N   0  0  0  0  0  0  0  0  0  0  0  0
  159.1623  142.8842  180.9787 O   0  0  0  0  0  0  0  0  0  0  0  0
  157.5620  140.2601  180.3006 H   0  0  0  0  0  0  0  0  0  0  0  0
  158.4771  141.1892  179.0827 H   0  0  0  0  0  0  0  0  0  0  0  0
  152.2741  139.5821  182.3827 C   0  0  0  0  0  0  0  0  0  0  0  0
  152.3476  138.6745  181.2169 C   0  0  0  0  0  0  0  0  0  0  0  0
  152.6119  137.5072  181.3875 O   0  0  0  0  0  0  0  0  0  0  0  0
  152.0975  139.1999  179.8568 C   0  0  0  0  0  0  0  0  0  0  0  0
  149.8995  138.9729  179.4052 C   0  0  0  0  0  0  0  0  0  0  0  0
  150.8902  139.8805  179.7421 O   0  0  0  0  0  0  0  0  0  0  0  0
 24 25  1  0  0  0
 25 23  1  0  0  0
 23 21  1  0  0  0
 21 22  2  0  0  0
 21 20  1  0  0  0
 20  1  1  0  0  0
  1  2  1  0  0  0
  2  3  2  0  0  0
  2  4  1  0  0  0
  4  5  1  0  0  0
  4  6  1  0  0  0
  6  7  1  0  0  0
  7  8  2  0  0  0
  8  9  1  0  0  0
  9 13  1  0  0  0
 13 14  1  0  0  0
 13 15  1  0  0  0
 15 16  1  0  0  0
 15 17  2  0  0  0
  9 10  1  0  0  0
 10 11  1  0  0  0
 11 12  2  0  0  0
 11  1  1  0  0  0
 10  6  2  0  0  0
 16 18  1  0  0  0
 16 19  1  0  0  0
M  END
> <minimizedAffinity>
-6.00281

> <CNNscore>
0.5130815506

> <CNNaffinity>
5.0805273056

> <CNN_VS>
2.6067247391

> <CNNaffinity_variance>
0.2787842453

$$$$
[H]c1nc2c(c(=O)n(C([H])([H])C(=O)C([H])([H])OC([H])([H])[H])c(=O)n2C([H])([H])[H])n1[C@]([H])(C(=O)N([H])[H])C([H])([H])[H]


 25 26  0  0  0  0  0  0  0  0999 V2000
  156.1552  140.2467  183.6868 N   0  0  0  0  0  0  0  0  0  0  0  0
  155.1187  140.3532  182.8315 C   0  0  0  0  0  0  0  0  0  0  0  0
  155.2194  141.1242  181.8295 O   0  0  0  0  0  0  0  0  0  0  0  0
  153.9740  139.6617  183.0096 N   0  0  0  0  0  0  0  0  0  0  0  0
  152.8651  139.8132  182.0511 C   0  0  0  0  0  0  0  0  0  0  0  0
  153.8587  138.8412  184.0680 C   0  0  0  0  0  0  0  0  0  0  0  0
  152.8475  138.0549  184.4693 N   0  0  0  0  0  0  0  0  0  0  0  0
  153.2188  137.4248  185.5975 C   0  0  0  0  0  0  0  0  0  0  0  0
  154.4885  137.8203  185.9144 N   0  0  0  0  0  0  0  0  0  0  0  0
  154.8674  138.6831  184.9759 C   0  0  0  0  0  0  0  0  0  0  0  0
  156.0226  139.4222  184.7396 C   0  0  0  0  0  0  0  0  0  0  0  0
  157.0118  139.3436  185.5244 O   0  0  0  0  0  0  0  0  0  0  0  0
  155.2411  137.3820  187.0371 C   0  0  0  0  0  0  0  0  0  0  0  0
  154.7640  138.1313  188.2646 C   0  0  0  0  0  0  0  0  0  0  0  0
  155.0319  135.9263  187.3240 C   0  0  0  0  0  0  0  0  0  0  0  0
  154.2832  135.6260  188.4781 N   0  0  0  0  0  0  0  0  0  0  0  0
  155.4762  135.0208  186.6116 O   0  0  0  0  0  0  0  0  0  0  0  0
  154.4026  136.1924  189.3286 H   0  0  0  0  0  0  0  0  0  0  0  0
  153.6169  134.8407  188.4685 H   0  0  0  0  0  0  0  0  0  0  0  0
  157.3908  141.0020  183.4964 C   0  0  0  0  0  0  0  0  0  0  0  0
  158.2540  140.3682  182.4758 C   0  0  0  0  0  0  0  0  0  0  0  0
  158.5337  139.1965  182.5778 O   0  0  0  0  0  0  0  0  0  0  0  0
  158.7656  141.1697  181.3425 C   0  0  0  0  0  0  0  0  0  0  0  0
  158.1351  142.2041  179.4401 C   0  0  0  0  0  0  0  0  0  0  0  0
  157.9977  141.0473  180.1895 O   0  0  0  0  0  0  0  0  0  0  0  0
 24 25  1  0  0  0
 25 23  1  0  0  0
 23 21  1  0  0  0
 21 22  2  0  0  0
 21 20  1  0  0  0
 20  1  1  0  0  0
  1  2  1  0  0  0
  2  3  2  0  0  0
  2  4  1  0  0  0
  4  5  1  0  0  0
  4  6  1  0  0  0
  6  7  1  0  0  0
  7  8  2  0  0  0
  8  9  1  0  0  0
  9 13  1  0  0  0
 13 14  1  0  0  0
 13 15  1  0  0  0
 15 16  1  0  0  0
 15 17  2  0  0  0
  9 10  1  0  0  0
 10 11  1  0  0  0
 11 12  2  0  0  0
 11  1  1  0  0  0
 10  6  2  0  0  0
 16 18  1  0  0  0
 16 19  1  0  0  0
M  END
> <minimizedAffinity>
-5.65038

> <CNNscore>
0.5109162331

> <CNNaffinity>
4.8720407486

> <CNN_VS>
2.4892046452

> <CNNaffinity_variance>
0.1724485010

$$$$
[H]c1nc2c(c(=O)n(C([H])([H])C(=O)C([H])([H])OC([H])([H])[H])c(=O)n2C([H])([H])[H])n1[C@]([H])(C(=O)N([H])[H])C([H])([H])[H]


 25 26  0  0  0  0  0  0  0  0999 V2000
  150.3452  136.8451  184.1667 N   0  0  0  0  0  0  0  0  0  0  0  0
  149.2936  137.1892  184.9366 C   0  0  0  0  0  0  0  0  0  0  0  0
  149.2449  136.7813  186.1365 O   0  0  0  0  0  0  0  0  0  0  0  0
  148.2882  137.9570  184.4678 N   0  0  0  0  0  0  0  0  0  0  0  0
  147.1559  138.3042  185.3445 C   0  0  0  0  0  0  0  0  0  0  0  0
  148.3318  138.3949  183.1977 C   0  0  0  0  0  0  0  0  0  0  0  0
  147.4776  139.1572  182.4969 N   0  0  0  0  0  0  0  0  0  0  0  0
  147.9686  139.3177  181.2555 C   0  0  0  0  0  0  0  0  0  0  0  0
  149.1554  138.6444  181.1709 N   0  0  0  0  0  0  0  0  0  0  0  0
  149.3658  138.0863  182.3596 C   0  0  0  0  0  0  0  0  0  0  0  0
  150.3725  137.2912  182.8994 C   0  0  0  0  0  0  0  0  0  0  0  0
  151.3718  136.9517  182.2018 O   0  0  0  0  0  0  0  0  0  0  0  0
  149.9887  138.5674  180.0226 C   0  0  0  0  0  0  0  0  0  0  0  0
  149.1133  138.5649  178.7860 C   0  0  0  0  0  0  0  0  0  0  0  0
  150.8906  139.7575  179.8983 C   0  0  0  0  0  0  0  0  0  0  0  0
  150.8337  140.4498  178.6734 N   0  0  0  0  0  0  0  0  0  0  0  0
  151.6494  140.1340  180.7967 O   0  0  0  0  0  0  0  0  0  0  0  0
  150.7307  139.9272  177.7934 H   0  0  0  0  0  0  0  0  0  0  0  0
  150.8944  141.4778  178.6609 H   0  0  0  0  0  0  0  0  0  0  0  0
  151.4290  136.0074  184.6739 C   0  0  0  0  0  0  0  0  0  0  0  0
  151.2094  134.5844  184.3348 C   0  0  0  0  0  0  0  0  0  0  0  0
  150.2725  133.9947  184.8207 O   0  0  0  0  0  0  0  0  0  0  0  0
  152.1340  133.8967  183.4070 C   0  0  0  0  0  0  0  0  0  0  0  0
  152.5840  133.4526  181.2421 C   0  0  0  0  0  0  0  0  0  0  0  0
  151.5670  133.6207  182.1675 O   0  0  0  0  0  0  0  0  0  0  0  0
 24 25  1  0  0  0
 25 23  1  0  0  0
 23 21  1  0  0  0
 21 22  2  0  0  0
 21 20  1  0  0  0
 20  1  1  0  0  0
  1  2  1  0  0  0
  2  3  2  0  0  0
  2  4  1  0  0  0
  4  5  1  0  0  0
  4  6  1  0  0  0
  6  7  1  0  0  0
  7  8  2  0  0  0
  8  9  1  0  0  0
  9 13  1  0  0  0
 13 14  1  0  0  0
 13 15  1  0  0  0
 15 16  1  0  0  0
 15 17  2  0  0  0
  9 10  1  0  0  0
 10 11  1  0  0  0
 11 12  2  0  0  0
 11  1  1  0  0  0
 10  6  2  0  0  0
 16 18  1  0  0  0
 16 19  1  0  0  0
M  END
> <minimizedAffinity>
-3.57406

> <CNNscore>
0.4853580892

> <CNNaffinity>
4.3721165657

> <CNN_VS>
2.1220421791

> <CNNaffinity_variance>
0.0772332326

$$$$
[H]c1nc(-c2c([H])nc(N3C([H])([H])C4([H])C([H])([H])C4([H])C3([H])[H])nc2[H])nc(N([H])C(=O)[C@@]([H])(n2c([H])nc3c2c(=O)n(C([H])([H])C#CC([H])([H])[H])c(=O)n3C([H])([H])[H])C([H])([H])[H])c1[H]


 40 45  0  0  0  0  0  0  0  0999 V2000
  154.6553  137.3179  188.9080 C   0  0  0  0  0  0  0  0  0  0  0  0
  155.6022  137.7530  188.2407 O   0  0  0  0  0  0  0  0  0  0  0  0
  153.4874  136.8017  188.3394 N   0  0  0  0  0  0  0  0  0  0  0  0
  152.7253  136.4491  189.0295 H   0  0  0  0  0  0  0  0  0  0  0  0
  153.1360  136.6653  186.9852 C   0  0  0  0  0  0  0  0  0  0  0  0
  152.1069  137.3620  186.4186 C   0  0  0  0  0  0  0  0  0  0  0  0
  151.7943  137.1939  185.0717 C   0  0  0  0  0  0  0  0  0  0  0  0
  152.5147  136.3454  184.3520 N   0  0  0  0  0  0  0  0  0  0  0  0
  153.5285  135.6507  184.8844 C   0  0  0  0  0  0  0  0  0  0  0  0
  153.8253  135.8128  186.1709 N   0  0  0  0  0  0  0  0  0  0  0  0
  154.2750  134.7305  184.0149 C   0  0  0  0  0  0  0  0  0  0  0  0
  154.2248  134.8277  182.6402 C   0  0  0  0  0  0  0  0  0  0  0  0
  154.9245  133.9650  181.8692 N   0  0  0  0  0  0  0  0  0  0  0  0
  155.6870  132.9915  182.3896 C   0  0  0  0  0  0  0  0  0  0  0  0
  155.7418  132.8895  183.7266 N   0  0  0  0  0  0  0  0  0  0  0  0
  155.0599  133.7284  184.5430 C   0  0  0  0  0  0  0  0  0  0  0  0
  156.4187  132.0895  181.5586 N   0  0  0  0  0  0  0  0  0  0  0  0
  157.1822  130.9255  181.9576 C   0  0  0  0  0  0  0  0  0  0  0  0
  158.3301  130.8379  180.9742 C   0  0  0  0  0  0  0  0  0  0  0  0
  159.0558  132.1004  180.6824 C   0  0  0  0  0  0  0  0  0  0  0  0
  157.9519  131.6683  179.8072 C   0  0  0  0  0  0  0  0  0  0  0  0
  156.5384  132.1703  180.1178 C   0  0  0  0  0  0  0  0  0  0  0  0
  154.8094  137.3654  190.4105 C   0  0  0  0  0  0  0  0  0  0  0  0
  156.2211  137.8507  190.7544 C   0  0  0  0  0  0  0  0  0  0  0  0
  151.3979  134.9358  192.1056 N   0  0  0  0  0  0  0  0  0  0  0  0
  151.7626  133.7243  192.5211 C   0  0  0  0  0  0  0  0  0  0  0  0
  150.9113  132.9146  193.0268 O   0  0  0  0  0  0  0  0  0  0  0  0
  153.0500  133.3568  192.4023 N   0  0  0  0  0  0  0  0  0  0  0  0
  153.4238  132.0380  192.8594 C   0  0  0  0  0  0  0  0  0  0  0  0
  154.0036  134.1603  191.8778 C   0  0  0  0  0  0  0  0  0  0  0  0
  155.3109  134.0521  191.6497 N   0  0  0  0  0  0  0  0  0  0  0  0
  155.7133  135.2056  191.0981 C   0  0  0  0  0  0  0  0  0  0  0  0
  154.6731  136.0405  190.9759 N   0  0  0  0  0  0  0  0  0  0  0  0
  153.6019  135.4031  191.4573 C   0  0  0  0  0  0  0  0  0  0  0  0
  152.2988  135.7748  191.5778 C   0  0  0  0  0  0  0  0  0  0  0  0
  151.9347  136.9245  191.1871 O   0  0  0  0  0  0  0  0  0  0  0  0
  150.0124  135.3437  192.2291 C   0  0  0  0  0  0  0  0  0  0  0  0
  148.2056  134.8691  188.5843 C   0  0  0  0  0  0  0  0  0  0  0  0
  148.8235  135.0351  189.8864 C   0  0  0  0  0  0  0  0  0  0  0  0
  149.3508  135.1708  190.9488 C   0  0  0  0  0  0  0  0  0  0  0  0
 38 39  1  0  0  0
 39 40  3  0  0  0
 40 37  1  0  0  0
 37 25  1  0  0  0
 25 26  1  0  0  0
 26 27  2  0  0  0
 26 28  1  0  0  0
 28 29  1  0  0  0
 28 30  1  0  0  0
 30 31  1  0  0  0
 31 32  2  0  0  0
 32 33  1  0  0  0
 33 23  1  0  0  0
 23 24  1  0  0  0
 23  1  1  0  0  0
  1  2  2  0  0  0
  1  3  1  0  0  0
  3  5  1  0  0  0
  5  6  2  0  0  0
  6  7  1  0  0  0
  7  8  2  0  0  0
  8  9  1  0  0  0
  9 10  2  0  0  0
  9 11  1  0  0  0
 11 12  2  0  0  0
 12 13  1  0  0  0
 13 14  2  0  0  0
 14 15  1  0  0  0
 15 16  2  0  0  0
 14 17  1  0  0  0
 17 18  1  0  0  0
 18 19  1  0  0  0
 19 20  1  0  0  0
 20 21  1  0  0  0
 21 22  1  0  0  0
 33 34  1  0  0  0
 34 35  1  0  0  0
 35 36  2  0  0  0
 35 25  1  0  0  0
 34 30  2  0  0  0
 10  5  1  0  0  0
 16 11  1  0  0  0
 22 17  1  0  0  0
 21 19  1  0  0  0
  3  4  1  0  0  0
M  END
> <minimizedAffinity>
-5.60857

> <CNNscore>
0.3778219521

> <CNNaffinity>
6.1138610840

> <CNN_VS>
2.3099508286

> <CNNaffinity_variance>
0.0490949154

$$$$
[H]c1nc(-c2c([H])nc(N3C([H])([H])C4([H])C([H])([H])C4([H])C3([H])[H])nc2[H])nc(N([H])C(=O)[C@@]([H])(n2c([H])nc3c2c(=O)n(C([H])([H])C#CC([H])([H])[H])c(=O)n3C([H])([H])[H])C([H])([H])[H])c1[H]


 40 45  0  0  0  0  0  0  0  0999 V2000
  150.8934  134.7394  192.6591 C   0  0  0  0  0  0  0  0  0  0  0  0
  150.1600  135.5210  193.2777 O   0  0  0  0  0  0  0  0  0  0  0  0
  150.4801  134.0304  191.5276 N   0  0  0  0  0  0  0  0  0  0  0  0
  151.2152  133.3735  191.0702 H   0  0  0  0  0  0  0  0  0  0  0  0
  149.2350  134.0331  190.8752 C   0  0  0  0  0  0  0  0  0  0  0  0
  148.1680  133.3082  191.3239 C   0  0  0  0  0  0  0  0  0  0  0  0
  146.9527  133.3410  190.6440 C   0  0  0  0  0  0  0  0  0  0  0  0
  146.8530  134.0891  189.5543 N   0  0  0  0  0  0  0  0  0  0  0  0
  147.8845  134.8089  189.0944 C   0  0  0  0  0  0  0  0  0  0  0  0
  149.0441  134.7760  189.7453 N   0  0  0  0  0  0  0  0  0  0  0  0
  147.6876  135.6106  187.8785 C   0  0  0  0  0  0  0  0  0  0  0  0
  147.5869  136.9852  187.9225 C   0  0  0  0  0  0  0  0  0  0  0  0
  147.4065  137.6929  186.7846 N   0  0  0  0  0  0  0  0  0  0  0  0
  147.3181  137.1080  185.5805 C   0  0  0  0  0  0  0  0  0  0  0  0
  147.4151  135.7705  185.5281 N   0  0  0  0  0  0  0  0  0  0  0  0
  147.5960  135.0160  186.6387 C   0  0  0  0  0  0  0  0  0  0  0  0
  147.1272  137.8727  184.3895 N   0  0  0  0  0  0  0  0  0  0  0  0
  146.8117  137.3932  183.0600 C   0  0  0  0  0  0  0  0  0  0  0  0
  147.4940  138.3551  182.1104 C   0  0  0  0  0  0  0  0  0  0  0  0
  148.9004  138.7153  182.4229 C   0  0  0  0  0  0  0  0  0  0  0  0
  147.8000  139.5757  182.8921 C   0  0  0  0  0  0  0  0  0  0  0  0
  147.2148  139.3141  184.2833 C   0  0  0  0  0  0  0  0  0  0  0  0
  152.2994  134.5714  193.1867 C   0  0  0  0  0  0  0  0  0  0  0  0
  152.3588  135.0871  194.6280 C   0  0  0  0  0  0  0  0  0  0  0  0
  155.9954  133.7222  190.7305 N   0  0  0  0  0  0  0  0  0  0  0  0
  156.5364  134.8120  190.1893 C   0  0  0  0  0  0  0  0  0  0  0  0
  157.5883  134.7383  189.4652 O   0  0  0  0  0  0  0  0  0  0  0  0
  155.9588  136.0046  190.4144 N   0  0  0  0  0  0  0  0  0  0  0  0
  156.5624  137.1740  189.8175 C   0  0  0  0  0  0  0  0  0  0  0  0
  154.8464  136.1575  191.1688 C   0  0  0  0  0  0  0  0  0  0  0  0
  154.0913  137.1886  191.5422 N   0  0  0  0  0  0  0  0  0  0  0  0
  153.1037  136.7001  192.3056 C   0  0  0  0  0  0  0  0  0  0  0  0
  153.2281  135.3712  192.4176 N   0  0  0  0  0  0  0  0  0  0  0  0
  154.3088  135.0193  191.7149 C   0  0  0  0  0  0  0  0  0  0  0  0
  154.8937  133.8124  191.4869 C   0  0  0  0  0  0  0  0  0  0  0  0
  154.3915  132.7650  191.9946 O   0  0  0  0  0  0  0  0  0  0  0  0
  156.6097  132.4305  190.4953 C   0  0  0  0  0  0  0  0  0  0  0  0
  158.9829  131.4516  193.6865 C   0  0  0  0  0  0  0  0  0  0  0  0
  158.1222  131.7918  192.5692 C   0  0  0  0  0  0  0  0  0  0  0  0
  157.4305  132.0797  191.6398 C   0  0  0  0  0  0  0  0  0  0  0  0
 38 39  1  0  0  0
 39 40  3  0  0  0
 40 37  1  0  0  0
 37 25  1  0  0  0
 25 26  1  0  0  0
 26 27  2  0  0  0
 26 28  1  0  0  0
 28 29  1  0  0  0
 28 30  1  0  0  0
 30 31  1  0  0  0
 31 32  2  0  0  0
 32 33  1  0  0  0
 33 23  1  0  0  0
 23 24  1  0  0  0
 23  1  1  0  0  0
  1  2  2  0  0  0
  1  3  1  0  0  0
  3  5  1  0  0  0
  5  6  2  0  0  0
  6  7  1  0  0  0
  7  8  2  0  0  0
  8  9  1  0  0  0
  9 10  2  0  0  0
  9 11  1  0  0  0
 11 12  2  0  0  0
 12 13  1  0  0  0
 13 14  2  0  0  0
 14 15  1  0  0  0
 15 16  2  0  0  0
 14 17  1  0  0  0
 17 18  1  0  0  0
 18 19  1  0  0  0
 19 20  1  0  0  0
 20 21  1  0  0  0
 21 22  1  0  0  0
 33 34  1  0  0  0
 34 35  1  0  0  0
 35 36  2  0  0  0
 35 25  1  0  0  0
 34 30  2  0  0  0
 10  5  1  0  0  0
 16 11  1  0  0  0
 22 17  1  0  0  0
 21 19  1  0  0  0
  3  4  1  0  0  0
M  END
> <minimizedAffinity>
-6.05902

> <CNNscore>
0.3552848399

> <CNNaffinity>
6.0701079369

> <CNN_VS>
2.1566174030

> <CNNaffinity_variance>
0.1053598523

$$$$
[H]c1nc(-c2c([H])nc(N3C([H])([H])C4([H])C([H])([H])C4([H])C3([H])[H])nc2[H])nc(N([H])C(=O)[C@@]([H])(n2c([H])nc3c2c(=O)n(C([H])([H])C#CC([H])([H])[H])c(=O)n3C([H])([H])[H])C([H])([H])[H])c1[H]


 40 45  0  0  0  0  0  0  0  0999 V2000
  158.4315  133.4845  188.2752 C   0  0  0  0  0  0  0  0  0  0  0  0
  158.5730  134.4726  187.5437 O   0  0  0  0  0  0  0  0  0  0  0  0
  158.3682  132.1741  187.7930 N   0  0  0  0  0  0  0  0  0  0  0  0
  158.2422  131.3890  188.5340 H   0  0  0  0  0  0  0  0  0  0  0  0
  158.4424  131.7025  186.4709 C   0  0  0  0  0  0  0  0  0  0  0  0
  159.4724  130.9246  186.0242 C   0  0  0  0  0  0  0  0  0  0  0  0
  159.5043  130.4807  184.7043 C   0  0  0  0  0  0  0  0  0  0  0  0
  158.5162  130.8278  183.8919 N   0  0  0  0  0  0  0  0  0  0  0  0
  157.4953  131.5895  184.3060 C   0  0  0  0  0  0  0  0  0  0  0  0
  157.4670  132.0123  185.5668 N   0  0  0  0  0  0  0  0  0  0  0  0
  156.4416  131.9281  183.3390 C   0  0  0  0  0  0  0  0  0  0  0  0
  155.8498  133.1735  183.3152 C   0  0  0  0  0  0  0  0  0  0  0  0
  154.8834  133.4525  182.4116 N   0  0  0  0  0  0  0  0  0  0  0  0
  154.4593  132.5527  181.5114 C   0  0  0  0  0  0  0  0  0  0  0  0
  155.0298  131.3380  181.5273 N   0  0  0  0  0  0  0  0  0  0  0  0
  156.0016  131.0085  182.4117 C   0  0  0  0  0  0  0  0  0  0  0  0
  153.4368  132.8661  180.5650 N   0  0  0  0  0  0  0  0  0  0  0  0
  152.0733  133.2789  180.8254 C   0  0  0  0  0  0  0  0  0  0  0  0
  151.2533  132.7079  179.6879 C   0  0  0  0  0  0  0  0  0  0  0  0
  151.5120  131.2911  179.3254 C   0  0  0  0  0  0  0  0  0  0  0  0
  152.2073  132.3725  178.6053 C   0  0  0  0  0  0  0  0  0  0  0  0
  153.5741  132.8299  179.1240 C   0  0  0  0  0  0  0  0  0  0  0  0
  158.3254  133.7519  189.7587 C   0  0  0  0  0  0  0  0  0  0  0  0
  159.1878  132.7359  190.5140 C   0  0  0  0  0  0  0  0  0  0  0  0
  154.7893  136.4633  190.5066 N   0  0  0  0  0  0  0  0  0  0  0  0
  153.7053  135.8183  190.9335 C   0  0  0  0  0  0  0  0  0  0  0  0
  152.6207  136.4457  191.1904 O   0  0  0  0  0  0  0  0  0  0  0  0
  153.7634  134.4850  191.0937 N   0  0  0  0  0  0  0  0  0  0  0  0
  152.5758  133.8053  191.5577 C   0  0  0  0  0  0  0  0  0  0  0  0
  154.8754  133.7571  190.8416 C   0  0  0  0  0  0  0  0  0  0  0  0
  155.1978  132.4672  190.9130 N   0  0  0  0  0  0  0  0  0  0  0  0
  156.4764  132.3567  190.5260 C   0  0  0  0  0  0  0  0  0  0  0  0
  156.9640  133.5638  190.2113 N   0  0  0  0  0  0  0  0  0  0  0  0
  155.9784  134.4455  190.4029 C   0  0  0  0  0  0  0  0  0  0  0  0
  155.9193  135.7949  190.2410 C   0  0  0  0  0  0  0  0  0  0  0  0
  156.9421  136.4244  189.8353 O   0  0  0  0  0  0  0  0  0  0  0  0
  154.7390  137.9012  190.3306 C   0  0  0  0  0  0  0  0  0  0  0  0
  153.1786  138.7910  186.6498 C   0  0  0  0  0  0  0  0  0  0  0  0
  153.7444  138.4574  187.9434 C   0  0  0  0  0  0  0  0  0  0  0  0
  154.2011  138.2000  189.0160 C   0  0  0  0  0  0  0  0  0  0  0  0
 38 39  1  0  0  0
 39 40  3  0  0  0
 40 37  1  0  0  0
 37 25  1  0  0  0
 25 26  1  0  0  0
 26 27  2  0  0  0
 26 28  1  0  0  0
 28 29  1  0  0  0
 28 30  1  0  0  0
 30 31  1  0  0  0
 31 32  2  0  0  0
 32 33  1  0  0  0
 33 23  1  0  0  0
 23 24  1  0  0  0
 23  1  1  0  0  0
  1  2  2  0  0  0
  1  3  1  0  0  0
  3  5  1  0  0  0
  5  6  2  0  0  0
  6  7  1  0  0  0
  7  8  2  0  0  0
  8  9  1  0  0  0
  9 10  2  0  0  0
  9 11  1  0  0  0
 11 12  2  0  0  0
 12 13  1  0  0  0
 13 14  2  0  0  0
 14 15  1  0  0  0
 15 16  2  0  0  0
 14 17  1  0  0  0
 17 18  1  0  0  0
 18 19  1  0  0  0
 19 20  1  0  0  0
 20 21  1  0  0  0
 21 22  1  0  0  0
 33 34  1  0  0  0
 34 35  1  0  0  0
 35 36  2  0  0  0
 35 25  1  0  0  0
 34 30  2  0  0  0
 10  5  1  0  0  0
 16 11  1  0  0  0
 22 17  1  0  0  0
 21 19  1  0  0  0
  3  4  1  0  0  0
M  END
> <minimizedAffinity>
-5.52800

> <CNNscore>
0.3066639304

> <CNNaffinity>
6.0686554909

> <CNN_VS>
1.8610377312

> <CNNaffinity_variance>
0.1597415656

$$$$
[H]c1nc(-c2c([H])nc(N3C([H])([H])C4([H])C([H])([H])C4([H])C3([H])[H])nc2[H])nc(N([H])C(=O)[C@@]([H])(n2c([H])nc3c2c(=O)n(C([H])([H])C#CC([H])([H])[H])c(=O)n3C([H])([H])[H])C([H])([H])[H])c1[H]


 40 45  0  0  0  0  0  0  0  0999 V2000
  154.5887  138.4965  186.2453 C   0  0  0  0  0  0  0  0  0  0  0  0
  153.4360  138.9403  186.3213 O   0  0  0  0  0  0  0  0  0  0  0  0
  155.2861  137.9775  187.3398 N   0  0  0  0  0  0  0  0  0  0  0  0
  156.2934  137.6172  187.1480 H   0  0  0  0  0  0  0  0  0  0  0  0
  154.8802  137.8470  188.6793 C   0  0  0  0  0  0  0  0  0  0  0  0
  155.5688  138.4117  189.7149 C   0  0  0  0  0  0  0  0  0  0  0  0
  155.1292  138.2550  191.0272 C   0  0  0  0  0  0  0  0  0  0  0  0
  154.0306  137.5478  191.2504 N   0  0  0  0  0  0  0  0  0  0  0  0
  153.3379  136.9843  190.2521 C   0  0  0  0  0  0  0  0  0  0  0  0
  153.7597  137.1352  188.9996 N   0  0  0  0  0  0  0  0  0  0  0  0
  152.1310  136.2160  190.5885 C   0  0  0  0  0  0  0  0  0  0  0  0
  151.7075  135.1535  189.8180 C   0  0  0  0  0  0  0  0  0  0  0  0
  150.5926  134.4672  190.1561 N   0  0  0  0  0  0  0  0  0  0  0  0
  149.8569  134.7769  191.2343 C   0  0  0  0  0  0  0  0  0  0  0  0
  150.2617  135.8095  191.9900 N   0  0  0  0  0  0  0  0  0  0  0  0
  151.3709  136.5289  191.6945 C   0  0  0  0  0  0  0  0  0  0  0  0
  148.6819  134.0401  191.5750 N   0  0  0  0  0  0  0  0  0  0  0  0
  148.2604  133.5839  192.8832 C   0  0  0  0  0  0  0  0  0  0  0  0
  147.5305  132.2796  192.6411 C   0  0  0  0  0  0  0  0  0  0  0  0
  148.1835  131.3105  191.7247 C   0  0  0  0  0  0  0  0  0  0  0  0
  147.1780  132.2526  191.2025 C   0  0  0  0  0  0  0  0  0  0  0  0
  147.6597  133.5976  190.6499 C   0  0  0  0  0  0  0  0  0  0  0  0
  155.2394  138.5363  184.8821 C   0  0  0  0  0  0  0  0  0  0  0  0
  156.4167  139.5159  184.9171 C   0  0  0  0  0  0  0  0  0  0  0  0
  151.9443  136.7250  182.3769 N   0  0  0  0  0  0  0  0  0  0  0  0
  151.3407  137.6022  181.5772 C   0  0  0  0  0  0  0  0  0  0  0  0
  150.3862  137.2447  180.8043 O   0  0  0  0  0  0  0  0  0  0  0  0
  151.7497  138.8825  181.5907 N   0  0  0  0  0  0  0  0  0  0  0  0
  151.0809  139.8173  180.7152 C   0  0  0  0  0  0  0  0  0  0  0  0
  152.7515  139.3311  182.3814 C   0  0  0  0  0  0  0  0  0  0  0  0
  153.3390  140.5080  182.5873 N   0  0  0  0  0  0  0  0  0  0  0  0
  154.2909  140.3188  183.5119 C   0  0  0  0  0  0  0  0  0  0  0  0
  154.3100  139.0345  183.8913 N   0  0  0  0  0  0  0  0  0  0  0  0
  153.3568  138.4074  183.1958 C   0  0  0  0  0  0  0  0  0  0  0  0
  152.9427  137.1116  183.1818 C   0  0  0  0  0  0  0  0  0  0  0  0
  153.5065  136.2637  183.9369 O   0  0  0  0  0  0  0  0  0  0  0  0
  151.5124  135.3413  182.3708 C   0  0  0  0  0  0  0  0  0  0  0  0
  154.1575  133.1834  180.1078 C   0  0  0  0  0  0  0  0  0  0  0  0
  153.2022  133.9330  180.9017 C   0  0  0  0  0  0  0  0  0  0  0  0
  152.4319  134.5605  181.5635 C   0  0  0  0  0  0  0  0  0  0  0  0
 38 39  1  0  0  0
 39 40  3  0  0  0
 40 37  1  0  0  0
 37 25  1  0  0  0
 25 26  1  0  0  0
 26 27  2  0  0  0
 26 28  1  0  0  0
 28 29  1  0  0  0
 28 30  1  0  0  0
 30 31  1  0  0  0
 31 32  2  0  0  0
 32 33  1  0  0  0
 33 23  1  0  0  0
 23 24  1  0  0  0
 23  1  1  0  0  0
  1  2  2  0  0  0
  1  3  1  0  0  0
  3  5  1  0  0  0
  5  6  2  0  0  0
  6  7  1  0  0  0
  7  8  2  0  0  0
  8  9  1  0  0  0
  9 10  2  0  0  0
  9 11  1  0  0  0
 11 12  2  0  0  0
 12 13  1  0  0  0
 13 14  2  0  0  0
 14 15  1  0  0  0
 15 16  2  0  0  0
 14 17  1  0  0  0
 17 18  1  0  0  0
 18 19  1  0  0  0
 19 20  1  0  0  0
 20 21  1  0  0  0
 21 22  1  0  0  0
 33 34  1  0  0  0
 34 35  1  0  0  0
 35 36  2  0  0  0
 35 25  1  0  0  0
 34 30  2  0  0  0
 10  5  1  0  0  0
 16 11  1  0  0  0
 22 17  1  0  0  0
 21 19  1  0  0  0
  3  4  1  0  0  0
M  END
> <minimizedAffinity>
-6.58821

> <CNNscore>
0.3048785031

> <CNNaffinity>
6.0050988197

> <CNN_VS>
1.8308255672

> <CNNaffinity_variance>
0.2380290776

$$$$
[H]c1nc(-c2c([H])nc(N3C([H])([H])C4([H])C([H])([H])C4([H])C3([H])[H])nc2[H])nc(N([H])C(=O)[C@@]([H])(n2c([H])nc3c2c(=O)n(C([H])([H])C#CC([H])([H])[H])c(=O)n3C([H])([H])[H])C([H])([H])[H])c1[H]


 40 45  0  0  0  0  0  0  0  0999 V2000
  154.3455  138.0504  184.5790 C   0  0  0  0  0  0  0  0  0  0  0  0
  153.8534  137.7741  183.4777 O   0  0  0  0  0  0  0  0  0  0  0  0
  153.6950  137.8123  185.7930 N   0  0  0  0  0  0  0  0  0  0  0  0
  154.2294  138.0982  186.6952 H   0  0  0  0  0  0  0  0  0  0  0  0
  152.4297  137.2498  186.0350 C   0  0  0  0  0  0  0  0  0  0  0  0
  151.4946  137.0924  185.0520 C   0  0  0  0  0  0  0  0  0  0  0  0
  150.2528  136.5303  185.3388 C   0  0  0  0  0  0  0  0  0  0  0  0
  149.9975  136.1517  186.5831 N   0  0  0  0  0  0  0  0  0  0  0  0
  150.8977  136.2954  187.5643 C   0  0  0  0  0  0  0  0  0  0  0  0
  152.0829  136.8325  187.2882 N   0  0  0  0  0  0  0  0  0  0  0  0
  150.5320  135.8494  188.9161 C   0  0  0  0  0  0  0  0  0  0  0  0
  149.2597  135.4114  189.2178 C   0  0  0  0  0  0  0  0  0  0  0  0
  148.9566  135.0073  190.4720 N   0  0  0  0  0  0  0  0  0  0  0  0
  149.8576  135.0112  191.4660 C   0  0  0  0  0  0  0  0  0  0  0  0
  151.0984  135.4359  191.1815 N   0  0  0  0  0  0  0  0  0  0  0  0
  151.4527  135.8510  189.9416 C   0  0  0  0  0  0  0  0  0  0  0  0
  149.5183  134.5807  192.7848 N   0  0  0  0  0  0  0  0  0  0  0  0
  149.7909  135.2477  194.0410 C   0  0  0  0  0  0  0  0  0  0  0  0
  150.0029  134.1391  195.0502 C   0  0  0  0  0  0  0  0  0  0  0  0
  150.8826  133.0175  194.6333 C   0  0  0  0  0  0  0  0  0  0  0  0
  149.4234  132.9112  194.4579 C   0  0  0  0  0  0  0  0  0  0  0  0
  148.8166  133.3607  193.1252 C   0  0  0  0  0  0  0  0  0  0  0  0
  155.7211  138.6759  184.5665 C   0  0  0  0  0  0  0  0  0  0  0  0
  156.2236  138.8103  186.0073 C   0  0  0  0  0  0  0  0  0  0  0  0
  158.7667  141.6695  183.0911 N   0  0  0  0  0  0  0  0  0  0  0  0
  158.2277  142.8086  182.6607 C   0  0  0  0  0  0  0  0  0  0  0  0
  158.9583  143.7576  182.2113 O   0  0  0  0  0  0  0  0  0  0  0  0
  156.8921  142.9527  182.7040 N   0  0  0  0  0  0  0  0  0  0  0  0
  156.3285  144.1966  182.2320 C   0  0  0  0  0  0  0  0  0  0  0  0
  156.0587  141.9924  183.1660 C   0  0  0  0  0  0  0  0  0  0  0  0
  154.7409  141.8759  183.3160 N   0  0  0  0  0  0  0  0  0  0  0  0
  154.5074  140.6629  183.8365 C   0  0  0  0  0  0  0  0  0  0  0  0
  155.6646  140.0130  184.0165 N   0  0  0  0  0  0  0  0  0  0  0  0
  156.6392  140.8285  183.6035 C   0  0  0  0  0  0  0  0  0  0  0  0
  157.9910  140.6831  183.5595 C   0  0  0  0  0  0  0  0  0  0  0  0
  158.5204  139.6050  183.9652 O   0  0  0  0  0  0  0  0  0  0  0  0
  160.2061  141.5026  183.0498 C   0  0  0  0  0  0  0  0  0  0  0  0
  161.8560  142.9135  186.5228 C   0  0  0  0  0  0  0  0  0  0  0  0
  161.2586  142.4348  185.2904 C   0  0  0  0  0  0  0  0  0  0  0  0
  160.7798  142.0243  184.2768 C   0  0  0  0  0  0  0  0  0  0  0  0
 38 39  1  0  0  0
 39 40  3  0  0  0
 40 37  1  0  0  0
 37 25  1  0  0  0
 25 26  1  0  0  0
 26 27  2  0  0  0
 26 28  1  0  0  0
 28 29  1  0  0  0
 28 30  1  0  0  0
 30 31  1  0  0  0
 31 32  2  0  0  0
 32 33  1  0  0  0
 33 23  1  0  0  0
 23 24  1  0  0  0
 23  1  1  0  0  0
  1  2  2  0  0  0
  1  3  1  0  0  0
  3  5  1  0  0  0
  5  6  2  0  0  0
  6  7  1  0  0  0
  7  8  2  0  0  0
  8  9  1  0  0  0
  9 10  2  0  0  0
  9 11  1  0  0  0
 11 12  2  0  0  0
 12 13  1  0  0  0
 13 14  2  0  0  0
 14 15  1  0  0  0
 15 16  2  0  0  0
 14 17  1  0  0  0
 17 18  1  0  0  0
 18 19  1  0  0  0
 19 20  1  0  0  0
 20 21  1  0  0  0
 21 22  1  0  0  0
 33 34  1  0  0  0
 34 35  1  0  0  0
 35 36  2  0  0  0
 35 25  1  0  0  0
 34 30  2  0  0  0
 10  5  1  0  0  0
 16 11  1  0  0  0
 22 17  1  0  0  0
 21 19  1  0  0  0
  3  4  1  0  0  0
M  END
> <minimizedAffinity>
-7.94219

> <CNNscore>
0.2642134428

> <CNNaffinity>
6.4315748215

> <CNN_VS>
1.6993085146

> <CNNaffinity_variance>
0.3083347380

$$$$
[H]c1nc(-c2c([H])nc(N3C([H])([H])C4([H])C([H])([H])C4([H])C3([H])[H])nc2[H])nc(N([H])C(=O)[C@@]([H])(n2c([H])nc3c2c(=O)n(C([H])([H])C#CC([H])([H])[H])c(=O)n3C([H])([H])[H])C([H])([H])[H])c1[H]


 40 45  0  0  0  0  0  0  0  0999 V2000
  154.8527  138.1329  188.4404 C   0  0  0  0  0  0  0  0  0  0  0  0
  153.7522  138.6946  188.3718 O   0  0  0  0  0  0  0  0  0  0  0  0
  155.7430  138.0528  187.3658 N   0  0  0  0  0  0  0  0  0  0  0  0
  156.6801  137.5334  187.5485 H   0  0  0  0  0  0  0  0  0  0  0  0
  155.6127  138.5486  186.0570 C   0  0  0  0  0  0  0  0  0  0  0  0
  156.5948  139.2731  185.4437 C   0  0  0  0  0  0  0  0  0  0  0  0
  156.4210  139.7450  184.1447 C   0  0  0  0  0  0  0  0  0  0  0  0
  155.2849  139.4770  183.5168 N   0  0  0  0  0  0  0  0  0  0  0  0
  154.3071  138.7687  184.0964 C   0  0  0  0  0  0  0  0  0  0  0  0
  154.4752  138.3191  185.3370 N   0  0  0  0  0  0  0  0  0  0  0  0
  153.0793  138.5179  183.3286 C   0  0  0  0  0  0  0  0  0  0  0  0
  152.2294  137.4764  183.6364 C   0  0  0  0  0  0  0  0  0  0  0  0
  151.1073  137.2739  182.9098 N   0  0  0  0  0  0  0  0  0  0  0  0
  150.7695  138.0580  181.8749 C   0  0  0  0  0  0  0  0  0  0  0  0
  151.5908  139.0742  181.5683 N   0  0  0  0  0  0  0  0  0  0  0  0
  152.7266  139.3195  182.2646 C   0  0  0  0  0  0  0  0  0  0  0  0
  149.5799  137.8279  181.1190 N   0  0  0  0  0  0  0  0  0  0  0  0
  149.3036  138.2071  179.7490 C   0  0  0  0  0  0  0  0  0  0  0  0
  147.8185  138.4977  179.7011 C   0  0  0  0  0  0  0  0  0  0  0  0
  147.2673  139.3347  180.7971 C   0  0  0  0  0  0  0  0  0  0  0  0
  147.2247  137.8655  180.9021 C   0  0  0  0  0  0  0  0  0  0  0  0
  148.3905  137.1517  181.5932 C   0  0  0  0  0  0  0  0  0  0  0  0
  155.2139  137.5148  189.7712 C   0  0  0  0  0  0  0  0  0  0  0  0
  156.6716  137.8510  190.1008 C   0  0  0  0  0  0  0  0  0  0  0  0
  153.4066  134.2849  192.3628 N   0  0  0  0  0  0  0  0  0  0  0  0
  153.5772  133.0564  191.8781 C   0  0  0  0  0  0  0  0  0  0  0  0
  153.1232  132.0326  192.4961 O   0  0  0  0  0  0  0  0  0  0  0  0
  154.2394  132.9013  190.7187 N   0  0  0  0  0  0  0  0  0  0  0  0
  154.4131  131.5597  190.2111 C   0  0  0  0  0  0  0  0  0  0  0  0
  154.7464  133.9373  190.0117 C   0  0  0  0  0  0  0  0  0  0  0  0
  155.4230  134.0633  188.8720 N   0  0  0  0  0  0  0  0  0  0  0  0
  155.6494  135.3717  188.6887 C   0  0  0  0  0  0  0  0  0  0  0  0
  155.1226  136.0724  189.7012 N   0  0  0  0  0  0  0  0  0  0  0  0
  154.5571  135.1925  190.5328 C   0  0  0  0  0  0  0  0  0  0  0  0
  153.8868  135.3490  191.7062 C   0  0  0  0  0  0  0  0  0  0  0  0
  153.7155  136.5117  192.1816 O   0  0  0  0  0  0  0  0  0  0  0  0
  152.6945  134.4647  193.6125 C   0  0  0  0  0  0  0  0  0  0  0  0
  148.6812  133.9008  193.0207 C   0  0  0  0  0  0  0  0  0  0  0  0
  150.1048  134.1092  193.2072 C   0  0  0  0  0  0  0  0  0  0  0  0
  151.2741  134.2759  193.3809 C   0  0  0  0  0  0  0  0  0  0  0  0
 38 39  1  0  0  0
 39 40  3  0  0  0
 40 37  1  0  0  0
 37 25  1  0  0  0
 25 26  1  0  0  0
 26 27  2  0  0  0
 26 28  1  0  0  0
 28 29  1  0  0  0
 28 30  1  0  0  0
 30 31  1  0  0  0
 31 32  2  0  0  0
 32 33  1  0  0  0
 33 23  1  0  0  0
 23 24  1  0  0  0
 23  1  1  0  0  0
  1  2  2  0  0  0
  1  3  1  0  0  0
  3  5  1  0  0  0
  5  6  2  0  0  0
  6  7  1  0  0  0
  7  8  2  0  0  0
  8  9  1  0  0  0
  9 10  2  0  0  0
  9 11  1  0  0  0
 11 12  2  0  0  0
 12 13  1  0  0  0
 13 14  2  0  0  0
 14 15  1  0  0  0
 15 16  2  0  0  0
 14 17  1  0  0  0
 17 18  1  0  0  0
 18 19  1  0  0  0
 19 20  1  0  0  0
 20 21  1  0  0  0
 21 22  1  0  0  0
 33 34  1  0  0  0
 34 35  1  0  0  0
 35 36  2  0  0  0
 35 25  1  0  0  0
 34 30  2  0  0  0
 10  5  1  0  0  0
 16 11  1  0  0  0
 22 17  1  0  0  0
 21 19  1  0  0  0
  3  4  1  0  0  0
M  END
> <minimizedAffinity>
-6.55517

> <CNNscore>
0.2576795518

> <CNNaffinity>
5.9395427704

> <CNN_VS>
1.5304987431

> <CNNaffinity_variance>
0.1914933622

$$$$
[H]c1nc(-c2c([H])nc(N3C([H])([H])C4([H])C([H])([H])C4([H])C3([H])[H])nc2[H])nc(N([H])C(=O)[C@@]([H])(n2c([H])nc3c2c(=O)n(C([H])([H])C#CC([H])([H])[H])c(=O)n3C([H])([H])[H])C([H])([H])[H])c1[H]


 40 45  0  0  0  0  0  0  0  0999 V2000
  154.3268  137.7114  184.4408 C   0  0  0  0  0  0  0  0  0  0  0  0
  154.3336  137.0658  183.3851 O   0  0  0  0  0  0  0  0  0  0  0  0
  153.2315  137.7549  185.3080 N   0  0  0  0  0  0  0  0  0  0  0  0
  153.3456  138.3573  186.2054 H   0  0  0  0  0  0  0  0  0  0  0  0
  151.9777  137.1290  185.1982 C   0  0  0  0  0  0  0  0  0  0  0  0
  151.2224  137.1896  184.0618 C   0  0  0  0  0  0  0  0  0  0  0  0
  149.9846  136.5539  183.9990 C   0  0  0  0  0  0  0  0  0  0  0  0
  149.5553  135.8899  185.0628 N   0  0  0  0  0  0  0  0  0  0  0  0
  150.2772  135.8157  186.1884 C   0  0  0  0  0  0  0  0  0  0  0  0
  151.4590  136.4236  186.2462 N   0  0  0  0  0  0  0  0  0  0  0  0
  149.7258  135.0591  187.3213 C   0  0  0  0  0  0  0  0  0  0  0  0
  149.7609  133.6810  187.3610 C   0  0  0  0  0  0  0  0  0  0  0  0
  149.2450  133.0156  188.4189 N   0  0  0  0  0  0  0  0  0  0  0  0
  148.6847  133.6469  189.4617 C   0  0  0  0  0  0  0  0  0  0  0  0
  148.6462  134.9880  189.4316 N   0  0  0  0  0  0  0  0  0  0  0  0
  149.1489  135.7014  188.3954 C   0  0  0  0  0  0  0  0  0  0  0  0
  148.1447  132.9263  190.5702 N   0  0  0  0  0  0  0  0  0  0  0  0
  146.8885  133.1495  191.2553 C   0  0  0  0  0  0  0  0  0  0  0  0
  147.1422  132.7712  192.6992 C   0  0  0  0  0  0  0  0  0  0  0  0
  148.3911  133.2885  193.3143 C   0  0  0  0  0  0  0  0  0  0  0  0
  148.3716  131.9446  192.7103 C   0  0  0  0  0  0  0  0  0  0  0  0
  148.7690  131.8033  191.2378 C   0  0  0  0  0  0  0  0  0  0  0  0
  155.5862  138.4781  184.7718 C   0  0  0  0  0  0  0  0  0  0  0  0
  155.6777  138.6599  186.2901 C   0  0  0  0  0  0  0  0  0  0  0  0
  158.6612  141.4971  183.4136 N   0  0  0  0  0  0  0  0  0  0  0  0
  158.1289  142.6184  182.9314 C   0  0  0  0  0  0  0  0  0  0  0  0
  158.8681  143.5716  182.5058 O   0  0  0  0  0  0  0  0  0  0  0  0
  156.7907  142.7398  182.8962 N   0  0  0  0  0  0  0  0  0  0  0  0
  156.2345  143.9648  182.3690 C   0  0  0  0  0  0  0  0  0  0  0  0
  155.9484  141.7737  183.3287 C   0  0  0  0  0  0  0  0  0  0  0  0
  154.6262  141.6368  183.4060 N   0  0  0  0  0  0  0  0  0  0  0  0
  154.3835  140.4298  183.9359 C   0  0  0  0  0  0  0  0  0  0  0  0
  155.5391  139.8037  184.1937 N   0  0  0  0  0  0  0  0  0  0  0  0
  156.5220  140.6285  183.8208 C   0  0  0  0  0  0  0  0  0  0  0  0
  157.8765  140.5060  183.8564 C   0  0  0  0  0  0  0  0  0  0  0  0
  158.3996  139.4451  184.3123 O   0  0  0  0  0  0  0  0  0  0  0  0
  160.1031  141.3548  183.4572 C   0  0  0  0  0  0  0  0  0  0  0  0
  161.5814  143.1559  186.8254 C   0  0  0  0  0  0  0  0  0  0  0  0
  161.0382  142.5099  185.6454 C   0  0  0  0  0  0  0  0  0  0  0  0
  160.6063  141.9872  184.6628 C   0  0  0  0  0  0  0  0  0  0  0  0
 38 39  1  0  0  0
 39 40  3  0  0  0
 40 37  1  0  0  0
 37 25  1  0  0  0
 25 26  1  0  0  0
 26 27  2  0  0  0
 26 28  1  0  0  0
 28 29  1  0  0  0
 28 30  1  0  0  0
 30 31  1  0  0  0
 31 32  2  0  0  0
 32 33  1  0  0  0
 33 23  1  0  0  0
 23 24  1  0  0  0
 23  1  1  0  0  0
  1  2  2  0  0  0
  1  3  1  0  0  0
  3  5  1  0  0  0
  5  6  2  0  0  0
  6  7  1  0  0  0
  7  8  2  0  0  0
  8  9  1  0  0  0
  9 10  2  0  0  0
  9 11  1  0  0  0
 11 12  2  0  0  0
 12 13  1  0  0  0
 13 14  2  0  0  0
 14 15  1  0  0  0
 15 16  2  0  0  0
 14 17  1  0  0  0
 17 18  1  0  0  0
 18 19  1  0  0  0
 19 20  1  0  0  0
 20 21  1  0  0  0
 21 22  1  0  0  0
 33 34  1  0  0  0
 34 35  1  0  0  0
 35 36  2  0  0  0
 35 25  1  0  0  0
 34 30  2  0  0  0
 10  5  1  0  0  0
 16 11  1  0  0  0
 22 17  1  0  0  0
 21 19  1  0  0  0
  3  4  1  0  0  0
M  END
> <minimizedAffinity>
-6.90959

> <CNNscore>
0.2538583577

> <CNNaffinity>
6.4528183937

> <CNN_VS>
1.6381019354

> <CNNaffinity_variance>
0.5115877390

$$$$
[H]c1nc(-c2c([H])nc(N3C([H])([H])C4([H])C([H])([H])C4([H])C3([H])[H])nc2[H])nc(N([H])C(=O)[C@@]([H])(n2c([H])nc3c2c(=O)n(C([H])([H])C#CC([H])([H])[H])c(=O)n3C([H])([H])[H])C([H])([H])[H])c1[H]


 40 45  0  0  0  0  0  0  0  0999 V2000
  150.8300  135.9939  191.5654 C   0  0  0  0  0  0  0  0  0  0  0  0
  150.0443  136.8650  191.9594 O   0  0  0  0  0  0  0  0  0  0  0  0
  150.6142  135.2268  190.4170 N   0  0  0  0  0  0  0  0  0  0  0  0
  151.3768  134.4920  190.1728 H   0  0  0  0  0  0  0  0  0  0  0  0
  149.5412  135.2568  189.5095 C   0  0  0  0  0  0  0  0  0  0  0  0
  148.3268  134.6968  189.7874 C   0  0  0  0  0  0  0  0  0  0  0  0
  147.2921  134.7501  188.8565 C   0  0  0  0  0  0  0  0  0  0  0  0
  147.5095  135.3547  187.6971 N   0  0  0  0  0  0  0  0  0  0  0  0
  148.6911  135.9114  187.4010 C   0  0  0  0  0  0  0  0  0  0  0  0
  149.6778  135.8591  188.2915 N   0  0  0  0  0  0  0  0  0  0  0  0
  148.8467  136.5610  186.0919 C   0  0  0  0  0  0  0  0  0  0  0  0
  150.0449  136.5434  185.4095 C   0  0  0  0  0  0  0  0  0  0  0  0
  150.1539  137.1506  184.2063 N   0  0  0  0  0  0  0  0  0  0  0  0
  149.1252  137.7875  183.6266 C   0  0  0  0  0  0  0  0  0  0  0  0
  147.9552  137.8097  184.2836 N   0  0  0  0  0  0  0  0  0  0  0  0
  147.7941  137.2169  185.4910 C   0  0  0  0  0  0  0  0  0  0  0  0
  149.2600  138.4235  182.3550 N   0  0  0  0  0  0  0  0  0  0  0  0
  148.2294  139.0550  181.5573 C   0  0  0  0  0  0  0  0  0  0  0  0
  148.6312  138.8192  180.1167 C   0  0  0  0  0  0  0  0  0  0  0  0
  149.0642  137.4437  179.7620 C   0  0  0  0  0  0  0  0  0  0  0  0
  150.0677  138.4573  180.1319 C   0  0  0  0  0  0  0  0  0  0  0  0
  150.4885  138.5616  181.6011 C   0  0  0  0  0  0  0  0  0  0  0  0
  152.0735  135.7798  192.3969 C   0  0  0  0  0  0  0  0  0  0  0  0
  152.0610  136.7556  193.5777 C   0  0  0  0  0  0  0  0  0  0  0  0
  154.9333  133.3714  189.8601 N   0  0  0  0  0  0  0  0  0  0  0  0
  155.9110  134.0993  189.3238 C   0  0  0  0  0  0  0  0  0  0  0  0
  156.8024  133.5634  188.5791 O   0  0  0  0  0  0  0  0  0  0  0  0
  155.9522  135.4188  189.5762 N   0  0  0  0  0  0  0  0  0  0  0  0
  157.0215  136.1895  188.9842 C   0  0  0  0  0  0  0  0  0  0  0  0
  155.0441  136.0523  190.3534 C   0  0  0  0  0  0  0  0  0  0  0  0
  154.8548  137.3075  190.7552 N   0  0  0  0  0  0  0  0  0  0  0  0
  153.7611  137.3143  191.5302 C   0  0  0  0  0  0  0  0  0  0  0  0
  153.2586  136.0762  191.6215 N   0  0  0  0  0  0  0  0  0  0  0  0
  154.0471  135.2798  190.8939 C   0  0  0  0  0  0  0  0  0  0  0  0
  154.0058  133.9443  190.6383 C   0  0  0  0  0  0  0  0  0  0  0  0
  153.0818  133.2368  191.1408 O   0  0  0  0  0  0  0  0  0  0  0  0
  154.8788  131.9472  189.5955 C   0  0  0  0  0  0  0  0  0  0  0  0
  152.7129  131.3081  186.1787 C   0  0  0  0  0  0  0  0  0  0  0  0
  153.5011  131.5310  187.3761 C   0  0  0  0  0  0  0  0  0  0  0  0
  154.1322  131.7200  188.3717 C   0  0  0  0  0  0  0  0  0  0  0  0
 38 39  1  0  0  0
 39 40  3  0  0  0
 40 37  1  0  0  0
 37 25  1  0  0  0
 25 26  1  0  0  0
 26 27  2  0  0  0
 26 28  1  0  0  0
 28 29  1  0  0  0
 28 30  1  0  0  0
 30 31  1  0  0  0
 31 32  2  0  0  0
 32 33  1  0  0  0
 33 23  1  0  0  0
 23 24  1  0  0  0
 23  1  1  0  0  0
  1  2  2  0  0  0
  1  3  1  0  0  0
  3  5  1  0  0  0
  5  6  2  0  0  0
  6  7  1  0  0  0
  7  8  2  0  0  0
  8  9  1  0  0  0
  9 10  2  0  0  0
  9 11  1  0  0  0
 11 12  2  0  0  0
 12 13  1  0  0  0
 13 14  2  0  0  0
 14 15  1  0  0  0
 15 16  2  0  0  0
 14 17  1  0  0  0
 17 18  1  0  0  0
 18 19  1  0  0  0
 19 20  1  0  0  0
 20 21  1  0  0  0
 21 22  1  0  0  0
 33 34  1  0  0  0
 34 35  1  0  0  0
 35 36  2  0  0  0
 35 25  1  0  0  0
 34 30  2  0  0  0
 10  5  1  0  0  0
 16 11  1  0  0  0
 22 17  1  0  0  0
 21 19  1  0  0  0
  3  4  1  0  0  0
M  END
> <minimizedAffinity>
-5.18448

> <CNNscore>
0.2490794659

> <CNNaffinity>
6.1843285561

> <CNN_VS>
1.5403892994

> <CNNaffinity_variance>
0.0291798115

$$$$
[H]c1nc(-c2c([H])nc(N3C([H])([H])C4([H])C([H])([H])C4([H])C3([H])[H])nc2[H])nc(N([H])C(=O)[C@@]([H])(n2c([H])nc3c2c(=O)n(C([H])([H])C#CC([H])([H])[H])c(=O)n3C([H])([H])[H])C([H])([H])[H])c1[H]


 40 45  0  0  0  0  0  0  0  0999 V2000
  154.8663  137.7413  188.8730 C   0  0  0  0  0  0  0  0  0  0  0  0
  155.9011  138.0985  188.2961 O   0  0  0  0  0  0  0  0  0  0  0  0
  153.6530  137.5274  188.2128 N   0  0  0  0  0  0  0  0  0  0  0  0
  152.8132  137.2149  188.8280 H   0  0  0  0  0  0  0  0  0  0  0  0
  153.3417  137.6573  186.8482 C   0  0  0  0  0  0  0  0  0  0  0  0
  152.3029  136.9902  186.2640 C   0  0  0  0  0  0  0  0  0  0  0  0
  152.0322  137.1494  184.9070 C   0  0  0  0  0  0  0  0  0  0  0  0
  152.8021  137.9602  184.1951 N   0  0  0  0  0  0  0  0  0  0  0  0
  153.8265  138.6253  184.7447 C   0  0  0  0  0  0  0  0  0  0  0  0
  154.0831  138.4717  186.0409 N   0  0  0  0  0  0  0  0  0  0  0  0
  154.6298  139.5035  183.8825 C   0  0  0  0  0  0  0  0  0  0  0  0
  154.0660  140.2203  182.8481 C   0  0  0  0  0  0  0  0  0  0  0  0
  154.8338  141.0198  182.0740 N   0  0  0  0  0  0  0  0  0  0  0  0
  156.1545  141.1546  182.2674 C   0  0  0  0  0  0  0  0  0  0  0  0
  156.7119  140.4607  183.2719 N   0  0  0  0  0  0  0  0  0  0  0  0
  155.9868  139.6463  184.0758 C   0  0  0  0  0  0  0  0  0  0  0  0
  156.9491  142.0040  181.4387 N   0  0  0  0  0  0  0  0  0  0  0  0
  157.6902  141.6504  180.2458 C   0  0  0  0  0  0  0  0  0  0  0  0
  158.9054  142.5535  180.2417 C   0  0  0  0  0  0  0  0  0  0  0  0
  159.6415  142.6865  181.5247 C   0  0  0  0  0  0  0  0  0  0  0  0
  158.6052  143.6710  181.1667 C   0  0  0  0  0  0  0  0  0  0  0  0
  157.1700  143.4208  181.6400 C   0  0  0  0  0  0  0  0  0  0  0  0
  154.9619  137.5374  190.3673 C   0  0  0  0  0  0  0  0  0  0  0  0
  156.1231  138.3738  190.9140 C   0  0  0  0  0  0  0  0  0  0  0  0
  152.5175  133.8499  191.2850 N   0  0  0  0  0  0  0  0  0  0  0  0
  153.2556  132.7643  191.5081 C   0  0  0  0  0  0  0  0  0  0  0  0
  152.7116  131.6394  191.7817 O   0  0  0  0  0  0  0  0  0  0  0  0
  154.5944  132.8639  191.4422 N   0  0  0  0  0  0  0  0  0  0  0  0
  155.3760  131.6737  191.6877 C   0  0  0  0  0  0  0  0  0  0  0  0
  155.2374  134.0198  191.1583 C   0  0  0  0  0  0  0  0  0  0  0  0
  156.5110  134.3875  191.0336 N   0  0  0  0  0  0  0  0  0  0  0  0
  156.5183  135.6945  190.7360 C   0  0  0  0  0  0  0  0  0  0  0  0
  155.2623  136.1551  190.6718 N   0  0  0  0  0  0  0  0  0  0  0  0
  154.4540  135.1235  190.9326 C   0  0  0  0  0  0  0  0  0  0  0  0
  153.0990  135.0223  190.9994 C   0  0  0  0  0  0  0  0  0  0  0  0
  152.3814  136.0460  190.7896 O   0  0  0  0  0  0  0  0  0  0  0  0
  151.0727  133.7550  191.3538 C   0  0  0  0  0  0  0  0  0  0  0  0
  149.8244  135.0010  195.0502 C   0  0  0  0  0  0  0  0  0  0  0  0
  150.2704  134.5368  193.7500 C   0  0  0  0  0  0  0  0  0  0  0  0
  150.6317  134.1733  192.6718 C   0  0  0  0  0  0  0  0  0  0  0  0
 38 39  1  0  0  0
 39 40  3  0  0  0
 40 37  1  0  0  0
 37 25  1  0  0  0
 25 26  1  0  0  0
 26 27  2  0  0  0
 26 28  1  0  0  0
 28 29  1  0  0  0
 28 30  1  0  0  0
 30 31  1  0  0  0
 31 32  2  0  0  0
 32 33  1  0  0  0
 33 23  1  0  0  0
 23 24  1  0  0  0
 23  1  1  0  0  0
  1  2  2  0  0  0
  1  3  1  0  0  0
  3  5  1  0  0  0
  5  6  2  0  0  0
  6  7  1  0  0  0
  7  8  2  0  0  0
  8  9  1  0  0  0
  9 10  2  0  0  0
  9 11  1  0  0  0
 11 12  2  0  0  0
 12 13  1  0  0  0
 13 14  2  0  0  0
 14 15  1  0  0  0
 15 16  2  0  0  0
 14 17  1  0  0  0
 17 18  1  0  0  0
 18 19  1  0  0  0
 19 20  1  0  0  0
 20 21  1  0  0  0
 21 22  1  0  0  0
 33 34  1  0  0  0
 34 35  1  0  0  0
 35 36  2  0  0  0
 35 25  1  0  0  0
 34 30  2  0  0  0
 10  5  1  0  0  0
 16 11  1  0  0  0
 22 17  1  0  0  0
 21 19  1  0  0  0
  3  4  1  0  0  0
M  END
> <minimizedAffinity>
-7.49574

> <CNNscore>
0.2347691804

> <CNNaffinity>
6.3185243607

> <CNN_VS>
1.4833947420

> <CNNaffinity_variance>
0.0917778835

$$$$
[H]C1=Nc2c([H])c([H])c([H])c([H])c2Oc2c([H])c(C(=O)OC([H])([H])[H])c([H])c([H])c21


 19 21  0  0  0  0  0  0  0  0999 V2000
  155.7039  142.0330  182.6924 C   0  0  0  0  0  0  0  0  0  0  0  0
  156.3526  141.8023  181.4921 C   0  0  0  0  0  0  0  0  0  0  0  0
  157.7108  141.5647  181.4609 C   0  0  0  0  0  0  0  0  0  0  0  0
  158.4448  141.5538  182.6316 C   0  0  0  0  0  0  0  0  0  0  0  0
  159.8672  141.2893  182.4416 C   0  0  0  0  0  0  0  0  0  0  0  0
  160.8355  141.4722  183.2822 N   0  0  0  0  0  0  0  0  0  0  0  0
  160.8052  141.9788  184.6260 C   0  0  0  0  0  0  0  0  0  0  0  0
  162.0388  142.3467  185.1056 C   0  0  0  0  0  0  0  0  0  0  0  0
  162.1894  142.8600  186.3953 C   0  0  0  0  0  0  0  0  0  0  0  0
  161.1002  143.0134  187.2289 C   0  0  0  0  0  0  0  0  0  0  0  0
  159.8501  142.6411  186.7440 C   0  0  0  0  0  0  0  0  0  0  0  0
  159.7205  142.1350  185.4652 C   0  0  0  0  0  0  0  0  0  0  0  0
  158.3957  141.8095  185.1330 O   0  0  0  0  0  0  0  0  0  0  0  0
  157.8301  141.7800  183.8465 C   0  0  0  0  0  0  0  0  0  0  0  0
  156.4748  142.0142  183.8479 C   0  0  0  0  0  0  0  0  0  0  0  0
  154.2716  142.2873  182.7626 C   0  0  0  0  0  0  0  0  0  0  0  0
  153.8444  143.3494  183.2336 O   0  0  0  0  0  0  0  0  0  0  0  0
  153.4564  139.9678  182.7016 C   0  0  0  0  0  0  0  0  0  0  0  0
  153.3909  141.3302  182.2976 O   0  0  0  0  0  0  0  0  0  0  0  0
 18 19  1  0  0  0
 19 16  1  0  0  0
 16 17  2  0  0  0
 16  1  1  0  0  0
  1  2  2  0  0  0
  2  3  1  0  0  0
  3  4  2  0  0  0
  4  5  1  0  0  0
  5  6  2  0  0  0
  6  7  1  0  0  0
  7  8  2  0  0  0
  8  9  1  0  0  0
  9 10  2  0  0  0
 10 11  1  0  0  0
 11 12  2  0  0  0
 12 13  1  0  0  0
 13 14  1  0  0  0
 14 15  2  0  0  0
 15  1  1  0  0  0
 14  4  1  0  0  0
 12  7  1  0  0  0
M  END
> <minimizedAffinity>
-8.24825

> <CNNscore>
0.5776210427

> <CNNaffinity>
5.6491036415

> <CNN_VS>
3.2630410194

> <CNNaffinity_variance>
0.0927396864

$$$$
[H]C1=Nc2c([H])c([H])c([H])c([H])c2Oc2c([H])c(C(=O)OC([H])([H])[H])c([H])c([H])c21


 19 21  0  0  0  0  0  0  0  0999 V2000
  153.1685  136.9578  189.9739 C   0  0  0  0  0  0  0  0  0  0  0  0
  152.8952  136.7681  188.6307 C   0  0  0  0  0  0  0  0  0  0  0  0
  151.7139  136.1803  188.2294 C   0  0  0  0  0  0  0  0  0  0  0  0
  150.7840  135.7715  189.1661 C   0  0  0  0  0  0  0  0  0  0  0  0
  149.5854  135.1682  188.5930 C   0  0  0  0  0  0  0  0  0  0  0  0
  148.6776  134.4646  189.1920 N   0  0  0  0  0  0  0  0  0  0  0  0
  148.5763  134.0734  190.5704 C   0  0  0  0  0  0  0  0  0  0  0  0
  147.6710  133.0643  190.7930 C   0  0  0  0  0  0  0  0  0  0  0  0
  147.4483  132.5631  192.0771 C   0  0  0  0  0  0  0  0  0  0  0  0
  148.1330  133.0681  193.1638 C   0  0  0  0  0  0  0  0  0  0  0  0
  149.0503  134.0903  192.9393 C   0  0  0  0  0  0  0  0  0  0  0  0
  149.2573  134.5735  191.6619 C   0  0  0  0  0  0  0  0  0  0  0  0
  150.2129  135.6009  191.6094 O   0  0  0  0  0  0  0  0  0  0  0  0
  151.0239  135.9454  190.5142 C   0  0  0  0  0  0  0  0  0  0  0  0
  152.2100  136.5341  190.8858 C   0  0  0  0  0  0  0  0  0  0  0  0
  154.4052  137.5747  190.4333 C   0  0  0  0  0  0  0  0  0  0  0  0
  154.4529  138.1451  191.5309 O   0  0  0  0  0  0  0  0  0  0  0  0
  156.8034  137.9761  190.0646 C   0  0  0  0  0  0  0  0  0  0  0  0
  155.5284  137.5175  189.6314 O   0  0  0  0  0  0  0  0  0  0  0  0
 18 19  1  0  0  0
 19 16  1  0  0  0
 16 17  2  0  0  0
 16  1  1  0  0  0
  1  2  2  0  0  0
  2  3  1  0  0  0
  3  4  2  0  0  0
  4  5  1  0  0  0
  5  6  2  0  0  0
  6  7  1  0  0  0
  7  8  2  0  0  0
  8  9  1  0  0  0
  9 10  2  0  0  0
 10 11  1  0  0  0
 11 12  2  0  0  0
 12 13  1  0  0  0
 13 14  1  0  0  0
 14 15  2  0  0  0
 15  1  1  0  0  0
 14  4  1  0  0  0
 12  7  1  0  0  0
M  END
> <minimizedAffinity>
-4.17454

> <CNNscore>
0.5670465827

> <CNNaffinity>
4.1475801468

> <CNN_VS>
2.3518712521

> <CNNaffinity_variance>
0.1313873678

$$$$
[H]C1=Nc2c([H])c([H])c([H])c([H])c2Oc2c([H])c(C(=O)OC([H])([H])[H])c([H])c([H])c21


 19 21  0  0  0  0  0  0  0  0999 V2000
  149.7537  138.2360  179.8263 C   0  0  0  0  0  0  0  0  0  0  0  0
  150.0882  139.4974  179.3659 C   0  0  0  0  0  0  0  0  0  0  0  0
  151.1923  140.1577  179.8628 C   0  0  0  0  0  0  0  0  0  0  0  0
  151.9824  139.5669  180.8304 C   0  0  0  0  0  0  0  0  0  0  0  0
  153.1131  140.3839  181.2581 C   0  0  0  0  0  0  0  0  0  0  0  0
  153.8603  140.2327  182.3053 N   0  0  0  0  0  0  0  0  0  0  0  0
  153.8051  139.2381  183.3402 C   0  0  0  0  0  0  0  0  0  0  0  0
  154.5300  139.5656  184.4603 C   0  0  0  0  0  0  0  0  0  0  0  0
  154.5844  138.7095  185.5620 C   0  0  0  0  0  0  0  0  0  0  0  0
  153.9097  137.5055  185.5583 C   0  0  0  0  0  0  0  0  0  0  0  0
  153.1752  137.1729  184.4241 C   0  0  0  0  0  0  0  0  0  0  0  0
  153.1330  138.0325  183.3436 C   0  0  0  0  0  0  0  0  0  0  0  0
  152.3495  137.5478  182.2840 O   0  0  0  0  0  0  0  0  0  0  0  0
  151.6781  138.3098  181.3123 C   0  0  0  0  0  0  0  0  0  0  0  0
  150.5714  137.6745  180.7990 C   0  0  0  0  0  0  0  0  0  0  0  0
  148.5954  137.5099  179.3244 C   0  0  0  0  0  0  0  0  0  0  0  0
  148.4602  136.3023  179.5601 O   0  0  0  0  0  0  0  0  0  0  0  0
  147.0205  137.6101  177.4381 C   0  0  0  0  0  0  0  0  0  0  0  0
  147.6455  138.1826  178.5805 O   0  0  0  0  0  0  0  0  0  0  0  0
 18 19  1  0  0  0
 19 16  1  0  0  0
 16 17  2  0  0  0
 16  1  1  0  0  0
  1  2  2  0  0  0
  2  3  1  0  0  0
  3  4  2  0  0  0
  4  5  1  0  0  0
  5  6  2  0  0  0
  6  7  1  0  0  0
  7  8  2  0  0  0
  8  9  1  0  0  0
  9 10  2  0  0  0
 10 11  1  0  0  0
 11 12  2  0  0  0
 12 13  1  0  0  0
 13 14  1  0  0  0
 14 15  2  0  0  0
 15  1  1  0  0  0
 14  4  1  0  0  0
 12  7  1  0  0  0
M  END
> <minimizedAffinity>
-5.84740

> <CNNscore>
0.5622379780

> <CNNaffinity>
4.3225049973

> <CNN_VS>
2.4302763939

> <CNNaffinity_variance>
0.1424084008

$$$$
[H]C1=Nc2c([H])c([H])c([H])c([H])c2Oc2c([H])c(C(=O)OC([H])([H])[H])c([H])c([H])c21


 19 21  0  0  0  0  0  0  0  0999 V2000
  154.4427  137.7022  187.9173 C   0  0  0  0  0  0  0  0  0  0  0  0
  153.8877  137.6394  189.1833 C   0  0  0  0  0  0  0  0  0  0  0  0
  154.5165  136.9419  190.1932 C   0  0  0  0  0  0  0  0  0  0  0  0
  155.7134  136.2940  189.9540 C   0  0  0  0  0  0  0  0  0  0  0  0
  156.2585  135.5995  191.1158 C   0  0  0  0  0  0  0  0  0  0  0  0
  157.1960  134.7062  191.1483 N   0  0  0  0  0  0  0  0  0  0  0  0
  157.9666  134.1405  190.0762 C   0  0  0  0  0  0  0  0  0  0  0  0
  158.6373  132.9930  190.4238 C   0  0  0  0  0  0  0  0  0  0  0  0
  159.4341  132.3134  189.5002 C   0  0  0  0  0  0  0  0  0  0  0  0
  159.5718  132.7757  188.2072 C   0  0  0  0  0  0  0  0  0  0  0  0
  158.8928  133.9380  187.8541 C   0  0  0  0  0  0  0  0  0  0  0  0
  158.1091  134.5969  188.7814 C   0  0  0  0  0  0  0  0  0  0  0  0
  157.4950  135.7490  188.2647 O   0  0  0  0  0  0  0  0  0  0  0  0
  156.2953  136.3359  188.7031 C   0  0  0  0  0  0  0  0  0  0  0  0
  155.6463  137.0386  187.7149 C   0  0  0  0  0  0  0  0  0  0  0  0
  153.8064  138.4291  186.8275 C   0  0  0  0  0  0  0  0  0  0  0  0
  152.8351  139.1648  187.0457 O   0  0  0  0  0  0  0  0  0  0  0  0
  154.3754  139.3788  184.6315 C   0  0  0  0  0  0  0  0  0  0  0  0
  154.2976  138.2903  185.5440 O   0  0  0  0  0  0  0  0  0  0  0  0
 18 19  1  0  0  0
 19 16  1  0  0  0
 16 17  2  0  0  0
 16  1  1  0  0  0
  1  2  2  0  0  0
  2  3  1  0  0  0
  3  4  2  0  0  0
  4  5  1  0  0  0
  5  6  2  0  0  0
  6  7  1  0  0  0
  7  8  2  0  0  0
  8  9  1  0  0  0
  9 10  2  0  0  0
 10 11  1  0  0  0
 11 12  2  0  0  0
 12 13  1  0  0  0
 13 14  1  0  0  0
 14 15  2  0  0  0
 15  1  1  0  0  0
 14  4  1  0  0  0
 12  7  1  0  0  0
M  END
> <minimizedAffinity>
-5.01211

> <CNNscore>
0.5403638482

> <CNNaffinity>
4.3319497108

> <CNN_VS>
2.3408291340

> <CNNaffinity_variance>
0.0866229534

$$$$
[H]C1=Nc2c([H])c([H])c([H])c([H])c2Oc2c([H])c(C(=O)OC([H])([H])[H])c([H])c([H])c21


 19 21  0  0  0  0  0  0  0  0999 V2000
  154.4186  137.6443  186.2042 C   0  0  0  0  0  0  0  0  0  0  0  0
  155.5981  138.1423  186.7290 C   0  0  0  0  0  0  0  0  0  0  0  0
  155.8547  138.0634  188.0817 C   0  0  0  0  0  0  0  0  0  0  0  0
  154.9345  137.4840  188.9344 C   0  0  0  0  0  0  0  0  0  0  0  0
  155.3436  137.4724  190.3350 C   0  0  0  0  0  0  0  0  0  0  0  0
  154.6130  137.2507  191.3813 N   0  0  0  0  0  0  0  0  0  0  0  0
  153.2107  136.9554  191.4797 C   0  0  0  0  0  0  0  0  0  0  0  0
  152.7028  137.1029  192.7476 C   0  0  0  0  0  0  0  0  0  0  0  0
  151.3558  136.8561  193.0201 C   0  0  0  0  0  0  0  0  0  0  0  0
  150.4923  136.4554  192.0207 C   0  0  0  0  0  0  0  0  0  0  0  0
  151.0058  136.3057  190.7360 C   0  0  0  0  0  0  0  0  0  0  0  0
  152.3413  136.5544  190.4855 C   0  0  0  0  0  0  0  0  0  0  0  0
  152.6960  136.3567  189.1413 O   0  0  0  0  0  0  0  0  0  0  0  0
  153.7477  136.9770  188.4450 C   0  0  0  0  0  0  0  0  0  0  0  0
  153.5181  137.0692  187.0920 C   0  0  0  0  0  0  0  0  0  0  0  0
  154.1146  137.7107  184.7814 C   0  0  0  0  0  0  0  0  0  0  0  0
  154.3291  136.7377  184.0469 O   0  0  0  0  0  0  0  0  0  0  0  0
  154.3776  139.8462  183.5903 C   0  0  0  0  0  0  0  0  0  0  0  0
  153.5829  138.8726  184.2567 O   0  0  0  0  0  0  0  0  0  0  0  0
 18 19  1  0  0  0
 19 16  1  0  0  0
 16 17  2  0  0  0
 16  1  1  0  0  0
  1  2  2  0  0  0
  2  3  1  0  0  0
  3  4  2  0  0  0
  4  5  1  0  0  0
  5  6  2  0  0  0
  6  7  1  0  0  0
  7  8  2  0  0  0
  8  9  1  0  0  0
  9 10  2  0  0  0
 10 11  1  0  0  0
 11 12  2  0  0  0
 12 13  1  0  0  0
 13 14  1  0  0  0
 14 15  2  0  0  0
 15  1  1  0  0  0
 14  4  1  0  0  0
 12  7  1  0  0  0
M  END
> <minimizedAffinity>
-5.34991

> <CNNscore>
0.5050505996

> <CNNaffinity>
4.4548978806

> <CNN_VS>
2.2499487400

> <CNNaffinity_variance>
0.0975307822

$$$$
[H]C1=Nc2c([H])c([H])c([H])c([H])c2Oc2c([H])c(C(=O)OC([H])([H])[H])c([H])c([H])c21


 19 21  0  0  0  0  0  0  0  0999 V2000
  156.1549  142.2368  182.8555 C   0  0  0  0  0  0  0  0  0  0  0  0
  156.3766  141.4793  183.9920 C   0  0  0  0  0  0  0  0  0  0  0  0
  155.6303  140.3461  184.2387 C   0  0  0  0  0  0  0  0  0  0  0  0
  154.6478  139.9502  183.3513 C   0  0  0  0  0  0  0  0  0  0  0  0
  153.9430  138.7346  183.7448 C   0  0  0  0  0  0  0  0  0  0  0  0
  152.8270  138.2695  183.2802 N   0  0  0  0  0  0  0  0  0  0  0  0
  151.9634  138.7957  182.2601 C   0  0  0  0  0  0  0  0  0  0  0  0
  150.7117  138.2296  182.2498 C   0  0  0  0  0  0  0  0  0  0  0  0
  149.7466  138.6258  181.3219 C   0  0  0  0  0  0  0  0  0  0  0  0
  150.0223  139.6008  180.3848 C   0  0  0  0  0  0  0  0  0  0  0  0
  151.2899  140.1750  180.3944 C   0  0  0  0  0  0  0  0  0  0  0  0
  152.2319  139.7701  181.3200 C   0  0  0  0  0  0  0  0  0  0  0  0
  153.4555  140.4472  181.1935 O   0  0  0  0  0  0  0  0  0  0  0  0
  154.4000  140.6822  182.2076 C   0  0  0  0  0  0  0  0  0  0  0  0
  155.1591  141.8077  181.9871 C   0  0  0  0  0  0  0  0  0  0  0  0
  156.9236  143.4388  182.5634 C   0  0  0  0  0  0  0  0  0  0  0  0
  156.3655  144.4476  182.1128 O   0  0  0  0  0  0  0  0  0  0  0  0
  159.1184  144.5418  182.4424 C   0  0  0  0  0  0  0  0  0  0  0  0
  158.2855  143.4437  182.7942 O   0  0  0  0  0  0  0  0  0  0  0  0
 18 19  1  0  0  0
 19 16  1  0  0  0
 16 17  2  0  0  0
 16  1  1  0  0  0
  1  2  2  0  0  0
  2  3  1  0  0  0
  3  4  2  0  0  0
  4  5  1  0  0  0
  5  6  2  0  0  0
  6  7  1  0  0  0
  7  8  2  0  0  0
  8  9  1  0  0  0
  9 10  2  0  0  0
 10 11  1  0  0  0
 11 12  2  0  0  0
 12 13  1  0  0  0
 13 14  1  0  0  0
 14 15  2  0  0  0
 15  1  1  0  0  0
 14  4  1  0  0  0
 12  7  1  0  0  0
M  END
> <minimizedAffinity>
-6.77310

> <CNNscore>
0.5030958652

> <CNNaffinity>
4.8080520630

> <CNN_VS>
2.4189112186

> <CNNaffinity_variance>
0.0634995699

$$$$
[H]C1=Nc2c([H])c([H])c([H])c([H])c2Oc2c([H])c(C(=O)OC([H])([H])[H])c([H])c([H])c21


 19 21  0  0  0  0  0  0  0  0999 V2000
  152.0193  139.4834  181.2237 C   0  0  0  0  0  0  0  0  0  0  0  0
  151.8236  140.0559  179.9792 C   0  0  0  0  0  0  0  0  0  0  0  0
  150.7467  139.6914  179.1986 C   0  0  0  0  0  0  0  0  0  0  0  0
  149.8452  138.7463  179.6500 C   0  0  0  0  0  0  0  0  0  0  0  0
  148.7596  138.4637  178.7169 C   0  0  0  0  0  0  0  0  0  0  0  0
  147.9319  137.4675  178.7287 N   0  0  0  0  0  0  0  0  0  0  0  0
  147.8324  136.3635  179.6422 C   0  0  0  0  0  0  0  0  0  0  0  0
  147.0617  135.3270  179.1741 C   0  0  0  0  0  0  0  0  0  0  0  0
  146.8602  134.1745  179.9362 C   0  0  0  0  0  0  0  0  0  0  0  0
  147.4309  134.0421  181.1858 C   0  0  0  0  0  0  0  0  0  0  0  0
  148.2118  135.0915  181.6608 C   0  0  0  0  0  0  0  0  0  0  0  0
  148.4000  136.2241  180.8926 C   0  0  0  0  0  0  0  0  0  0  0  0
  149.2117  137.1848  181.5168 O   0  0  0  0  0  0  0  0  0  0  0  0
  150.0097  138.1550  180.8863 C   0  0  0  0  0  0  0  0  0  0  0  0
  151.0925  138.5374  181.6434 C   0  0  0  0  0  0  0  0  0  0  0  0
  153.1450  139.8442  182.0742 C   0  0  0  0  0  0  0  0  0  0  0  0
  153.9489  140.7150  181.7168 O   0  0  0  0  0  0  0  0  0  0  0  0
  154.2303  139.6547  184.2730 C   0  0  0  0  0  0  0  0  0  0  0  0
  153.3087  139.2044  183.2874 O   0  0  0  0  0  0  0  0  0  0  0  0
 18 19  1  0  0  0
 19 16  1  0  0  0
 16 17  2  0  0  0
 16  1  1  0  0  0
  1  2  2  0  0  0
  2  3  1  0  0  0
  3  4  2  0  0  0
  4  5  1  0  0  0
  5  6  2  0  0  0
  6  7  1  0  0  0
  7  8  2  0  0  0
  8  9  1  0  0  0
  9 10  2  0  0  0
 10 11  1  0  0  0
 11 12  2  0  0  0
 12 13  1  0  0  0
 13 14  1  0  0  0
 14 15  2  0  0  0
 15  1  1  0  0  0
 14  4  1  0  0  0
 12  7  1  0  0  0
M  END
> <minimizedAffinity>
-5.18370

> <CNNscore>
0.4573410749

> <CNNaffinity>
4.1890306473

> <CNN_VS>
1.9158158302

> <CNNaffinity_variance>
0.0938497707

$$$$
[H]C1=Nc2c([H])c([H])c([H])c([H])c2Oc2c([H])c(C(=O)OC([H])([H])[H])c([H])c([H])c21


 19 21  0  0  0  0  0  0  0  0999 V2000
  152.3834  135.8862  192.3063 C   0  0  0  0  0  0  0  0  0  0  0  0
  153.6170  135.4252  192.7311 C   0  0  0  0  0  0  0  0  0  0  0  0
  154.7694  135.7808  192.0622 C   0  0  0  0  0  0  0  0  0  0  0  0
  154.7078  136.6052  190.9549 C   0  0  0  0  0  0  0  0  0  0  0  0
  156.0054  136.8940  190.3532 C   0  0  0  0  0  0  0  0  0  0  0  0
  156.2529  137.3986  189.1862 N   0  0  0  0  0  0  0  0  0  0  0  0
  155.3472  137.8180  188.1532 C   0  0  0  0  0  0  0  0  0  0  0  0
  155.9479  137.9951  186.9304 C   0  0  0  0  0  0  0  0  0  0  0  0
  155.2120  138.4015  185.8155 C   0  0  0  0  0  0  0  0  0  0  0  0
  153.8555  138.6379  185.9092 C   0  0  0  0  0  0  0  0  0  0  0  0
  153.2461  138.4588  187.1474 C   0  0  0  0  0  0  0  0  0  0  0  0
  153.9904  138.0563  188.2393 C   0  0  0  0  0  0  0  0  0  0  0  0
  153.2252  137.9232  189.4091 O   0  0  0  0  0  0  0  0  0  0  0  0
  153.4942  137.0834  190.5036 C   0  0  0  0  0  0  0  0  0  0  0  0
  152.3613  136.7126  191.1898 C   0  0  0  0  0  0  0  0  0  0  0  0
  151.1466  135.5309  192.9883 C   0  0  0  0  0  0  0  0  0  0  0  0
  150.2200  136.3470  193.0748 O   0  0  0  0  0  0  0  0  0  0  0  0
  149.8659  133.8725  194.2758 C   0  0  0  0  0  0  0  0  0  0  0  0
  151.0159  134.2711  193.5395 O   0  0  0  0  0  0  0  0  0  0  0  0
 18 19  1  0  0  0
 19 16  1  0  0  0
 16 17  2  0  0  0
 16  1  1  0  0  0
  1  2  2  0  0  0
  2  3  1  0  0  0
  3  4  2  0  0  0
  4  5  1  0  0  0
  5  6  2  0  0  0
  6  7  1  0  0  0
  7  8  2  0  0  0
  8  9  1  0  0  0
  9 10  2  0  0  0
 10 11  1  0  0  0
 11 12  2  0  0  0
 12 13  1  0  0  0
 13 14  1  0  0  0
 14 15  2  0  0  0
 15  1  1  0  0  0
 14  4  1  0  0  0
 12  7  1  0  0  0
M  END
> <minimizedAffinity>
-5.68886

> <CNNscore>
0.4572056234

> <CNNaffinity>
4.2538237572

> <CNN_VS>
1.9448721409

> <CNNaffinity_variance>
0.1772667319

$$$$
[H]C1=Nc2c([H])c([H])c([H])c([H])c2Oc2c([H])c(C(=O)OC([H])([H])[H])c([H])c([H])c21


 19 21  0  0  0  0  0  0  0  0999 V2000
  154.7863  137.4740  188.3252 C   0  0  0  0  0  0  0  0  0  0  0  0
  153.4912  137.6469  187.8694 C   0  0  0  0  0  0  0  0  0  0  0  0
  153.2487  138.2393  186.6479 C   0  0  0  0  0  0  0  0  0  0  0  0
  154.2989  138.6698  185.8598 C   0  0  0  0  0  0  0  0  0  0  0  0
  153.8884  139.2756  184.5974 C   0  0  0  0  0  0  0  0  0  0  0  0
  154.5966  139.9957  183.7864 N   0  0  0  0  0  0  0  0  0  0  0  0
  155.9695  140.4075  183.8801 C   0  0  0  0  0  0  0  0  0  0  0  0
  156.3000  141.4277  183.0215 C   0  0  0  0  0  0  0  0  0  0  0  0
  157.5947  141.9492  182.9826 C   0  0  0  0  0  0  0  0  0  0  0  0
  158.5835  141.4537  183.8082 C   0  0  0  0  0  0  0  0  0  0  0  0
  158.2498  140.4203  184.6784 C   0  0  0  0  0  0  0  0  0  0  0  0
  156.9636  139.9171  184.7027 C   0  0  0  0  0  0  0  0  0  0  0  0
  156.7949  138.8805  185.6346 O   0  0  0  0  0  0  0  0  0  0  0  0
  155.6032  138.5132  186.2834 C   0  0  0  0  0  0  0  0  0  0  0  0
  155.8157  137.9193  187.5056 C   0  0  0  0  0  0  0  0  0  0  0  0
  155.0792  136.8528  189.6095 C   0  0  0  0  0  0  0  0  0  0  0  0
  154.7809  135.6697  189.8178 O   0  0  0  0  0  0  0  0  0  0  0  0
  155.1214  138.7847  191.1308 C   0  0  0  0  0  0  0  0  0  0  0  0
  155.6949  137.5976  190.5965 O   0  0  0  0  0  0  0  0  0  0  0  0
 18 19  1  0  0  0
 19 16  1  0  0  0
 16 17  2  0  0  0
 16  1  1  0  0  0
  1  2  2  0  0  0
  2  3  1  0  0  0
  3  4  2  0  0  0
  4  5  1  0  0  0
  5  6  2  0  0  0
  6  7  1  0  0  0
  7  8  2  0  0  0
  8  9  1  0  0  0
  9 10  2  0  0  0
 10 11  1  0  0  0
 11 12  2  0  0  0
 12 13  1  0  0  0
 13 14  1  0  0  0
 14 15  2  0  0  0
 15  1  1  0  0  0
 14  4  1  0  0  0
 12  7  1  0  0  0
M  END
> <minimizedAffinity>
-5.81082

> <CNNscore>
0.4367714226

> <CNNaffinity>
4.7527060509

> <CNN_VS>
2.0758461952

> <CNNaffinity_variance>
0.1830616444

$$$$
[H]c1oc2c(c1C([H])([H])C(=O)N([H])c1nc(-c3c([H])c(F)c(OC([H])([H])C([H])(C([H])([H])[H])C([H])([H])[H])c(F)c3[H])c([H])s1)c(=O)n(C([H])([H])[H])c(=O)n2C([H])([H])[H]


 36 39  0  0  0  0  0  0  0  0999 V2000
  154.4588  136.8902  190.7510 C   0  0  0  0  0  0  0  0  0  0  0  0
  155.7755  137.0315  191.1144 C   0  0  0  0  0  0  0  0  0  0  0  0
  156.4174  137.8860  189.7831 S   0  0  0  0  0  0  0  0  0  0  0  0
  154.9786  138.0129  188.8475 C   0  0  0  0  0  0  0  0  0  0  0  0
  154.1014  137.3957  189.6086 N   0  0  0  0  0  0  0  0  0  0  0  0
  151.7026  134.8120  193.2632 C   0  0  0  0  0  0  0  0  0  0  0  0
  152.8801  134.2351  192.8968 C   0  0  0  0  0  0  0  0  0  0  0  0
  153.1949  132.9592  193.2927 F   0  0  0  0  0  0  0  0  0  0  0  0
  153.7628  134.9294  192.0805 C   0  0  0  0  0  0  0  0  0  0  0  0
  153.4888  136.1837  191.6254 C   0  0  0  0  0  0  0  0  0  0  0  0
  152.2959  136.7432  192.0065 C   0  0  0  0  0  0  0  0  0  0  0  0
  151.3919  136.1106  192.8055 C   0  0  0  0  0  0  0  0  0  0  0  0
  150.2064  136.6771  193.1779 F   0  0  0  0  0  0  0  0  0  0  0  0
  150.7301  134.2349  194.0826 O   0  0  0  0  0  0  0  0  0  0  0  0
  149.8326  133.3225  193.5826 C   0  0  0  0  0  0  0  0  0  0  0  0
  149.1827  133.4082  191.2518 C   0  0  0  0  0  0  0  0  0  0  0  0
  148.7196  133.7264  192.7086 C   0  0  0  0  0  0  0  0  0  0  0  0
  147.4400  132.9124  192.9184 C   0  0  0  0  0  0  0  0  0  0  0  0
  154.8136  138.6416  187.5610 N   0  0  0  0  0  0  0  0  0  0  0  0
  155.0172  137.8832  186.3868 C   0  0  0  0  0  0  0  0  0  0  0  0
  155.3386  136.6798  186.4594 O   0  0  0  0  0  0  0  0  0  0  0  0
  154.5455  139.6464  187.5486 H   0  0  0  0  0  0  0  0  0  0  0  0
  154.8405  138.5362  185.0645 C   0  0  0  0  0  0  0  0  0  0  0  0
  156.0196  139.3845  184.7989 C   0  0  0  0  0  0  0  0  0  0  0  0
  157.3221  139.1373  185.1451 C   0  0  0  0  0  0  0  0  0  0  0  0
  158.0693  140.1427  184.7210 O   0  0  0  0  0  0  0  0  0  0  0  0
  157.3378  141.0438  184.1126 C   0  0  0  0  0  0  0  0  0  0  0  0
  157.5772  142.2342  183.5043 N   0  0  0  0  0  0  0  0  0  0  0  0
  158.9429  142.7401  183.4499 C   0  0  0  0  0  0  0  0  0  0  0  0
  156.5625  142.9293  182.9603 C   0  0  0  0  0  0  0  0  0  0  0  0
  156.7980  144.0289  182.4006 O   0  0  0  0  0  0  0  0  0  0  0  0
  155.2907  142.4876  182.9928 N   0  0  0  0  0  0  0  0  0  0  0  0
  154.2510  143.2612  182.3963 C   0  0  0  0  0  0  0  0  0  0  0  0
  155.0050  141.3170  183.5830 C   0  0  0  0  0  0  0  0  0  0  0  0
  153.8204  140.9254  183.6032 O   0  0  0  0  0  0  0  0  0  0  0  0
  156.0249  140.5961  184.1421 C   0  0  0  0  0  0  0  0  0  0  0  0
 16 17  1  0  0  0
 17 18  1  0  0  0
 17 15  1  0  0  0
 15 14  1  0  0  0
 14  6  1  0  0  0
  6  7  2  0  0  0
  7  8  1  0  0  0
  7  9  1  0  0  0
  9 10  2  0  0  0
 10 11  1  0  0  0
 11 12  2  0  0  0
 12 13  1  0  0  0
 10  1  1  0  0  0
  1  2  2  0  0  0
  2  3  1  0  0  0
  3  4  1  0  0  0
  4 19  1  0  0  0
 19 20  1  0  0  0
 20 21  2  0  0  0
 20 23  1  0  0  0
 23 24  1  0  0  0
 24 25  2  0  0  0
 25 26  1  0  0  0
 26 27  1  0  0  0
 27 28  1  0  0  0
 28 29  1  0  0  0
 28 30  1  0  0  0
 30 31  2  0  0  0
 30 32  1  0  0  0
 32 33  1  0  0  0
 32 34  1  0  0  0
 34 35  2  0  0  0
 34 36  1  0  0  0
  4  5  2  0  0  0
 12  6  1  0  0  0
  5  1  1  0  0  0
 36 24  1  0  0  0
 36 27  2  0  0  0
 19 22  1  0  0  0
M  END
> <minimizedAffinity>
-6.84868

> <CNNscore>
0.3506498933

> <CNNaffinity>
6.3579750061

> <CNN_VS>
2.2294232845

> <CNNaffinity_variance>
0.0307818092

$$$$
[H]c1oc2c(c1C([H])([H])C(=O)N([H])c1nc(-c3c([H])c(F)c(OC([H])([H])C([H])(C([H])([H])[H])C([H])([H])[H])c(F)c3[H])c([H])s1)c(=O)n(C([H])([H])[H])c(=O)n2C([H])([H])[H]


 36 39  0  0  0  0  0  0  0  0999 V2000
  154.2934  138.4716  185.1529 C   0  0  0  0  0  0  0  0  0  0  0  0
  153.2805  138.6303  186.0664 C   0  0  0  0  0  0  0  0  0  0  0  0
  152.9310  137.0132  186.4875 S   0  0  0  0  0  0  0  0  0  0  0  0
  154.0899  136.2345  185.4814 C   0  0  0  0  0  0  0  0  0  0  0  0
  154.6684  137.2560  184.8885 N   0  0  0  0  0  0  0  0  0  0  0  0
  156.1633  141.8223  183.2811 C   0  0  0  0  0  0  0  0  0  0  0  0
  156.8840  140.9703  184.0611 C   0  0  0  0  0  0  0  0  0  0  0  0
  158.2187  141.1864  184.2969 F   0  0  0  0  0  0  0  0  0  0  0  0
  156.2562  139.8859  184.6591 C   0  0  0  0  0  0  0  0  0  0  0  0
  154.9268  139.6410  184.4924 C   0  0  0  0  0  0  0  0  0  0  0  0
  154.2216  140.5139  183.7037 C   0  0  0  0  0  0  0  0  0  0  0  0
  154.7834  141.5935  183.0916 C   0  0  0  0  0  0  0  0  0  0  0  0
  154.0712  142.4569  182.3091 F   0  0  0  0  0  0  0  0  0  0  0  0
  156.6650  142.9427  182.6153 O   0  0  0  0  0  0  0  0  0  0  0  0
  157.4230  142.8101  181.4769 C   0  0  0  0  0  0  0  0  0  0  0  0
  159.2038  143.2457  179.8953 C   0  0  0  0  0  0  0  0  0  0  0  0
  158.8088  143.3001  181.4049 C   0  0  0  0  0  0  0  0  0  0  0  0
  158.9702  144.7655  181.8177 C   0  0  0  0  0  0  0  0  0  0  0  0
  154.3356  134.8206  185.3472 N   0  0  0  0  0  0  0  0  0  0  0  0
  153.5842  134.0711  184.4149 C   0  0  0  0  0  0  0  0  0  0  0  0
  152.7136  134.6250  183.7136 O   0  0  0  0  0  0  0  0  0  0  0  0
  155.0703  134.4016  185.9523 H   0  0  0  0  0  0  0  0  0  0  0  0
  153.8462  132.6155  184.2784 C   0  0  0  0  0  0  0  0  0  0  0  0
  155.1914  132.4335  183.6972 C   0  0  0  0  0  0  0  0  0  0  0  0
  156.3984  132.5222  184.3397 C   0  0  0  0  0  0  0  0  0  0  0  0
  157.3608  132.2893  183.4631 O   0  0  0  0  0  0  0  0  0  0  0  0
  156.8624  132.0506  182.2749 C   0  0  0  0  0  0  0  0  0  0  0  0
  157.3752  131.7601  181.0513 N   0  0  0  0  0  0  0  0  0  0  0  0
  158.8207  131.6619  180.8938 C   0  0  0  0  0  0  0  0  0  0  0  0
  156.5530  131.5651  180.0050 C   0  0  0  0  0  0  0  0  0  0  0  0
  157.0405  131.2970  178.8787 O   0  0  0  0  0  0  0  0  0  0  0  0
  155.2137  131.6472  180.1190 N   0  0  0  0  0  0  0  0  0  0  0  0
  154.3854  131.4268  178.9785 C   0  0  0  0  0  0  0  0  0  0  0  0
  154.6606  131.9321  181.3078 C   0  0  0  0  0  0  0  0  0  0  0  0
  153.4178  132.0043  181.3927 O   0  0  0  0  0  0  0  0  0  0  0  0
  155.4817  132.1337  182.3837 C   0  0  0  0  0  0  0  0  0  0  0  0
 16 17  1  0  0  0
 17 18  1  0  0  0
 17 15  1  0  0  0
 15 14  1  0  0  0
 14  6  1  0  0  0
  6  7  2  0  0  0
  7  8  1  0  0  0
  7  9  1  0  0  0
  9 10  2  0  0  0
 10 11  1  0  0  0
 11 12  2  0  0  0
 12 13  1  0  0  0
 10  1  1  0  0  0
  1  2  2  0  0  0
  2  3  1  0  0  0
  3  4  1  0  0  0
  4 19  1  0  0  0
 19 20  1  0  0  0
 20 21  2  0  0  0
 20 23  1  0  0  0
 23 24  1  0  0  0
 24 25  2  0  0  0
 25 26  1  0  0  0
 26 27  1  0  0  0
 27 28  1  0  0  0
 28 29  1  0  0  0
 28 30  1  0  0  0
 30 31  2  0  0  0
 30 32  1  0  0  0
 32 33  1  0  0  0
 32 34  1  0  0  0
 34 35  2  0  0  0
 34 36  1  0  0  0
  4  5  2  0  0  0
 12  6  1  0  0  0
  5  1  1  0  0  0
 36 24  1  0  0  0
 36 27  2  0  0  0
 19 22  1  0  0  0
M  END
> <minimizedAffinity>
-6.71832

> <CNNscore>
0.2962063253

> <CNNaffinity>
6.3499236107

> <CNN_VS>
1.8808875084

> <CNNaffinity_variance>
0.1160157472

$$$$
[H]c1oc2c(c1C([H])([H])C(=O)N([H])c1nc(-c3c([H])c(F)c(OC([H])([H])C([H])(C([H])([H])[H])C([H])([H])[H])c(F)c3[H])c([H])s1)c(=O)n(C([H])([H])[H])c(=O)n2C([H])([H])[H]


 36 39  0  0  0  0  0  0  0  0999 V2000
  154.9041  140.6250  182.6730 C   0  0  0  0  0  0  0  0  0  0  0  0
  153.9383  141.3130  181.9805 C   0  0  0  0  0  0  0  0  0  0  0  0
  152.6418  140.2022  181.9892 S   0  0  0  0  0  0  0  0  0  0  0  0
  153.4019  138.9344  182.8703 C   0  0  0  0  0  0  0  0  0  0  0  0
  154.5948  139.4378  183.1008 N   0  0  0  0  0  0  0  0  0  0  0  0
  158.7773  142.2683  183.3979 C   0  0  0  0  0  0  0  0  0  0  0  0
  158.4872  140.9877  183.7578 C   0  0  0  0  0  0  0  0  0  0  0  0
  159.4171  140.2053  184.3957 F   0  0  0  0  0  0  0  0  0  0  0  0
  157.2216  140.4727  183.5112 C   0  0  0  0  0  0  0  0  0  0  0  0
  156.2459  141.2130  182.9153 C   0  0  0  0  0  0  0  0  0  0  0  0
  156.5613  142.5006  182.5634 C   0  0  0  0  0  0  0  0  0  0  0  0
  157.7850  143.0591  182.7795 C   0  0  0  0  0  0  0  0  0  0  0  0
  158.0877  144.3429  182.4257 F   0  0  0  0  0  0  0  0  0  0  0  0
  160.0050  142.9092  183.5771 O   0  0  0  0  0  0  0  0  0  0  0  0
  160.3997  143.3505  184.8171 C   0  0  0  0  0  0  0  0  0  0  0  0
  162.5155  142.1737  184.7827 C   0  0  0  0  0  0  0  0  0  0  0  0
  161.2935  142.5571  185.6758 C   0  0  0  0  0  0  0  0  0  0  0  0
  161.8776  143.3409  186.8541 C   0  0  0  0  0  0  0  0  0  0  0  0
  152.8436  137.6586  183.2421 N   0  0  0  0  0  0  0  0  0  0  0  0
  152.6864  137.3420  184.6098 C   0  0  0  0  0  0  0  0  0  0  0  0
  153.0284  138.1568  185.4906 O   0  0  0  0  0  0  0  0  0  0  0  0
  152.5731  137.0110  182.4746 H   0  0  0  0  0  0  0  0  0  0  0  0
  152.1057  136.0276  184.9856 C   0  0  0  0  0  0  0  0  0  0  0  0
  150.8142  136.2614  185.6620 C   0  0  0  0  0  0  0  0  0  0  0  0
  149.6835  136.8261  185.1326 C   0  0  0  0  0  0  0  0  0  0  0  0
  148.7473  136.8503  186.0663 O   0  0  0  0  0  0  0  0  0  0  0  0
  149.1910  136.3338  187.1859 C   0  0  0  0  0  0  0  0  0  0  0  0
  148.6730  136.1136  188.4219 N   0  0  0  0  0  0  0  0  0  0  0  0
  147.2952  136.5038  188.6925 C   0  0  0  0  0  0  0  0  0  0  0  0
  149.4274  135.5410  189.3767 C   0  0  0  0  0  0  0  0  0  0  0  0
  148.9357  135.3430  190.5156 O   0  0  0  0  0  0  0  0  0  0  0  0
  150.7026  135.1679  189.1569 N   0  0  0  0  0  0  0  0  0  0  0  0
  151.4586  134.5596  190.2028 C   0  0  0  0  0  0  0  0  0  0  0  0
  151.2581  135.3653  187.9516 C   0  0  0  0  0  0  0  0  0  0  0  0
  152.4411  135.0132  187.7682 O   0  0  0  0  0  0  0  0  0  0  0  0
  150.5055  135.9468  186.9679 C   0  0  0  0  0  0  0  0  0  0  0  0
 16 17  1  0  0  0
 17 18  1  0  0  0
 17 15  1  0  0  0
 15 14  1  0  0  0
 14  6  1  0  0  0
  6  7  2  0  0  0
  7  8  1  0  0  0
  7  9  1  0  0  0
  9 10  2  0  0  0
 10 11  1  0  0  0
 11 12  2  0  0  0
 12 13  1  0  0  0
 10  1  1  0  0  0
  1  2  2  0  0  0
  2  3  1  0  0  0
  3  4  1  0  0  0
  4 19  1  0  0  0
 19 20  1  0  0  0
 20 21  2  0  0  0
 20 23  1  0  0  0
 23 24  1  0  0  0
 24 25  2  0  0  0
 25 26  1  0  0  0
 26 27  1  0  0  0
 27 28  1  0  0  0
 28 29  1  0  0  0
 28 30  1  0  0  0
 30 31  2  0  0  0
 30 32  1  0  0  0
 32 33  1  0  0  0
 32 34  1  0  0  0
 34 35  2  0  0  0
 34 36  1  0  0  0
  4  5  2  0  0  0
 12  6  1  0  0  0
  5  1  1  0  0  0
 36 24  1  0  0  0
 36 27  2  0  0  0
 19 22  1  0  0  0
M  END
> <minimizedAffinity>
-7.62012

> <CNNscore>
0.2365970165

> <CNNaffinity>
6.2188630104

> <CNN_VS>
1.4713643789

> <CNNaffinity_variance>
0.1468249261

$$$$
[H]c1oc2c(c1C([H])([H])C(=O)N([H])c1nc(-c3c([H])c(F)c(OC([H])([H])C([H])(C([H])([H])[H])C([H])([H])[H])c(F)c3[H])c([H])s1)c(=O)n(C([H])([H])[H])c(=O)n2C([H])([H])[H]


 36 39  0  0  0  0  0  0  0  0999 V2000
  155.1559  139.6906  183.6064 C   0  0  0  0  0  0  0  0  0  0  0  0
  154.1007  139.9306  182.7611 C   0  0  0  0  0  0  0  0  0  0  0  0
  152.9880  138.7268  183.2380 S   0  0  0  0  0  0  0  0  0  0  0  0
  153.9270  137.9932  184.4797 C   0  0  0  0  0  0  0  0  0  0  0  0
  155.0282  138.7117  184.4512 N   0  0  0  0  0  0  0  0  0  0  0  0
  158.7373  142.0104  183.4694 C   0  0  0  0  0  0  0  0  0  0  0  0
  158.7668  140.7095  183.8699 C   0  0  0  0  0  0  0  0  0  0  0  0
  159.9389  140.1217  184.2755 F   0  0  0  0  0  0  0  0  0  0  0  0
  157.5906  139.9729  183.9054 C   0  0  0  0  0  0  0  0  0  0  0  0
  156.3913  140.5124  183.5506 C   0  0  0  0  0  0  0  0  0  0  0  0
  156.3866  141.8249  183.1523 C   0  0  0  0  0  0  0  0  0  0  0  0
  157.5083  142.5961  183.0969 C   0  0  0  0  0  0  0  0  0  0  0  0
  157.4917  143.9026  182.6996 F   0  0  0  0  0  0  0  0  0  0  0  0
  159.8401  142.8624  183.3781 O   0  0  0  0  0  0  0  0  0  0  0  0
  160.2554  143.6023  184.4589 C   0  0  0  0  0  0  0  0  0  0  0  0
  161.0415  142.7456  186.5828 C   0  0  0  0  0  0  0  0  0  0  0  0
  161.4932  143.2843  185.1886 C   0  0  0  0  0  0  0  0  0  0  0  0
  162.3111  142.1539  184.5584 C   0  0  0  0  0  0  0  0  0  0  0  0
  153.5670  136.8767  185.3170 N   0  0  0  0  0  0  0  0  0  0  0  0
  152.9088  137.1135  186.5443 C   0  0  0  0  0  0  0  0  0  0  0  0
  152.6416  138.2780  186.9038 O   0  0  0  0  0  0  0  0  0  0  0  0
  153.8097  135.9242  184.9774 H   0  0  0  0  0  0  0  0  0  0  0  0
  152.5362  135.9579  187.3997 C   0  0  0  0  0  0  0  0  0  0  0  0
  152.6602  136.3622  188.8145 C   0  0  0  0  0  0  0  0  0  0  0  0
  153.6825  137.0649  189.3964 C   0  0  0  0  0  0  0  0  0  0  0  0
  153.4088  137.2218  190.6807 O   0  0  0  0  0  0  0  0  0  0  0  0
  152.2629  136.6638  190.9855 C   0  0  0  0  0  0  0  0  0  0  0  0
  151.5233  136.5286  192.1165 N   0  0  0  0  0  0  0  0  0  0  0  0
  152.0199  137.1023  193.3607 C   0  0  0  0  0  0  0  0  0  0  0  0
  150.3489  135.8743  192.0796 C   0  0  0  0  0  0  0  0  0  0  0  0
  149.6747  135.7565  193.1329 O   0  0  0  0  0  0  0  0  0  0  0  0
  149.8626  135.3349  190.9454 N   0  0  0  0  0  0  0  0  0  0  0  0
  148.6086  134.6548  190.9590 C   0  0  0  0  0  0  0  0  0  0  0  0
  150.5578  135.4427  189.8029 C   0  0  0  0  0  0  0  0  0  0  0  0
  150.0905  134.9357  188.7629 O   0  0  0  0  0  0  0  0  0  0  0  0
  151.7550  136.1050  189.8215 C   0  0  0  0  0  0  0  0  0  0  0  0
 16 17  1  0  0  0
 17 18  1  0  0  0
 17 15  1  0  0  0
 15 14  1  0  0  0
 14  6  1  0  0  0
  6  7  2  0  0  0
  7  8  1  0  0  0
  7  9  1  0  0  0
  9 10  2  0  0  0
 10 11  1  0  0  0
 11 12  2  0  0  0
 12 13  1  0  0  0
 10  1  1  0  0  0
  1  2  2  0  0  0
  2  3  1  0  0  0
  3  4  1  0  0  0
  4 19  1  0  0  0
 19 20  1  0  0  0
 20 21  2  0  0  0
 20 23  1  0  0  0
 23 24  1  0  0  0
 24 25  2  0  0  0
 25 26  1  0  0  0
 26 27  1  0  0  0
 27 28  1  0  0  0
 28 29  1  0  0  0
 28 30  1  0  0  0
 30 31  2  0  0  0
 30 32  1  0  0  0
 32 33  1  0  0  0
 32 34  1  0  0  0
 34 35  2  0  0  0
 34 36  1  0  0  0
  4  5  2  0  0  0
 12  6  1  0  0  0
  5  1  1  0  0  0
 36 24  1  0  0  0
 36 27  2  0  0  0
 19 22  1  0  0  0
M  END
> <minimizedAffinity>
-8.33522

> <CNNscore>
0.2328284085

> <CNNaffinity>
6.1746559143

> <CNN_VS>
1.4376353025

> <CNNaffinity_variance>
0.1063381210

$$$$
[H]c1oc2c(c1C([H])([H])C(=O)N([H])c1nc(-c3c([H])c(F)c(OC([H])([H])C([H])(C([H])([H])[H])C([H])([H])[H])c(F)c3[H])c([H])s1)c(=O)n(C([H])([H])[H])c(=O)n2C([H])([H])[H]


 36 39  0  0  0  0  0  0  0  0999 V2000
  154.4343  139.3822  183.6015 C   0  0  0  0  0  0  0  0  0  0  0  0
  153.3396  139.1921  182.7945 C   0  0  0  0  0  0  0  0  0  0  0  0
  152.6174  137.8159  183.5010 S   0  0  0  0  0  0  0  0  0  0  0  0
  153.7458  137.5656  184.7761 C   0  0  0  0  0  0  0  0  0  0  0  0
  154.6008  138.5458  184.5818 N   0  0  0  0  0  0  0  0  0  0  0  0
  157.2190  142.5474  182.9277 C   0  0  0  0  0  0  0  0  0  0  0  0
  157.6207  141.3777  183.4969 C   0  0  0  0  0  0  0  0  0  0  0  0
  158.9196  141.1992  183.9031 F   0  0  0  0  0  0  0  0  0  0  0  0
  156.6989  140.3607  183.7055 C   0  0  0  0  0  0  0  0  0  0  0  0
  155.3886  140.4933  183.3577 C   0  0  0  0  0  0  0  0  0  0  0  0
  155.0075  141.6811  182.7875 C   0  0  0  0  0  0  0  0  0  0  0  0
  155.8668  142.7131  182.5582 C   0  0  0  0  0  0  0  0  0  0  0  0
  155.4760  143.8920  181.9906 F   0  0  0  0  0  0  0  0  0  0  0  0
  158.0367  143.6456  182.6532 O   0  0  0  0  0  0  0  0  0  0  0  0
  158.9860  143.5920  181.6611 C   0  0  0  0  0  0  0  0  0  0  0  0
  159.8415  143.8904  179.4158 C   0  0  0  0  0  0  0  0  0  0  0  0
  158.6242  143.3810  180.2503 C   0  0  0  0  0  0  0  0  0  0  0  0
  158.4532  141.9084  179.8679 C   0  0  0  0  0  0  0  0  0  0  0  0
  153.7277  136.5336  185.7821 N   0  0  0  0  0  0  0  0  0  0  0  0
  152.7347  136.5607  186.7864 C   0  0  0  0  0  0  0  0  0  0  0  0
  151.8803  137.4698  186.8061 O   0  0  0  0  0  0  0  0  0  0  0  0
  154.4592  135.7964  185.7267 H   0  0  0  0  0  0  0  0  0  0  0  0
  152.7190  135.4913  187.8170 C   0  0  0  0  0  0  0  0  0  0  0  0
  152.7532  136.1242  189.1506 C   0  0  0  0  0  0  0  0  0  0  0  0
  153.6686  137.0274  189.6238 C   0  0  0  0  0  0  0  0  0  0  0  0
  153.3409  137.3495  190.8639 O   0  0  0  0  0  0  0  0  0  0  0  0
  152.2600  136.7123  191.2417 C   0  0  0  0  0  0  0  0  0  0  0  0
  151.5085  136.6678  192.3721 N   0  0  0  0  0  0  0  0  0  0  0  0
  151.8978  137.4850  193.5143 C   0  0  0  0  0  0  0  0  0  0  0  0
  150.4206  135.8792  192.4277 C   0  0  0  0  0  0  0  0  0  0  0  0
  149.7344  135.8475  193.4794 O   0  0  0  0  0  0  0  0  0  0  0  0
  150.0344  135.1141  191.3889 N   0  0  0  0  0  0  0  0  0  0  0  0
  148.8690  134.2984  191.4976 C   0  0  0  0  0  0  0  0  0  0  0  0
  150.7452  135.1245  190.2509 C   0  0  0  0  0  0  0  0  0  0  0  0
  150.3713  134.4082  189.3001 O   0  0  0  0  0  0  0  0  0  0  0  0
  151.8555  135.9208  190.1763 C   0  0  0  0  0  0  0  0  0  0  0  0
 16 17  1  0  0  0
 17 18  1  0  0  0
 17 15  1  0  0  0
 15 14  1  0  0  0
 14  6  1  0  0  0
  6  7  2  0  0  0
  7  8  1  0  0  0
  7  9  1  0  0  0
  9 10  2  0  0  0
 10 11  1  0  0  0
 11 12  2  0  0  0
 12 13  1  0  0  0
 10  1  1  0  0  0
  1  2  2  0  0  0
  2  3  1  0  0  0
  3  4  1  0  0  0
  4 19  1  0  0  0
 19 20  1  0  0  0
 20 21  2  0  0  0
 20 23  1  0  0  0
 23 24  1  0  0  0
 24 25  2  0  0  0
 25 26  1  0  0  0
 26 27  1  0  0  0
 27 28  1  0  0  0
 28 29  1  0  0  0
 28 30  1  0  0  0
 30 31  2  0  0  0
 30 32  1  0  0  0
 32 33  1  0  0  0
 32 34  1  0  0  0
 34 35  2  0  0  0
 34 36  1  0  0  0
  4  5  2  0  0  0
 12  6  1  0  0  0
  5  1  1  0  0  0
 36 24  1  0  0  0
 36 27  2  0  0  0
 19 22  1  0  0  0
M  END
> <minimizedAffinity>
-8.28140

> <CNNscore>
0.2282771021

> <CNNaffinity>
6.1613321304

> <CNN_VS>
1.4064910412

> <CNNaffinity_variance>
0.2721793950

$$$$
[H]c1oc2c(c1C([H])([H])C(=O)N([H])c1nc(-c3c([H])c(F)c(OC([H])([H])C([H])(C([H])([H])[H])C([H])([H])[H])c(F)c3[H])c([H])s1)c(=O)n(C([H])([H])[H])c(=O)n2C([H])([H])[H]


 36 39  0  0  0  0  0  0  0  0999 V2000
  155.8335  141.6165  182.8910 C   0  0  0  0  0  0  0  0  0  0  0  0
  155.1267  142.7822  182.7250 C   0  0  0  0  0  0  0  0  0  0  0  0
  153.5496  142.1977  182.4320 S   0  0  0  0  0  0  0  0  0  0  0  0
  153.8814  140.5124  182.5385 C   0  0  0  0  0  0  0  0  0  0  0  0
  155.1723  140.5026  182.7897 N   0  0  0  0  0  0  0  0  0  0  0  0
  160.0242  141.6063  183.7064 C   0  0  0  0  0  0  0  0  0  0  0  0
  159.2844  140.4732  183.8556 C   0  0  0  0  0  0  0  0  0  0  0  0
  159.8566  139.3103  184.3072 F   0  0  0  0  0  0  0  0  0  0  0  0
  157.9232  140.4983  183.5833 C   0  0  0  0  0  0  0  0  0  0  0  0
  157.2921  141.6317  183.1680 C   0  0  0  0  0  0  0  0  0  0  0  0
  158.0580  142.7608  183.0267 C   0  0  0  0  0  0  0  0  0  0  0  0
  159.3964  142.7959  183.2784 C   0  0  0  0  0  0  0  0  0  0  0  0
  160.1490  143.9264  183.1352 F   0  0  0  0  0  0  0  0  0  0  0  0
  161.3969  141.7220  183.9357 O   0  0  0  0  0  0  0  0  0  0  0  0
  161.8827  142.5262  184.9383 C   0  0  0  0  0  0  0  0  0  0  0  0
  162.8133  142.7528  187.1621 C   0  0  0  0  0  0  0  0  0  0  0  0
  161.5631  142.2818  186.3539 C   0  0  0  0  0  0  0  0  0  0  0  0
  160.3957  143.1212  186.8796 C   0  0  0  0  0  0  0  0  0  0  0  0
  152.9559  139.4182  182.3851 N   0  0  0  0  0  0  0  0  0  0  0  0
  152.4439  139.1169  181.1035 C   0  0  0  0  0  0  0  0  0  0  0  0
  152.7865  139.7914  180.1113 O   0  0  0  0  0  0  0  0  0  0  0  0
  152.6983  138.8840  183.2394 H   0  0  0  0  0  0  0  0  0  0  0  0
  151.4945  137.9848  180.9519 C   0  0  0  0  0  0  0  0  0  0  0  0
  150.2504  138.3157  181.6751 C   0  0  0  0  0  0  0  0  0  0  0  0
  149.2058  139.0844  181.2329 C   0  0  0  0  0  0  0  0  0  0  0  0
  148.2859  139.1320  182.1818 O   0  0  0  0  0  0  0  0  0  0  0  0
  148.6593  138.4386  183.2292 C   0  0  0  0  0  0  0  0  0  0  0  0
  148.1213  138.1550  184.4436 N   0  0  0  0  0  0  0  0  0  0  0  0
  146.8115  138.6968  184.7823 C   0  0  0  0  0  0  0  0  0  0  0  0
  148.7940  137.3824  185.3150 C   0  0  0  0  0  0  0  0  0  0  0  0
  148.2848  137.1279  186.4347 O   0  0  0  0  0  0  0  0  0  0  0  0
  150.0048  136.8659  185.0307 N   0  0  0  0  0  0  0  0  0  0  0  0
  150.6746  136.0479  185.9886 C   0  0  0  0  0  0  0  0  0  0  0  0
  150.5769  137.1185  183.8436 C   0  0  0  0  0  0  0  0  0  0  0  0
  151.6993  136.6311  183.5995 O   0  0  0  0  0  0  0  0  0  0  0  0
  149.9071  137.9028  182.9444 C   0  0  0  0  0  0  0  0  0  0  0  0
 16 17  1  0  0  0
 17 18  1  0  0  0
 17 15  1  0  0  0
 15 14  1  0  0  0
 14  6  1  0  0  0
  6  7  2  0  0  0
  7  8  1  0  0  0
  7  9  1  0  0  0
  9 10  2  0  0  0
 10 11  1  0  0  0
 11 12  2  0  0  0
 12 13  1  0  0  0
 10  1  1  0  0  0
  1  2  2  0  0  0
  2  3  1  0  0  0
  3  4  1  0  0  0
  4 19  1  0  0  0
 19 20  1  0  0  0
 20 21  2  0  0  0
 20 23  1  0  0  0
 23 24  1  0  0  0
 24 25  2  0  0  0
 25 26  1  0  0  0
 26 27  1  0  0  0
 27 28  1  0  0  0
 28 29  1  0  0  0
 28 30  1  0  0  0
 30 31  2  0  0  0
 30 32  1  0  0  0
 32 33  1  0  0  0
 32 34  1  0  0  0
 34 35  2  0  0  0
 34 36  1  0  0  0
  4  5  2  0  0  0
 12  6  1  0  0  0
  5  1  1  0  0  0
 36 24  1  0  0  0
 36 27  2  0  0  0
 19 22  1  0  0  0
M  END
> <minimizedAffinity>
-8.67340

> <CNNscore>
0.2143341005

> <CNNaffinity>
6.4583740234

> <CNN_VS>
1.3842498064

> <CNNaffinity_variance>
0.1421722472

$$$$
[H]c1oc2c(c1C([H])([H])C(=O)N([H])c1nc(-c3c([H])c(F)c(OC([H])([H])C([H])(C([H])([H])[H])C([H])([H])[H])c(F)c3[H])c([H])s1)c(=O)n(C([H])([H])[H])c(=O)n2C([H])([H])[H]


 36 39  0  0  0  0  0  0  0  0999 V2000
  152.9758  138.4742  183.2892 C   0  0  0  0  0  0  0  0  0  0  0  0
  152.2134  138.3372  182.1553 C   0  0  0  0  0  0  0  0  0  0  0  0
  151.1533  137.0735  182.5956 S   0  0  0  0  0  0  0  0  0  0  0  0
  151.7398  136.7962  184.1896 C   0  0  0  0  0  0  0  0  0  0  0  0
  152.7061  137.6833  184.2842 N   0  0  0  0  0  0  0  0  0  0  0  0
  156.0796  141.3992  183.4837 C   0  0  0  0  0  0  0  0  0  0  0  0
  154.9269  141.6530  182.8051 C   0  0  0  0  0  0  0  0  0  0  0  0
  154.7477  142.8376  182.1354 F   0  0  0  0  0  0  0  0  0  0  0  0
  153.9297  140.6883  182.7560 C   0  0  0  0  0  0  0  0  0  0  0  0
  154.0654  139.4797  183.3694 C   0  0  0  0  0  0  0  0  0  0  0  0
  155.2359  139.2466  184.0453 C   0  0  0  0  0  0  0  0  0  0  0  0
  156.2480  140.1547  184.1282 C   0  0  0  0  0  0  0  0  0  0  0  0
  157.4099  139.9113  184.8033 F   0  0  0  0  0  0  0  0  0  0  0  0
  157.1568  142.2771  183.6215 O   0  0  0  0  0  0  0  0  0  0  0  0
  158.1922  142.2757  182.7182 C   0  0  0  0  0  0  0  0  0  0  0  0
  158.6446  143.1127  180.4916 C   0  0  0  0  0  0  0  0  0  0  0  0
  158.6023  143.4958  182.0047 C   0  0  0  0  0  0  0  0  0  0  0  0
  157.5939  144.6430  182.1086 C   0  0  0  0  0  0  0  0  0  0  0  0
  151.2688  135.8288  185.1486 N   0  0  0  0  0  0  0  0  0  0  0  0
  150.2810  136.2049  186.0858 C   0  0  0  0  0  0  0  0  0  0  0  0
  149.8196  137.3641  186.0870 O   0  0  0  0  0  0  0  0  0  0  0  0
  151.6819  134.8751  185.1108 H   0  0  0  0  0  0  0  0  0  0  0  0
  149.7967  135.2014  187.0679 C   0  0  0  0  0  0  0  0  0  0  0  0
  150.4089  135.4949  188.3792 C   0  0  0  0  0  0  0  0  0  0  0  0
  151.5540  136.2054  188.6267 C   0  0  0  0  0  0  0  0  0  0  0  0
  151.7545  136.2404  189.9334 O   0  0  0  0  0  0  0  0  0  0  0  0
  150.8078  135.5940  190.5684 C   0  0  0  0  0  0  0  0  0  0  0  0
  150.5257  135.3239  191.8692 N   0  0  0  0  0  0  0  0  0  0  0  0
  151.4205  135.8214  192.9064 C   0  0  0  0  0  0  0  0  0  0  0  0
  149.4325  134.6081  192.1872 C   0  0  0  0  0  0  0  0  0  0  0  0
  149.1833  134.3655  193.3943 O   0  0  0  0  0  0  0  0  0  0  0  0
  148.5860  134.1363  191.2521 N   0  0  0  0  0  0  0  0  0  0  0  0
  147.4371  133.3860  191.6427 C   0  0  0  0  0  0  0  0  0  0  0  0
  148.8231  134.3775  189.9537 C   0  0  0  0  0  0  0  0  0  0  0  0
  148.0272  133.9312  189.1026 O   0  0  0  0  0  0  0  0  0  0  0  0
  149.9309  135.1040  189.6113 C   0  0  0  0  0  0  0  0  0  0  0  0
 16 17  1  0  0  0
 17 18  1  0  0  0
 17 15  1  0  0  0
 15 14  1  0  0  0
 14  6  1  0  0  0
  6  7  2  0  0  0
  7  8  1  0  0  0
  7  9  1  0  0  0
  9 10  2  0  0  0
 10 11  1  0  0  0
 11 12  2  0  0  0
 12 13  1  0  0  0
 10  1  1  0  0  0
  1  2  2  0  0  0
  2  3  1  0  0  0
  3  4  1  0  0  0
  4 19  1  0  0  0
 19 20  1  0  0  0
 20 21  2  0  0  0
 20 23  1  0  0  0
 23 24  1  0  0  0
 24 25  2  0  0  0
 25 26  1  0  0  0
 26 27  1  0  0  0
 27 28  1  0  0  0
 28 29  1  0  0  0
 28 30  1  0  0  0
 30 31  2  0  0  0
 30 32  1  0  0  0
 32 33  1  0  0  0
 32 34  1  0  0  0
 34 35  2  0  0  0
 34 36  1  0  0  0
  4  5  2  0  0  0
 12  6  1  0  0  0
  5  1  1  0  0  0
 36 24  1  0  0  0
 36 27  2  0  0  0
 19 22  1  0  0  0
M  END
> <minimizedAffinity>
-6.81883

> <CNNscore>
0.1976584196

> <CNNaffinity>
5.8933820724

> <CNN_VS>
1.1648765802

> <CNNaffinity_variance>
0.1939877421

$$$$
[H]c1oc2c(c1C([H])([H])C(=O)N([H])c1nc(-c3c([H])c(F)c(OC([H])([H])C([H])(C([H])([H])[H])C([H])([H])[H])c(F)c3[H])c([H])s1)c(=O)n(C([H])([H])[H])c(=O)n2C([H])([H])[H]


 36 39  0  0  0  0  0  0  0  0999 V2000
  155.1412  139.3700  183.9272 C   0  0  0  0  0  0  0  0  0  0  0  0
  154.0530  139.5113  183.1015 C   0  0  0  0  0  0  0  0  0  0  0  0
  153.0012  138.3058  183.6975 S   0  0  0  0  0  0  0  0  0  0  0  0
  154.0036  137.6968  184.9569 C   0  0  0  0  0  0  0  0  0  0  0  0
  155.0756  138.4501  184.8425 N   0  0  0  0  0  0  0  0  0  0  0  0
  158.5622  141.8821  183.4659 C   0  0  0  0  0  0  0  0  0  0  0  0
  157.3109  142.3604  183.2226 C   0  0  0  0  0  0  0  0  0  0  0  0
  157.1190  143.6477  182.7871 F   0  0  0  0  0  0  0  0  0  0  0  0
  156.2120  141.5266  183.3804 C   0  0  0  0  0  0  0  0  0  0  0  0
  156.3424  140.2292  183.7739 C   0  0  0  0  0  0  0  0  0  0  0  0
  157.6128  139.7698  184.0115 C   0  0  0  0  0  0  0  0  0  0  0  0
  158.7274  140.5410  183.8741 C   0  0  0  0  0  0  0  0  0  0  0  0
  159.9879  140.0727  184.1124 F   0  0  0  0  0  0  0  0  0  0  0  0
  159.7500  142.6082  183.3560 O   0  0  0  0  0  0  0  0  0  0  0  0
  160.0877  143.5599  184.2878 C   0  0  0  0  0  0  0  0  0  0  0  0
  160.3994  142.6659  186.5163 C   0  0  0  0  0  0  0  0  0  0  0  0
  161.1283  143.3206  185.3006 C   0  0  0  0  0  0  0  0  0  0  0  0
  162.1929  142.3090  184.8683 C   0  0  0  0  0  0  0  0  0  0  0  0
  153.7109  136.6309  185.8819 N   0  0  0  0  0  0  0  0  0  0  0  0
  152.6418  136.7773  186.7936 C   0  0  0  0  0  0  0  0  0  0  0  0
  151.9561  137.8196  186.8016 O   0  0  0  0  0  0  0  0  0  0  0  0
  154.3087  135.7810  185.8396 H   0  0  0  0  0  0  0  0  0  0  0  0
  152.3427  135.6728  187.7405 C   0  0  0  0  0  0  0  0  0  0  0  0
  152.4559  136.1923  189.1181 C   0  0  0  0  0  0  0  0  0  0  0  0
  153.4234  137.0219  189.6216 C   0  0  0  0  0  0  0  0  0  0  0  0
  153.1598  137.2517  190.8970 O   0  0  0  0  0  0  0  0  0  0  0  0
  152.0724  136.6225  191.2698 C   0  0  0  0  0  0  0  0  0  0  0  0
  151.3674  136.5107  192.4252 N   0  0  0  0  0  0  0  0  0  0  0  0
  151.8341  137.2174  193.6112 C   0  0  0  0  0  0  0  0  0  0  0  0
  150.2539  135.7575  192.4652 C   0  0  0  0  0  0  0  0  0  0  0  0
  149.6113  135.6627  193.5403 O   0  0  0  0  0  0  0  0  0  0  0  0
  149.7965  135.0942  191.3861 N   0  0  0  0  0  0  0  0  0  0  0  0
  148.6068  134.3124  191.4802 C   0  0  0  0  0  0  0  0  0  0  0  0
  150.4593  135.1741  190.2222 C   0  0  0  0  0  0  0  0  0  0  0  0
  150.0197  134.5516  189.2342 O   0  0  0  0  0  0  0  0  0  0  0  0
  151.5946  135.9357  190.1629 C   0  0  0  0  0  0  0  0  0  0  0  0
 16 17  1  0  0  0
 17 18  1  0  0  0
 17 15  1  0  0  0
 15 14  1  0  0  0
 14  6  1  0  0  0
  6  7  2  0  0  0
  7  8  1  0  0  0
  7  9  1  0  0  0
  9 10  2  0  0  0
 10 11  1  0  0  0
 11 12  2  0  0  0
 12 13  1  0  0  0
 10  1  1  0  0  0
  1  2  2  0  0  0
  2  3  1  0  0  0
  3  4  1  0  0  0
  4 19  1  0  0  0
 19 20  1  0  0  0
 20 21  2  0  0  0
 20 23  1  0  0  0
 23 24  1  0  0  0
 24 25  2  0  0  0
 25 26  1  0  0  0
 26 27  1  0  0  0
 27 28  1  0  0  0
 28 29  1  0  0  0
 28 30  1  0  0  0
 30 31  2  0  0  0
 30 32  1  0  0  0
 32 33  1  0  0  0
 32 34  1  0  0  0
 34 35  2  0  0  0
 34 36  1  0  0  0
  4  5  2  0  0  0
 12  6  1  0  0  0
  5  1  1  0  0  0
 36 24  1  0  0  0
 36 27  2  0  0  0
 19 22  1  0  0  0
M  END
> <minimizedAffinity>
-8.33182

> <CNNscore>
0.1945894063

> <CNNaffinity>
6.0900497437

> <CNN_VS>
1.1850591898

> <CNNaffinity_variance>
0.1098047718

$$$$
[H]c1oc2c(c1C([H])([H])C(=O)N([H])c1nc(-c3c([H])c(F)c(OC([H])([H])C([H])(C([H])([H])[H])C([H])([H])[H])c(F)c3[H])c([H])s1)c(=O)n(C([H])([H])[H])c(=O)n2C([H])([H])[H]


 36 39  0  0  0  0  0  0  0  0999 V2000
  154.9640  138.2883  185.3983 C   0  0  0  0  0  0  0  0  0  0  0  0
  154.2813  137.2144  184.8821 C   0  0  0  0  0  0  0  0  0  0  0  0
  154.0643  136.2383  186.2659 S   0  0  0  0  0  0  0  0  0  0  0  0
  154.8508  137.2504  187.4143 C   0  0  0  0  0  0  0  0  0  0  0  0
  155.2290  138.2667  186.6701 N   0  0  0  0  0  0  0  0  0  0  0  0
  156.2231  141.5517  182.9506 C   0  0  0  0  0  0  0  0  0  0  0  0
  157.0345  141.0629  183.9285 C   0  0  0  0  0  0  0  0  0  0  0  0
  158.2597  141.6289  184.1782 F   0  0  0  0  0  0  0  0  0  0  0  0
  156.6059  139.9999  184.7119 C   0  0  0  0  0  0  0  0  0  0  0  0
  155.3854  139.4213  184.5361 C   0  0  0  0  0  0  0  0  0  0  0  0
  154.5853  139.9319  183.5460 C   0  0  0  0  0  0  0  0  0  0  0  0
  154.9524  140.9721  182.7465 C   0  0  0  0  0  0  0  0  0  0  0  0
  154.1469  141.4732  181.7641 F   0  0  0  0  0  0  0  0  0  0  0  0
  156.5280  142.6060  182.0870 O   0  0  0  0  0  0  0  0  0  0  0  0
  157.4967  142.4737  181.1215 C   0  0  0  0  0  0  0  0  0  0  0  0
  159.3311  143.3180  179.7855 C   0  0  0  0  0  0  0  0  0  0  0  0
  158.8106  143.1252  181.2448 C   0  0  0  0  0  0  0  0  0  0  0  0
  158.7509  144.5314  181.8472 C   0  0  0  0  0  0  0  0  0  0  0  0
  155.0313  137.0127  188.8243 N   0  0  0  0  0  0  0  0  0  0  0  0
  156.2020  136.3625  189.2741 C   0  0  0  0  0  0  0  0  0  0  0  0
  157.0731  135.9945  188.4602 O   0  0  0  0  0  0  0  0  0  0  0  0
  154.2793  137.3361  189.4658 H   0  0  0  0  0  0  0  0  0  0  0  0
  156.3838  136.1253  190.7290 C   0  0  0  0  0  0  0  0  0  0  0  0
  155.5027  135.0128  191.1367 C   0  0  0  0  0  0  0  0  0  0  0  0
  155.7614  133.6695  191.0574 C   0  0  0  0  0  0  0  0  0  0  0  0
  154.7160  133.0103  191.5281 O   0  0  0  0  0  0  0  0  0  0  0  0
  153.7776  133.8386  191.9159 C   0  0  0  0  0  0  0  0  0  0  0  0
  152.5390  133.7117  192.4586 N   0  0  0  0  0  0  0  0  0  0  0  0
  152.0139  132.3779  192.7217 C   0  0  0  0  0  0  0  0  0  0  0  0
  151.8145  134.8071  192.7480 C   0  0  0  0  0  0  0  0  0  0  0  0
  150.6705  134.6755  193.2498 O   0  0  0  0  0  0  0  0  0  0  0  0
  152.2727  136.0525  192.5184 N   0  0  0  0  0  0  0  0  0  0  0  0
  151.4660  137.1820  192.8483 C   0  0  0  0  0  0  0  0  0  0  0  0
  153.4906  136.2282  191.9833 C   0  0  0  0  0  0  0  0  0  0  0  0
  153.8968  137.3900  191.7777 O   0  0  0  0  0  0  0  0  0  0  0  0
  154.2420  135.1250  191.6822 C   0  0  0  0  0  0  0  0  0  0  0  0
 16 17  1  0  0  0
 17 18  1  0  0  0
 17 15  1  0  0  0
 15 14  1  0  0  0
 14  6  1  0  0  0
  6  7  2  0  0  0
  7  8  1  0  0  0
  7  9  1  0  0  0
  9 10  2  0  0  0
 10 11  1  0  0  0
 11 12  2  0  0  0
 12 13  1  0  0  0
 10  1  1  0  0  0
  1  2  2  0  0  0
  2  3  1  0  0  0
  3  4  1  0  0  0
  4 19  1  0  0  0
 19 20  1  0  0  0
 20 21  2  0  0  0
 20 23  1  0  0  0
 23 24  1  0  0  0
 24 25  2  0  0  0
 25 26  1  0  0  0
 26 27  1  0  0  0
 27 28  1  0  0  0
 28 29  1  0  0  0
 28 30  1  0  0  0
 30 31  2  0  0  0
 30 32  1  0  0  0
 32 33  1  0  0  0
 32 34  1  0  0  0
 34 35  2  0  0  0
 34 36  1  0  0  0
  4  5  2  0  0  0
 12  6  1  0  0  0
  5  1  1  0  0  0
 36 24  1  0  0  0
 36 27  2  0  0  0
 19 22  1  0  0  0
M  END
> <minimizedAffinity>
-7.85840

> <CNNscore>
0.1905293763

> <CNNaffinity>
6.0785379410

> <CNN_VS>
1.1581400633

> <CNNaffinity_variance>
0.1222874969

$$$$
[H]c1sc(N([H])C(=O)C([H])([H])c2c([H])c([H])c([H])c3c2c(=O)n(C([H])([H])[H])c(=O)n3C([H])([H])[H])nc1-c1c([H])c([H])c(OC([H])([H])C([H])(C([H])([H])[H])C([H])([H])[H])c([H])c1[H]


 35 38  0  0  0  0  0  0  0  0999 V2000
  152.9914  140.3141  180.5834 N   0  0  0  0  0  0  0  0  0  0  0  0
  151.7333  139.7080  180.4780 C   0  0  0  0  0  0  0  0  0  0  0  0
  151.2676  139.5354  179.2882 O   0  0  0  0  0  0  0  0  0  0  0  0
  153.5462  140.6167  179.7298 H   0  0  0  0  0  0  0  0  0  0  0  0
  154.2903  140.1123  183.9580 C   0  0  0  0  0  0  0  0  0  0  0  0
  154.7364  141.4162  184.0251 C   0  0  0  0  0  0  0  0  0  0  0  0
  154.3027  142.0038  182.4866 S   0  0  0  0  0  0  0  0  0  0  0  0
  153.5919  140.5885  181.8539 C   0  0  0  0  0  0  0  0  0  0  0  0
  153.7254  139.7355  182.8612 N   0  0  0  0  0  0  0  0  0  0  0  0
  154.7971  137.4358  187.2898 C   0  0  0  0  0  0  0  0  0  0  0  0
  153.5239  137.7671  186.8063 C   0  0  0  0  0  0  0  0  0  0  0  0
  153.3839  138.6277  185.7343 C   0  0  0  0  0  0  0  0  0  0  0  0
  154.4609  139.1861  185.1069 C   0  0  0  0  0  0  0  0  0  0  0  0
  155.7085  138.8706  185.5699 C   0  0  0  0  0  0  0  0  0  0  0  0
  155.8733  138.0029  186.6523 C   0  0  0  0  0  0  0  0  0  0  0  0
  154.8681  136.5763  188.3605 O   0  0  0  0  0  0  0  0  0  0  0  0
  154.7474  136.8315  189.6978 C   0  0  0  0  0  0  0  0  0  0  0  0
  156.4760  136.9515  191.5014 C   0  0  0  0  0  0  0  0  0  0  0  0
  155.7794  137.6779  190.3559 C   0  0  0  0  0  0  0  0  0  0  0  0
  155.0280  138.8472  191.0124 C   0  0  0  0  0  0  0  0  0  0  0  0
  150.8809  139.2440  181.5930 C   0  0  0  0  0  0  0  0  0  0  0  0
  149.7835  138.4156  181.0301 C   0  0  0  0  0  0  0  0  0  0  0  0
  148.6670  139.0981  180.5077 C   0  0  0  0  0  0  0  0  0  0  0  0
  147.6685  138.3761  179.9359 C   0  0  0  0  0  0  0  0  0  0  0  0
  147.7276  137.0089  179.8594 C   0  0  0  0  0  0  0  0  0  0  0  0
  148.8156  136.3433  180.3699 C   0  0  0  0  0  0  0  0  0  0  0  0
  148.8616  134.9968  180.3021 N   0  0  0  0  0  0  0  0  0  0  0  0
  147.7481  134.3074  179.6701 C   0  0  0  0  0  0  0  0  0  0  0  0
  149.9147  134.3341  180.8099 C   0  0  0  0  0  0  0  0  0  0  0  0
  149.8891  133.0734  180.7100 O   0  0  0  0  0  0  0  0  0  0  0  0
  150.9318  134.9885  181.3889 N   0  0  0  0  0  0  0  0  0  0  0  0
  152.0487  134.2291  181.9238 C   0  0  0  0  0  0  0  0  0  0  0  0
  150.9441  136.3412  181.4872 C   0  0  0  0  0  0  0  0  0  0  0  0
  151.9026  136.9153  182.0339 O   0  0  0  0  0  0  0  0  0  0  0  0
  149.8856  137.0455  180.9776 C   0  0  0  0  0  0  0  0  0  0  0  0
 18 19  1  0  0  0
 19 20  1  0  0  0
 19 17  1  0  0  0
 17 16  1  0  0  0
 16 10  1  0  0  0
 10 11  2  0  0  0
 11 12  1  0  0  0
 12 13  2  0  0  0
 13 14  1  0  0  0
 14 15  2  0  0  0
 13  5  1  0  0  0
  5  6  2  0  0  0
  6  7  1  0  0  0
  7  8  1  0  0  0
  8  1  1  0  0  0
  1  2  1  0  0  0
  2  3  2  0  0  0
  2 21  1  0  0  0
 21 22  1  0  0  0
 22 23  2  0  0  0
 23 24  1  0  0  0
 24 25  2  0  0  0
 25 26  1  0  0  0
 26 27  1  0  0  0
 27 28  1  0  0  0
 27 29  1  0  0  0
 29 30  2  0  0  0
 29 31  1  0  0  0
 31 32  1  0  0  0
 31 33  1  0  0  0
 33 34  2  0  0  0
 33 35  1  0  0  0
  8  9  2  0  0  0
 15 10  1  0  0  0
  9  5  1  0  0  0
 35 22  1  0  0  0
 35 26  2  0  0  0
  1  4  1  0  0  0
M  END
> <minimizedAffinity>
-6.96860

> <CNNscore>
0.5772493482

> <CNNaffinity>
6.0514998436

> <CNN_VS>
3.4932243824

> <CNNaffinity_variance>
0.3366157711

$$$$
[H]c1sc(N([H])C(=O)C([H])([H])c2c([H])c([H])c([H])c3c2c(=O)n(C([H])([H])[H])c(=O)n3C([H])([H])[H])nc1-c1c([H])c([H])c(OC([H])([H])C([H])(C([H])([H])[H])C([H])([H])[H])c([H])c1[H]


 35 38  0  0  0  0  0  0  0  0999 V2000
  153.4128  137.3904  184.6176 N   0  0  0  0  0  0  0  0  0  0  0  0
  154.1025  136.7227  185.6373 C   0  0  0  0  0  0  0  0  0  0  0  0
  153.5096  135.7131  186.1773 O   0  0  0  0  0  0  0  0  0  0  0  0
  152.4488  137.0848  184.2934 H   0  0  0  0  0  0  0  0  0  0  0  0
  155.5409  140.0988  183.4985 C   0  0  0  0  0  0  0  0  0  0  0  0
  154.6266  140.6587  182.6301 C   0  0  0  0  0  0  0  0  0  0  0  0
  153.2937  139.6158  182.8204 S   0  0  0  0  0  0  0  0  0  0  0  0
  153.9574  138.5458  183.9706 C   0  0  0  0  0  0  0  0  0  0  0  0
  155.1726  139.0474  184.1490 N   0  0  0  0  0  0  0  0  0  0  0  0
  159.4659  141.7937  183.9913 C   0  0  0  0  0  0  0  0  0  0  0  0
  158.4388  142.5031  183.3539 C   0  0  0  0  0  0  0  0  0  0  0  0
  157.1853  141.9405  183.2074 C   0  0  0  0  0  0  0  0  0  0  0  0
  156.8937  140.6884  183.6686 C   0  0  0  0  0  0  0  0  0  0  0  0
  157.8879  139.9862  184.2922 C   0  0  0  0  0  0  0  0  0  0  0  0
  159.1625  140.5355  184.4511 C   0  0  0  0  0  0  0  0  0  0  0  0
  160.6906  142.4083  184.1028 O   0  0  0  0  0  0  0  0  0  0  0  0
  161.7006  142.1922  184.9979 C   0  0  0  0  0  0  0  0  0  0  0  0
  162.9194  142.6654  187.1300 C   0  0  0  0  0  0  0  0  0  0  0  0
  161.8192  143.1026  186.1691 C   0  0  0  0  0  0  0  0  0  0  0  0
  160.5088  142.9650  186.9608 C   0  0  0  0  0  0  0  0  0  0  0  0
  155.4440  137.0564  186.1608 C   0  0  0  0  0  0  0  0  0  0  0  0
  155.3313  137.2886  187.6239 C   0  0  0  0  0  0  0  0  0  0  0  0
  154.5320  138.3707  188.0426 C   0  0  0  0  0  0  0  0  0  0  0  0
  154.3619  138.5810  189.3738 C   0  0  0  0  0  0  0  0  0  0  0  0
  154.9488  137.7669  190.3074 C   0  0  0  0  0  0  0  0  0  0  0  0
  155.7292  136.7126  189.8992 C   0  0  0  0  0  0  0  0  0  0  0  0
  156.3137  135.9227  190.8235 N   0  0  0  0  0  0  0  0  0  0  0  0
  156.0737  136.2219  192.2262 C   0  0  0  0  0  0  0  0  0  0  0  0
  157.0899  134.8963  190.4362 C   0  0  0  0  0  0  0  0  0  0  0  0
  157.6042  134.1992  191.3578 O   0  0  0  0  0  0  0  0  0  0  0  0
  157.2989  134.6370  189.1373 N   0  0  0  0  0  0  0  0  0  0  0  0
  158.1459  133.5164  188.7668 C   0  0  0  0  0  0  0  0  0  0  0  0
  156.7389  135.3941  188.1612 C   0  0  0  0  0  0  0  0  0  0  0  0
  156.9571  135.1269  186.9662 O   0  0  0  0  0  0  0  0  0  0  0  0
  155.9412  136.4468  188.5238 C   0  0  0  0  0  0  0  0  0  0  0  0
 18 19  1  0  0  0
 19 20  1  0  0  0
 19 17  1  0  0  0
 17 16  1  0  0  0
 16 10  1  0  0  0
 10 11  2  0  0  0
 11 12  1  0  0  0
 12 13  2  0  0  0
 13 14  1  0  0  0
 14 15  2  0  0  0
 13  5  1  0  0  0
  5  6  2  0  0  0
  6  7  1  0  0  0
  7  8  1  0  0  0
  8  1  1  0  0  0
  1  2  1  0  0  0
  2  3  2  0  0  0
  2 21  1  0  0  0
 21 22  1  0  0  0
 22 23  2  0  0  0
 23 24  1  0  0  0
 24 25  2  0  0  0
 25 26  1  0  0  0
 26 27  1  0  0  0
 27 28  1  0  0  0
 27 29  1  0  0  0
 29 30  2  0  0  0
 29 31  1  0  0  0
 31 32  1  0  0  0
 31 33  1  0  0  0
 33 34  2  0  0  0
 33 35  1  0  0  0
  8  9  2  0  0  0
 15 10  1  0  0  0
  9  5  1  0  0  0
 35 22  1  0  0  0
 35 26  2  0  0  0
  1  4  1  0  0  0
M  END
> <minimizedAffinity>
-8.57910

> <CNNscore>
0.4905342162

> <CNNaffinity>
6.7648363113

> <CNN_VS>
3.3183836937

> <CNNaffinity_variance>
0.0694445968

$$$$
[H]c1sc(N([H])C(=O)C([H])([H])c2c([H])c([H])c([H])c3c2c(=O)n(C([H])([H])[H])c(=O)n3C([H])([H])[H])nc1-c1c([H])c([H])c(OC([H])([H])C([H])(C([H])([H])[H])C([H])([H])[H])c([H])c1[H]


 35 38  0  0  0  0  0  0  0  0999 V2000
  151.7911  136.1986  182.5545 N   0  0  0  0  0  0  0  0  0  0  0  0
  152.1306  134.8461  182.4244 C   0  0  0  0  0  0  0  0  0  0  0  0
  151.4085  134.1386  181.6242 O   0  0  0  0  0  0  0  0  0  0  0  0
  150.9821  136.6320  182.0201 H   0  0  0  0  0  0  0  0  0  0  0  0
  153.8587  138.8007  183.9931 C   0  0  0  0  0  0  0  0  0  0  0  0
  153.6360  138.4577  185.3109 C   0  0  0  0  0  0  0  0  0  0  0  0
  152.5939  137.1212  185.1431 S   0  0  0  0  0  0  0  0  0  0  0  0
  152.4995  137.0717  183.4410 C   0  0  0  0  0  0  0  0  0  0  0  0
  153.2763  138.0880  183.0892 N   0  0  0  0  0  0  0  0  0  0  0  0
  156.4045  142.1164  182.9703 C   0  0  0  0  0  0  0  0  0  0  0  0
  155.0931  142.0254  182.4840 C   0  0  0  0  0  0  0  0  0  0  0  0
  154.2922  140.9526  182.8259 C   0  0  0  0  0  0  0  0  0  0  0  0
  154.7334  139.9482  183.6395 C   0  0  0  0  0  0  0  0  0  0  0  0
  156.0115  140.0258  184.1201 C   0  0  0  0  0  0  0  0  0  0  0  0
  156.8386  141.1012  183.7872 C   0  0  0  0  0  0  0  0  0  0  0  0
  157.1504  143.2073  182.5909 O   0  0  0  0  0  0  0  0  0  0  0  0
  157.5736  143.5896  181.3489 C   0  0  0  0  0  0  0  0  0  0  0  0
  159.5446  143.7114  179.8140 C   0  0  0  0  0  0  0  0  0  0  0  0
  158.6824  142.8295  180.7106 C   0  0  0  0  0  0  0  0  0  0  0  0
  158.0236  141.8104  179.7670 C   0  0  0  0  0  0  0  0  0  0  0  0
  153.2345  134.1431  183.1116 C   0  0  0  0  0  0  0  0  0  0  0  0
  154.2895  133.8372  182.1112 C   0  0  0  0  0  0  0  0  0  0  0  0
  154.1075  134.3462  180.8101 C   0  0  0  0  0  0  0  0  0  0  0  0
  155.0773  134.1325  179.8832 C   0  0  0  0  0  0  0  0  0  0  0  0
  156.2182  133.4370  180.1888 C   0  0  0  0  0  0  0  0  0  0  0  0
  156.3951  132.9396  181.4570 C   0  0  0  0  0  0  0  0  0  0  0  0
  157.5148  132.2455  181.7475 N   0  0  0  0  0  0  0  0  0  0  0  0
  158.4999  132.0681  180.6927 C   0  0  0  0  0  0  0  0  0  0  0  0
  157.6927  131.7429  182.9811 C   0  0  0  0  0  0  0  0  0  0  0  0
  158.7662  131.1042  183.1802 O   0  0  0  0  0  0  0  0  0  0  0  0
  156.7721  131.9176  183.9401 N   0  0  0  0  0  0  0  0  0  0  0  0
  157.0084  131.3555  185.2587 C   0  0  0  0  0  0  0  0  0  0  0  0
  155.6264  132.6061  183.7102 C   0  0  0  0  0  0  0  0  0  0  0  0
  154.7923  132.7459  184.6223 O   0  0  0  0  0  0  0  0  0  0  0  0
  155.4162  133.1322  182.4631 C   0  0  0  0  0  0  0  0  0  0  0  0
 18 19  1  0  0  0
 19 20  1  0  0  0
 19 17  1  0  0  0
 17 16  1  0  0  0
 16 10  1  0  0  0
 10 11  2  0  0  0
 11 12  1  0  0  0
 12 13  2  0  0  0
 13 14  1  0  0  0
 14 15  2  0  0  0
 13  5  1  0  0  0
  5  6  2  0  0  0
  6  7  1  0  0  0
  7  8  1  0  0  0
  8  1  1  0  0  0
  1  2  1  0  0  0
  2  3  2  0  0  0
  2 21  1  0  0  0
 21 22  1  0  0  0
 22 23  2  0  0  0
 23 24  1  0  0  0
 24 25  2  0  0  0
 25 26  1  0  0  0
 26 27  1  0  0  0
 27 28  1  0  0  0
 27 29  1  0  0  0
 29 30  2  0  0  0
 29 31  1  0  0  0
 31 32  1  0  0  0
 31 33  1  0  0  0
 33 34  2  0  0  0
 33 35  1  0  0  0
  8  9  2  0  0  0
 15 10  1  0  0  0
  9  5  1  0  0  0
 35 22  1  0  0  0
 35 26  2  0  0  0
  1  4  1  0  0  0
M  END
> <minimizedAffinity>
-7.54157

> <CNNscore>
0.4603225291

> <CNNaffinity>
6.3274998665

> <CNN_VS>
2.9126906395

> <CNNaffinity_variance>
0.0953014269

$$$$
[H]c1sc(N([H])C(=O)C([H])([H])c2c([H])c([H])c([H])c3c2c(=O)n(C([H])([H])[H])c(=O)n3C([H])([H])[H])nc1-c1c([H])c([H])c(OC([H])([H])C([H])(C([H])([H])[H])C([H])([H])[H])c([H])c1[H]


 35 38  0  0  0  0  0  0  0  0999 V2000
  154.8683  137.4748  184.8693 N   0  0  0  0  0  0  0  0  0  0  0  0
  154.4534  137.2702  186.1912 C   0  0  0  0  0  0  0  0  0  0  0  0
  155.0160  136.3056  186.8357 O   0  0  0  0  0  0  0  0  0  0  0  0
  155.6138  136.8728  184.4115 H   0  0  0  0  0  0  0  0  0  0  0  0
  152.9045  139.3281  182.4558 C   0  0  0  0  0  0  0  0  0  0  0  0
  153.4573  140.5624  182.7291 C   0  0  0  0  0  0  0  0  0  0  0  0
  154.5773  140.1707  183.9507 S   0  0  0  0  0  0  0  0  0  0  0  0
  154.2883  138.4927  184.0462 C   0  0  0  0  0  0  0  0  0  0  0  0
  153.3431  138.3204  183.1313 N   0  0  0  0  0  0  0  0  0  0  0  0
  149.8460  138.8907  179.4600 C   0  0  0  0  0  0  0  0  0  0  0  0
  149.7550  138.2385  180.6973 C   0  0  0  0  0  0  0  0  0  0  0  0
  150.7479  138.3937  181.6456 C   0  0  0  0  0  0  0  0  0  0  0  0
  151.8454  139.1763  181.4253 C   0  0  0  0  0  0  0  0  0  0  0  0
  151.9455  139.8177  180.2216 C   0  0  0  0  0  0  0  0  0  0  0  0
  150.9536  139.6748  179.2484 C   0  0  0  0  0  0  0  0  0  0  0  0
  148.8265  138.6929  178.5590 O   0  0  0  0  0  0  0  0  0  0  0  0
  147.5401  138.2816  178.7686 C   0  0  0  0  0  0  0  0  0  0  0  0
  146.9787  136.1095  177.6632 C   0  0  0  0  0  0  0  0  0  0  0  0
  146.8124  137.6251  177.6488 C   0  0  0  0  0  0  0  0  0  0  0  0
  147.4922  138.0968  176.3533 C   0  0  0  0  0  0  0  0  0  0  0  0
  153.4338  138.0478  186.9267 C   0  0  0  0  0  0  0  0  0  0  0  0
  153.6732  137.8744  188.3828 C   0  0  0  0  0  0  0  0  0  0  0  0
  154.7445  138.5944  188.9476 C   0  0  0  0  0  0  0  0  0  0  0  0
  154.9601  138.5027  190.2857 C   0  0  0  0  0  0  0  0  0  0  0  0
  154.1616  137.7293  191.0877 C   0  0  0  0  0  0  0  0  0  0  0  0
  153.1178  137.0263  190.5367 C   0  0  0  0  0  0  0  0  0  0  0  0
  152.3435  136.2576  191.3300 N   0  0  0  0  0  0  0  0  0  0  0  0
  152.6473  136.2220  192.7516 C   0  0  0  0  0  0  0  0  0  0  0  0
  151.3276  135.5550  190.8002 C   0  0  0  0  0  0  0  0  0  0  0  0
  150.6449  134.8573  191.6045 O   0  0  0  0  0  0  0  0  0  0  0  0
  151.0638  135.6014  189.4864 N   0  0  0  0  0  0  0  0  0  0  0  0
  149.9552  134.8245  188.9594 C   0  0  0  0  0  0  0  0  0  0  0  0
  151.8056  136.3557  188.6375 C   0  0  0  0  0  0  0  0  0  0  0  0
  151.5346  136.3724  187.4237 O   0  0  0  0  0  0  0  0  0  0  0  0
  152.8471  137.0846  189.1472 C   0  0  0  0  0  0  0  0  0  0  0  0
 18 19  1  0  0  0
 19 20  1  0  0  0
 19 17  1  0  0  0
 17 16  1  0  0  0
 16 10  1  0  0  0
 10 11  2  0  0  0
 11 12  1  0  0  0
 12 13  2  0  0  0
 13 14  1  0  0  0
 14 15  2  0  0  0
 13  5  1  0  0  0
  5  6  2  0  0  0
  6  7  1  0  0  0
  7  8  1  0  0  0
  8  1  1  0  0  0
  1  2  1  0  0  0
  2  3  2  0  0  0
  2 21  1  0  0  0
 21 22  1  0  0  0
 22 23  2  0  0  0
 23 24  1  0  0  0
 24 25  2  0  0  0
 25 26  1  0  0  0
 26 27  1  0  0  0
 27 28  1  0  0  0
 27 29  1  0  0  0
 29 30  2  0  0  0
 29 31  1  0  0  0
 31 32  1  0  0  0
 31 33  1  0  0  0
 33 34  2  0  0  0
 33 35  1  0  0  0
  8  9  2  0  0  0
 15 10  1  0  0  0
  9  5  1  0  0  0
 35 22  1  0  0  0
 35 26  2  0  0  0
  1  4  1  0  0  0
M  END
> <minimizedAffinity>
-7.77609

> <CNNscore>
0.4539260566

> <CNNaffinity>
5.8209166527

> <CNN_VS>
2.6422657967

> <CNNaffinity_variance>
0.0793910474

$$$$
[H]c1sc(N([H])C(=O)C([H])([H])c2c([H])c([H])c([H])c3c2c(=O)n(C([H])([H])[H])c(=O)n3C([H])([H])[H])nc1-c1c([H])c([H])c(OC([H])([H])C([H])(C([H])([H])[H])C([H])([H])[H])c([H])c1[H]


 35 38  0  0  0  0  0  0  0  0999 V2000
  152.7536  137.5822  187.3212 N   0  0  0  0  0  0  0  0  0  0  0  0
  153.5891  137.5641  188.4450 C   0  0  0  0  0  0  0  0  0  0  0  0
  153.0686  137.1552  189.5514 O   0  0  0  0  0  0  0  0  0  0  0  0
  151.7391  137.2712  187.3662 H   0  0  0  0  0  0  0  0  0  0  0  0
  154.5925  139.1476  184.6223 C   0  0  0  0  0  0  0  0  0  0  0  0
  153.7594  138.7234  183.6075 C   0  0  0  0  0  0  0  0  0  0  0  0
  152.5912  137.8377  184.4743 S   0  0  0  0  0  0  0  0  0  0  0  0
  153.2124  138.0504  186.0482 C   0  0  0  0  0  0  0  0  0  0  0  0
  154.2886  138.7933  185.8249 N   0  0  0  0  0  0  0  0  0  0  0  0
  158.0702  141.5367  183.7747 C   0  0  0  0  0  0  0  0  0  0  0  0
  156.7814  142.0868  183.7453 C   0  0  0  0  0  0  0  0  0  0  0  0
  155.6784  141.3019  184.0219 C   0  0  0  0  0  0  0  0  0  0  0  0
  155.7905  139.9764  184.3314 C   0  0  0  0  0  0  0  0  0  0  0  0
  157.0430  139.4281  184.3630 C   0  0  0  0  0  0  0  0  0  0  0  0
  158.1720  140.2030  184.0866 C   0  0  0  0  0  0  0  0  0  0  0  0
  159.1254  142.3701  183.4876 O   0  0  0  0  0  0  0  0  0  0  0  0
  159.9644  143.0430  184.3308 C   0  0  0  0  0  0  0  0  0  0  0  0
  160.4291  142.9161  186.7850 C   0  0  0  0  0  0  0  0  0  0  0  0
  160.6429  142.2822  185.4148 C   0  0  0  0  0  0  0  0  0  0  0  0
  162.1521  142.3946  185.1454 C   0  0  0  0  0  0  0  0  0  0  0  0
  155.0106  137.9667  188.4946 C   0  0  0  0  0  0  0  0  0  0  0  0
  155.6872  137.1669  189.5481 C   0  0  0  0  0  0  0  0  0  0  0  0
  155.6997  137.7016  190.8516 C   0  0  0  0  0  0  0  0  0  0  0  0
  156.2618  136.9736  191.8512 C   0  0  0  0  0  0  0  0  0  0  0  0
  156.8118  135.7403  191.6160 C   0  0  0  0  0  0  0  0  0  0  0  0
  156.8008  135.2195  190.3448 C   0  0  0  0  0  0  0  0  0  0  0  0
  157.3547  134.0105  190.1182 N   0  0  0  0  0  0  0  0  0  0  0  0
  157.9314  133.3019  191.2495 C   0  0  0  0  0  0  0  0  0  0  0  0
  157.3615  133.4967  188.8764 C   0  0  0  0  0  0  0  0  0  0  0  0
  157.8976  132.3592  188.7399 O   0  0  0  0  0  0  0  0  0  0  0  0
  156.8244  134.1662  187.8463 N   0  0  0  0  0  0  0  0  0  0  0  0
  156.8555  133.5705  186.5218 C   0  0  0  0  0  0  0  0  0  0  0  0
  156.2525  135.3851  188.0102 C   0  0  0  0  0  0  0  0  0  0  0  0
  155.7668  135.9796  187.0315 O   0  0  0  0  0  0  0  0  0  0  0  0
  156.2284  135.9352  189.2643 C   0  0  0  0  0  0  0  0  0  0  0  0
 18 19  1  0  0  0
 19 20  1  0  0  0
 19 17  1  0  0  0
 17 16  1  0  0  0
 16 10  1  0  0  0
 10 11  2  0  0  0
 11 12  1  0  0  0
 12 13  2  0  0  0
 13 14  1  0  0  0
 14 15  2  0  0  0
 13  5  1  0  0  0
  5  6  2  0  0  0
  6  7  1  0  0  0
  7  8  1  0  0  0
  8  1  1  0  0  0
  1  2  1  0  0  0
  2  3  2  0  0  0
  2 21  1  0  0  0
 21 22  1  0  0  0
 22 23  2  0  0  0
 23 24  1  0  0  0
 24 25  2  0  0  0
 25 26  1  0  0  0
 26 27  1  0  0  0
 27 28  1  0  0  0
 27 29  1  0  0  0
 29 30  2  0  0  0
 29 31  1  0  0  0
 31 32  1  0  0  0
 31 33  1  0  0  0
 33 34  2  0  0  0
 33 35  1  0  0  0
  8  9  2  0  0  0
 15 10  1  0  0  0
  9  5  1  0  0  0
 35 22  1  0  0  0
 35 26  2  0  0  0
  1  4  1  0  0  0
M  END
> <minimizedAffinity>
-8.00492

> <CNNscore>
0.4453790784

> <CNNaffinity>
6.5696015358

> <CNN_VS>
2.9259631634

> <CNNaffinity_variance>
0.1136280149

$$$$
[H]c1sc(N([H])C(=O)C([H])([H])c2c([H])c([H])c([H])c3c2c(=O)n(C([H])([H])[H])c(=O)n3C([H])([H])[H])nc1-c1c([H])c([H])c(OC([H])([H])C([H])(C([H])([H])[H])C([H])([H])[H])c([H])c1[H]


 35 38  0  0  0  0  0  0  0  0999 V2000
  153.8382  136.5947  184.6442 N   0  0  0  0  0  0  0  0  0  0  0  0
  153.2427  136.4230  185.9001 C   0  0  0  0  0  0  0  0  0  0  0  0
  153.0590  135.2101  186.2968 O   0  0  0  0  0  0  0  0  0  0  0  0
  154.1329  135.7715  184.0413 H   0  0  0  0  0  0  0  0  0  0  0  0
  155.2366  139.7776  183.6295 C   0  0  0  0  0  0  0  0  0  0  0  0
  154.1222  140.2200  182.9467 C   0  0  0  0  0  0  0  0  0  0  0  0
  153.0518  138.9125  183.1591 S   0  0  0  0  0  0  0  0  0  0  0  0
  154.0585  137.8946  184.0858 C   0  0  0  0  0  0  0  0  0  0  0  0
  155.1683  138.6149  184.1840 N   0  0  0  0  0  0  0  0  0  0  0  0
  158.7791  142.2089  183.8739 C   0  0  0  0  0  0  0  0  0  0  0  0
  158.6976  140.9697  184.5238 C   0  0  0  0  0  0  0  0  0  0  0  0
  157.5509  140.2045  184.4311 C   0  0  0  0  0  0  0  0  0  0  0  0
  156.4622  140.6127  183.7145 C   0  0  0  0  0  0  0  0  0  0  0  0
  156.5297  141.8203  183.0762 C   0  0  0  0  0  0  0  0  0  0  0  0
  157.6790  142.6105  183.1565 C   0  0  0  0  0  0  0  0  0  0  0  0
  159.9465  142.9228  184.0077 O   0  0  0  0  0  0  0  0  0  0  0  0
  160.5827  143.3576  185.1365 C   0  0  0  0  0  0  0  0  0  0  0  0
  162.2571  143.1153  186.9784 C   0  0  0  0  0  0  0  0  0  0  0  0
  161.5683  142.4540  185.7896 C   0  0  0  0  0  0  0  0  0  0  0  0
  162.6819  142.2084  184.7589 C   0  0  0  0  0  0  0  0  0  0  0  0
  152.8012  137.4916  186.8212 C   0  0  0  0  0  0  0  0  0  0  0  0
  152.5054  136.8787  188.1418 C   0  0  0  0  0  0  0  0  0  0  0  0
  151.2444  136.2701  188.2993 C   0  0  0  0  0  0  0  0  0  0  0  0
  150.9593  135.6522  189.4751 C   0  0  0  0  0  0  0  0  0  0  0  0
  151.8678  135.6114  190.5006 C   0  0  0  0  0  0  0  0  0  0  0  0
  153.0968  136.2059  190.3475 C   0  0  0  0  0  0  0  0  0  0  0  0
  153.9815  136.1724  191.3653 N   0  0  0  0  0  0  0  0  0  0  0  0
  153.5906  135.4864  192.5863 C   0  0  0  0  0  0  0  0  0  0  0  0
  155.1819  136.7620  191.2318 C   0  0  0  0  0  0  0  0  0  0  0  0
  155.9592  136.6898  192.2270 O   0  0  0  0  0  0  0  0  0  0  0  0
  155.5234  137.3897  190.0972 N   0  0  0  0  0  0  0  0  0  0  0  0
  156.8321  138.0126  189.9996 C   0  0  0  0  0  0  0  0  0  0  0  0
  154.6780  137.4572  189.0388 C   0  0  0  0  0  0  0  0  0  0  0  0
  155.0265  138.0508  188.0028 O   0  0  0  0  0  0  0  0  0  0  0  0
  153.4475  136.8646  189.1431 C   0  0  0  0  0  0  0  0  0  0  0  0
 18 19  1  0  0  0
 19 20  1  0  0  0
 19 17  1  0  0  0
 17 16  1  0  0  0
 16 10  1  0  0  0
 10 11  2  0  0  0
 11 12  1  0  0  0
 12 13  2  0  0  0
 13 14  1  0  0  0
 14 15  2  0  0  0
 13  5  1  0  0  0
  5  6  2  0  0  0
  6  7  1  0  0  0
  7  8  1  0  0  0
  8  1  1  0  0  0
  1  2  1  0  0  0
  2  3  2  0  0  0
  2 21  1  0  0  0
 21 22  1  0  0  0
 22 23  2  0  0  0
 23 24  1  0  0  0
 24 25  2  0  0  0
 25 26  1  0  0  0
 26 27  1  0  0  0
 27 28  1  0  0  0
 27 29  1  0  0  0
 29 30  2  0  0  0
 29 31  1  0  0  0
 31 32  1  0  0  0
 31 33  1  0  0  0
 33 34  2  0  0  0
 33 35  1  0  0  0
  8  9  2  0  0  0
 15 10  1  0  0  0
  9  5  1  0  0  0
 35 22  1  0  0  0
 35 26  2  0  0  0
  1  4  1  0  0  0
M  END
> <minimizedAffinity>
-8.11893

> <CNNscore>
0.4442231953

> <CNNaffinity>
6.4667916298

> <CNN_VS>
2.8726987839

> <CNNaffinity_variance>
0.0920616835

$$$$
[H]c1sc(N([H])C(=O)C([H])([H])c2c([H])c([H])c([H])c3c2c(=O)n(C([H])([H])[H])c(=O)n3C([H])([H])[H])nc1-c1c([H])c([H])c(OC([H])([H])C([H])(C([H])([H])[H])C([H])([H])[H])c([H])c1[H]


 35 38  0  0  0  0  0  0  0  0999 V2000
  153.6806  137.0085  184.2898 N   0  0  0  0  0  0  0  0  0  0  0  0
  153.2287  136.8110  185.6006 C   0  0  0  0  0  0  0  0  0  0  0  0
  152.8808  135.6120  185.9224 O   0  0  0  0  0  0  0  0  0  0  0  0
  153.7424  136.2141  183.5877 H   0  0  0  0  0  0  0  0  0  0  0  0
  155.4529  140.0617  183.4817 C   0  0  0  0  0  0  0  0  0  0  0  0
  154.4118  140.6651  182.8065 C   0  0  0  0  0  0  0  0  0  0  0  0
  153.1958  139.4787  182.9261 S   0  0  0  0  0  0  0  0  0  0  0  0
  154.0592  138.3034  183.8101 C   0  0  0  0  0  0  0  0  0  0  0  0
  155.2407  138.8858  183.9678 N   0  0  0  0  0  0  0  0  0  0  0  0
  159.2410  142.0557  183.9230 C   0  0  0  0  0  0  0  0  0  0  0  0
  158.9814  140.8325  184.5562 C   0  0  0  0  0  0  0  0  0  0  0  0
  157.7585  140.2087  184.4000 C   0  0  0  0  0  0  0  0  0  0  0  0
  156.7627  140.7455  183.6348 C   0  0  0  0  0  0  0  0  0  0  0  0
  157.0041  141.9390  183.0120 C   0  0  0  0  0  0  0  0  0  0  0  0
  158.2331  142.5873  183.1562 C   0  0  0  0  0  0  0  0  0  0  0  0
  160.4763  142.6259  184.1207 O   0  0  0  0  0  0  0  0  0  0  0  0
  161.4689  142.2837  184.9957 C   0  0  0  0  0  0  0  0  0  0  0  0
  162.8767  142.6721  187.0261 C   0  0  0  0  0  0  0  0  0  0  0  0
  161.6981  143.1491  186.1844 C   0  0  0  0  0  0  0  0  0  0  0  0
  160.4628  142.9865  187.0847 C   0  0  0  0  0  0  0  0  0  0  0  0
  153.1086  137.8380  186.6571 C   0  0  0  0  0  0  0  0  0  0  0  0
  154.2296  137.6574  187.6152 C   0  0  0  0  0  0  0  0  0  0  0  0
  155.5162  138.0263  187.1751 C   0  0  0  0  0  0  0  0  0  0  0  0
  156.5572  137.9259  188.0420 C   0  0  0  0  0  0  0  0  0  0  0  0
  156.3794  137.4761  189.3245 C   0  0  0  0  0  0  0  0  0  0  0  0
  155.1251  137.1152  189.7532 C   0  0  0  0  0  0  0  0  0  0  0  0
  154.9594  136.6618  191.0129 N   0  0  0  0  0  0  0  0  0  0  0  0
  156.1308  136.5902  191.8715 C   0  0  0  0  0  0  0  0  0  0  0  0
  153.7393  136.2934  191.4394 C   0  0  0  0  0  0  0  0  0  0  0  0
  153.6601  135.8790  192.6318 O   0  0  0  0  0  0  0  0  0  0  0  0
  152.6714  136.3670  190.6318 N   0  0  0  0  0  0  0  0  0  0  0  0
  151.3725  135.9573  191.1372 C   0  0  0  0  0  0  0  0  0  0  0  0
  152.7735  136.8146  189.3556 C   0  0  0  0  0  0  0  0  0  0  0  0
  151.7623  136.8664  188.6331 O   0  0  0  0  0  0  0  0  0  0  0  0
  154.0035  137.1992  188.8917 C   0  0  0  0  0  0  0  0  0  0  0  0
 18 19  1  0  0  0
 19 20  1  0  0  0
 19 17  1  0  0  0
 17 16  1  0  0  0
 16 10  1  0  0  0
 10 11  2  0  0  0
 11 12  1  0  0  0
 12 13  2  0  0  0
 13 14  1  0  0  0
 14 15  2  0  0  0
 13  5  1  0  0  0
  5  6  2  0  0  0
  6  7  1  0  0  0
  7  8  1  0  0  0
  8  1  1  0  0  0
  1  2  1  0  0  0
  2  3  2  0  0  0
  2 21  1  0  0  0
 21 22  1  0  0  0
 22 23  2  0  0  0
 23 24  1  0  0  0
 24 25  2  0  0  0
 25 26  1  0  0  0
 26 27  1  0  0  0
 27 28  1  0  0  0
 27 29  1  0  0  0
 29 30  2  0  0  0
 29 31  1  0  0  0
 31 32  1  0  0  0
 31 33  1  0  0  0
 33 34  2  0  0  0
 33 35  1  0  0  0
  8  9  2  0  0  0
 15 10  1  0  0  0
  9  5  1  0  0  0
 35 22  1  0  0  0
 35 26  2  0  0  0
  1  4  1  0  0  0
M  END
> <minimizedAffinity>
-8.63545

> <CNNscore>
0.4090203941

> <CNNaffinity>
6.5651793480

> <CNN_VS>
2.6852922440

> <CNNaffinity_variance>
0.1038722396

$$$$
[H]c1sc(N([H])C(=O)C([H])([H])c2c([H])c([H])c([H])c3c2c(=O)n(C([H])([H])[H])c(=O)n3C([H])([H])[H])nc1-c1c([H])c([H])c(OC([H])([H])C([H])(C([H])([H])[H])C([H])([H])[H])c([H])c1[H]


 35 38  0  0  0  0  0  0  0  0999 V2000
  152.7486  136.3874  185.1135 N   0  0  0  0  0  0  0  0  0  0  0  0
  153.6189  135.9220  186.1071 C   0  0  0  0  0  0  0  0  0  0  0  0
  153.2107  134.9286  186.8205 O   0  0  0  0  0  0  0  0  0  0  0  0
  151.7971  135.9469  184.9441 H   0  0  0  0  0  0  0  0  0  0  0  0
  154.3380  139.2558  183.5766 C   0  0  0  0  0  0  0  0  0  0  0  0
  153.3760  139.4595  182.6087 C   0  0  0  0  0  0  0  0  0  0  0  0
  152.2745  138.2076  182.9551 S   0  0  0  0  0  0  0  0  0  0  0  0
  153.0803  137.5069  184.2848 C   0  0  0  0  0  0  0  0  0  0  0  0
  154.1573  138.2740  184.3937 N   0  0  0  0  0  0  0  0  0  0  0  0
  157.7890  141.8148  183.8263 C   0  0  0  0  0  0  0  0  0  0  0  0
  157.6685  140.6711  184.6274 C   0  0  0  0  0  0  0  0  0  0  0  0
  156.5523  139.8624  184.5303 C   0  0  0  0  0  0  0  0  0  0  0  0
  155.5320  140.1352  183.6642 C   0  0  0  0  0  0  0  0  0  0  0  0
  155.6381  141.2487  182.8774 C   0  0  0  0  0  0  0  0  0  0  0  0
  156.7576  142.0804  182.9592 C   0  0  0  0  0  0  0  0  0  0  0  0
  158.9227  142.5787  183.9729 O   0  0  0  0  0  0  0  0  0  0  0  0
  160.1581  142.2313  184.4431 C   0  0  0  0  0  0  0  0  0  0  0  0
  162.1668  142.6006  185.8867 C   0  0  0  0  0  0  0  0  0  0  0  0
  160.7274  143.0013  185.5821 C   0  0  0  0  0  0  0  0  0  0  0  0
  159.9203  142.5972  186.8263 C   0  0  0  0  0  0  0  0  0  0  0  0
  154.9615  136.4531  186.4240 C   0  0  0  0  0  0  0  0  0  0  0  0
  155.6418  135.4945  187.3326 C   0  0  0  0  0  0  0  0  0  0  0  0
  156.0492  134.2643  186.7796 C   0  0  0  0  0  0  0  0  0  0  0  0
  156.7221  133.3849  187.5666 C   0  0  0  0  0  0  0  0  0  0  0  0
  157.0085  133.6708  188.8762 C   0  0  0  0  0  0  0  0  0  0  0  0
  156.6102  134.8698  189.4157 C   0  0  0  0  0  0  0  0  0  0  0  0
  156.8846  135.1395  190.7086 N   0  0  0  0  0  0  0  0  0  0  0  0
  157.6117  134.1396  191.4743 C   0  0  0  0  0  0  0  0  0  0  0  0
  156.4885  136.3036  191.2510 C   0  0  0  0  0  0  0  0  0  0  0  0
  156.7813  136.4873  192.4677 O   0  0  0  0  0  0  0  0  0  0  0  0
  155.8189  137.2127  190.5278 N   0  0  0  0  0  0  0  0  0  0  0  0
  155.4110  138.4567  191.1575 C   0  0  0  0  0  0  0  0  0  0  0  0
  155.5135  137.0003  189.2235 C   0  0  0  0  0  0  0  0  0  0  0  0
  154.8880  137.8643  188.5836 O   0  0  0  0  0  0  0  0  0  0  0  0
  155.9050  135.8239  188.6413 C   0  0  0  0  0  0  0  0  0  0  0  0
 18 19  1  0  0  0
 19 20  1  0  0  0
 19 17  1  0  0  0
 17 16  1  0  0  0
 16 10  1  0  0  0
 10 11  2  0  0  0
 11 12  1  0  0  0
 12 13  2  0  0  0
 13 14  1  0  0  0
 14 15  2  0  0  0
 13  5  1  0  0  0
  5  6  2  0  0  0
  6  7  1  0  0  0
  7  8  1  0  0  0
  8  1  1  0  0  0
  1  2  1  0  0  0
  2  3  2  0  0  0
  2 21  1  0  0  0
 21 22  1  0  0  0
 22 23  2  0  0  0
 23 24  1  0  0  0
 24 25  2  0  0  0
 25 26  1  0  0  0
 26 27  1  0  0  0
 27 28  1  0  0  0
 27 29  1  0  0  0
 29 30  2  0  0  0
 29 31  1  0  0  0
 31 32  1  0  0  0
 31 33  1  0  0  0
 33 34  2  0  0  0
 33 35  1  0  0  0
  8  9  2  0  0  0
 15 10  1  0  0  0
  9  5  1  0  0  0
 35 22  1  0  0  0
 35 26  2  0  0  0
  1  4  1  0  0  0
M  END
> <minimizedAffinity>
-8.01245

> <CNNscore>
0.3803571463

> <CNNaffinity>
6.4905304909

> <CNN_VS>
2.4687197208

> <CNNaffinity_variance>
0.0859927684

$$$$
[H]c1sc(N([H])C(=O)C([H])([H])c2c([H])c([H])c([H])c3c2c(=O)n(C([H])([H])[H])c(=O)n3C([H])([H])[H])nc1-c1c([H])c([H])c(OC([H])([H])C([H])(C([H])([H])[H])C([H])([H])[H])c([H])c1[H]


 35 38  0  0  0  0  0  0  0  0999 V2000
  151.4397  137.3686  186.0786 N   0  0  0  0  0  0  0  0  0  0  0  0
  150.8596  136.7320  184.9743 C   0  0  0  0  0  0  0  0  0  0  0  0
  149.5775  136.5971  184.9868 O   0  0  0  0  0  0  0  0  0  0  0  0
  150.8595  137.7313  186.8910 H   0  0  0  0  0  0  0  0  0  0  0  0
  154.8743  138.4531  185.6996 C   0  0  0  0  0  0  0  0  0  0  0  0
  155.4059  137.6004  186.6450 C   0  0  0  0  0  0  0  0  0  0  0  0
  154.0154  136.7742  187.1782 S   0  0  0  0  0  0  0  0  0  0  0  0
  152.8566  137.5421  186.1903 C   0  0  0  0  0  0  0  0  0  0  0  0
  153.6011  138.3960  185.5000 N   0  0  0  0  0  0  0  0  0  0  0  0
  157.3968  141.1810  183.5278 C   0  0  0  0  0  0  0  0  0  0  0  0
  156.0390  141.0337  183.2129 C   0  0  0  0  0  0  0  0  0  0  0  0
  155.2466  140.1528  183.9239 C   0  0  0  0  0  0  0  0  0  0  0  0
  155.7410  139.3976  184.9489 C   0  0  0  0  0  0  0  0  0  0  0  0
  157.0646  139.5325  185.2654 C   0  0  0  0  0  0  0  0  0  0  0  0
  157.8840  140.4168  184.5598 C   0  0  0  0  0  0  0  0  0  0  0  0
  158.1310  142.0717  182.7810 O   0  0  0  0  0  0  0  0  0  0  0  0
  157.7115  143.0708  181.9480 C   0  0  0  0  0  0  0  0  0  0  0  0
  158.3495  141.5207  180.0918 C   0  0  0  0  0  0  0  0  0  0  0  0
  157.9957  142.9487  180.4924 C   0  0  0  0  0  0  0  0  0  0  0  0
  159.2661  143.7725  180.2273 C   0  0  0  0  0  0  0  0  0  0  0  0
  151.5671  136.1968  183.7918 C   0  0  0  0  0  0  0  0  0  0  0  0
  150.6640  136.3053  182.6171 C   0  0  0  0  0  0  0  0  0  0  0  0
  149.6720  135.3148  182.4762 C   0  0  0  0  0  0  0  0  0  0  0  0
  148.7939  135.4115  181.4442 C   0  0  0  0  0  0  0  0  0  0  0  0
  148.8558  136.4455  180.5466 C   0  0  0  0  0  0  0  0  0  0  0  0
  149.8239  137.4106  180.6833 C   0  0  0  0  0  0  0  0  0  0  0  0
  149.8867  138.4189  179.7892 N   0  0  0  0  0  0  0  0  0  0  0  0
  148.9035  138.4426  178.7181 C   0  0  0  0  0  0  0  0  0  0  0  0
  150.8375  139.3615  179.9052 C   0  0  0  0  0  0  0  0  0  0  0  0
  150.8346  140.2758  179.0312 O   0  0  0  0  0  0  0  0  0  0  0  0
  151.7351  139.3217  180.9005 N   0  0  0  0  0  0  0  0  0  0  0  0
  152.7447  140.3629  180.9849 C   0  0  0  0  0  0  0  0  0  0  0  0
  151.7238  138.3344  181.8303 C   0  0  0  0  0  0  0  0  0  0  0  0
  152.5740  138.3268  182.7382 O   0  0  0  0  0  0  0  0  0  0  0  0
  150.7659  137.3595  181.7404 C   0  0  0  0  0  0  0  0  0  0  0  0
 18 19  1  0  0  0
 19 20  1  0  0  0
 19 17  1  0  0  0
 17 16  1  0  0  0
 16 10  1  0  0  0
 10 11  2  0  0  0
 11 12  1  0  0  0
 12 13  2  0  0  0
 13 14  1  0  0  0
 14 15  2  0  0  0
 13  5  1  0  0  0
  5  6  2  0  0  0
  6  7  1  0  0  0
  7  8  1  0  0  0
  8  1  1  0  0  0
  1  2  1  0  0  0
  2  3  2  0  0  0
  2 21  1  0  0  0
 21 22  1  0  0  0
 22 23  2  0  0  0
 23 24  1  0  0  0
 24 25  2  0  0  0
 25 26  1  0  0  0
 26 27  1  0  0  0
 27 28  1  0  0  0
 27 29  1  0  0  0
 29 30  2  0  0  0
 29 31  1  0  0  0
 31 32  1  0  0  0
 31 33  1  0  0  0
 33 34  2  0  0  0
 33 35  1  0  0  0
  8  9  2  0  0  0
 15 10  1  0  0  0
  9  5  1  0  0  0
 35 22  1  0  0  0
 35 26  2  0  0  0
  1  4  1  0  0  0
M  END
> <minimizedAffinity>
-7.39784

> <CNNscore>
0.3667164743

> <CNNaffinity>
6.3927903175

> <CNN_VS>
2.3443415165

> <CNNaffinity_variance>
0.0692881271

$$$$
[H]c1c(C([H])([H])n2c(=O)c3c(nc([H])n3C([H])([H])C(=O)N([H])c3nc(C(F)(F)F)c(Br)c([H])c3[H])n(C([H])([H])[H])c2=O)noc1C([H])([H])[H]


 35 38  0  0  0  0  0  0  0  0999 V2000
  158.4814  141.8820  183.1897 N   0  0  0  0  0  0  0  0  0  0  0  0
  158.3761  143.1521  182.7303 C   0  0  0  0  0  0  0  0  0  0  0  0
  159.3994  143.8639  182.5016 O   0  0  0  0  0  0  0  0  0  0  0  0
  157.1592  143.6828  182.5067 N   0  0  0  0  0  0  0  0  0  0  0  0
  157.0247  145.0590  182.0105 C   0  0  0  0  0  0  0  0  0  0  0  0
  156.0353  143.0150  182.7166 C   0  0  0  0  0  0  0  0  0  0  0  0
  154.7135  143.3289  182.5593 N   0  0  0  0  0  0  0  0  0  0  0  0
  154.0080  142.2476  182.9256 C   0  0  0  0  0  0  0  0  0  0  0  0
  154.8394  141.2560  183.3110 N   0  0  0  0  0  0  0  0  0  0  0  0
  156.0879  141.7019  183.1909 C   0  0  0  0  0  0  0  0  0  0  0  0
  157.3477  141.1920  183.4076 C   0  0  0  0  0  0  0  0  0  0  0  0
  157.4522  140.0368  183.8237 O   0  0  0  0  0  0  0  0  0  0  0  0
  159.8059  141.3344  183.4195 C   0  0  0  0  0  0  0  0  0  0  0  0
  162.8043  143.0074  187.1650 C   0  0  0  0  0  0  0  0  0  0  0  0
  161.6382  142.5375  186.3600 C   0  0  0  0  0  0  0  0  0  0  0  0
  161.6049  142.1606  185.0256 C   0  0  0  0  0  0  0  0  0  0  0  0
  160.3199  141.8026  184.7153 C   0  0  0  0  0  0  0  0  0  0  0  0
  159.6103  141.9726  185.8699 N   0  0  0  0  0  0  0  0  0  0  0  0
  160.4115  142.4012  186.8036 O   0  0  0  0  0  0  0  0  0  0  0  0
  154.3997  139.9995  183.7847 C   0  0  0  0  0  0  0  0  0  0  0  0
  153.3429  139.3955  182.8820 C   0  0  0  0  0  0  0  0  0  0  0  0
  153.2560  138.1526  182.9525 O   0  0  0  0  0  0  0  0  0  0  0  0
  152.5210  140.1436  182.0327 N   0  0  0  0  0  0  0  0  0  0  0  0
  152.7160  141.2081  182.0876 H   0  0  0  0  0  0  0  0  0  0  0  0
  151.5146  139.7067  181.1496 C   0  0  0  0  0  0  0  0  0  0  0  0
  151.6256  139.7098  179.7914 C   0  0  0  0  0  0  0  0  0  0  0  0
  150.5405  139.2548  179.0278 C   0  0  0  0  0  0  0  0  0  0  0  0
  149.4007  138.8191  179.6222 C   0  0  0  0  0  0  0  0  0  0  0  0
  147.8808  138.1853  178.6620 Br  0  0  0  0  0  0  0  0  0  0  0  0
  149.3359  138.8348  181.0041 C   0  0  0  0  0  0  0  0  0  0  0  0
  150.3608  139.2644  181.7208 N   0  0  0  0  0  0  0  0  0  0  0  0
  148.1059  138.3705  181.7130 C   0  0  0  0  0  0  0  0  0  0  0  0
  148.2784  138.5950  183.0716 F   0  0  0  0  0  0  0  0  0  0  0  0
  147.9019  137.0474  181.4241 F   0  0  0  0  0  0  0  0  0  0  0  0
  147.0044  139.0780  181.3253 F   0  0  0  0  0  0  0  0  0  0  0  0
 14 15  1  0  0  0
 15 16  2  0  0  0
 16 17  1  0  0  0
 17 13  1  0  0  0
 13  1  1  0  0  0
  1  2  1  0  0  0
  2  3  2  0  0  0
  2  4  1  0  0  0
  4  5  1  0  0  0
  4  6  1  0  0  0
  6  7  1  0  0  0
  7  8  2  0  0  0
  8  9  1  0  0  0
  9 20  1  0  0  0
 20 21  1  0  0  0
 21 22  2  0  0  0
 21 23  1  0  0  0
 23 25  1  0  0  0
 25 26  2  0  0  0
 26 27  1  0  0  0
 27 28  2  0  0  0
 28 29  1  0  0  0
 28 30  1  0  0  0
 30 31  2  0  0  0
 30 32  1  0  0  0
 32 33  1  0  0  0
 32 34  1  0  0  0
 32 35  1  0  0  0
  9 10  1  0  0  0
 10 11  1  0  0  0
 11 12  2  0  0  0
 17 18  2  0  0  0
 18 19  1  0  0  0
 19 15  1  0  0  0
 11  1  1  0  0  0
 10  6  2  0  0  0
 31 25  1  0  0  0
 23 24  1  0  0  0
M  END
> <minimizedAffinity>
-9.52923

> <CNNscore>
0.6534524560

> <CNNaffinity>
6.9087958336

> <CNN_VS>
4.5145697594

> <CNNaffinity_variance>
0.1766438186

$$$$
[H]c1c(C([H])([H])n2c(=O)c3c(nc([H])n3C([H])([H])C(=O)N([H])c3nc(C(F)(F)F)c(Br)c([H])c3[H])n(C([H])([H])[H])c2=O)noc1C([H])([H])[H]


 35 38  0  0  0  0  0  0  0  0999 V2000
  158.8089  141.7142  183.1071 N   0  0  0  0  0  0  0  0  0  0  0  0
  158.3618  142.9292  182.7081 C   0  0  0  0  0  0  0  0  0  0  0  0
  159.1570  143.8898  182.4825 O   0  0  0  0  0  0  0  0  0  0  0  0
  157.0413  143.1338  182.5431 N   0  0  0  0  0  0  0  0  0  0  0  0
  156.5372  144.4449  182.1131 C   0  0  0  0  0  0  0  0  0  0  0  0
  156.1368  142.1903  182.7548 C   0  0  0  0  0  0  0  0  0  0  0  0
  154.7737  142.1561  182.6493 N   0  0  0  0  0  0  0  0  0  0  0  0
  154.3859  140.9164  182.9867 C   0  0  0  0  0  0  0  0  0  0  0  0
  155.4593  140.1612  183.3036 N   0  0  0  0  0  0  0  0  0  0  0  0
  156.5449  140.9196  183.1682 C   0  0  0  0  0  0  0  0  0  0  0  0
  157.9011  140.7465  183.3259 C   0  0  0  0  0  0  0  0  0  0  0  0
  158.3162  139.6437  183.6868 O   0  0  0  0  0  0  0  0  0  0  0  0
  160.2378  141.5211  183.2744 C   0  0  0  0  0  0  0  0  0  0  0  0
  162.9363  142.9418  187.3385 C   0  0  0  0  0  0  0  0  0  0  0  0
  161.8301  142.5738  186.4061 C   0  0  0  0  0  0  0  0  0  0  0  0
  161.9127  142.1922  185.0752 C   0  0  0  0  0  0  0  0  0  0  0  0
  160.6435  141.9498  184.6213 C   0  0  0  0  0  0  0  0  0  0  0  0
  159.8272  142.1914  185.6893 N   0  0  0  0  0  0  0  0  0  0  0  0
  160.5541  142.5523  186.7086 O   0  0  0  0  0  0  0  0  0  0  0  0
  155.3775  138.8175  183.7329 C   0  0  0  0  0  0  0  0  0  0  0  0
  154.7285  138.7005  185.0972 C   0  0  0  0  0  0  0  0  0  0  0  0
  153.7596  139.4671  185.2731 O   0  0  0  0  0  0  0  0  0  0  0  0
  155.1580  137.8170  186.0931 N   0  0  0  0  0  0  0  0  0  0  0  0
  156.0072  137.2177  185.7869 H   0  0  0  0  0  0  0  0  0  0  0  0
  154.6489  137.6171  187.3909 C   0  0  0  0  0  0  0  0  0  0  0  0
  153.3941  137.1621  187.6656 C   0  0  0  0  0  0  0  0  0  0  0  0
  153.0110  137.0169  189.0072 C   0  0  0  0  0  0  0  0  0  0  0  0
  153.8668  137.3213  190.0158 C   0  0  0  0  0  0  0  0  0  0  0  0
  153.4288  137.1539  191.8635 Br  0  0  0  0  0  0  0  0  0  0  0  0
  155.1301  137.7793  189.6866 C   0  0  0  0  0  0  0  0  0  0  0  0
  155.4879  137.9149  188.4208 N   0  0  0  0  0  0  0  0  0  0  0  0
  156.1129  138.1330  190.7543 C   0  0  0  0  0  0  0  0  0  0  0  0
  155.5942  139.1915  191.4868 F   0  0  0  0  0  0  0  0  0  0  0  0
  157.3113  138.4416  190.1676 F   0  0  0  0  0  0  0  0  0  0  0  0
  156.3050  137.0981  191.6240 F   0  0  0  0  0  0  0  0  0  0  0  0
 14 15  1  0  0  0
 15 16  2  0  0  0
 16 17  1  0  0  0
 17 13  1  0  0  0
 13  1  1  0  0  0
  1  2  1  0  0  0
  2  3  2  0  0  0
  2  4  1  0  0  0
  4  5  1  0  0  0
  4  6  1  0  0  0
  6  7  1  0  0  0
  7  8  2  0  0  0
  8  9  1  0  0  0
  9 20  1  0  0  0
 20 21  1  0  0  0
 21 22  2  0  0  0
 21 23  1  0  0  0
 23 25  1  0  0  0
 25 26  2  0  0  0
 26 27  1  0  0  0
 27 28  2  0  0  0
 28 29  1  0  0  0
 28 30  1  0  0  0
 30 31  2  0  0  0
 30 32  1  0  0  0
 32 33  1  0  0  0
 32 34  1  0  0  0
 32 35  1  0  0  0
  9 10  1  0  0  0
 10 11  1  0  0  0
 11 12  2  0  0  0
 17 18  2  0  0  0
 18 19  1  0  0  0
 19 15  1  0  0  0
 11  1  1  0  0  0
 10  6  2  0  0  0
 31 25  1  0  0  0
 23 24  1  0  0  0
M  END
> <minimizedAffinity>
-9.81043

> <CNNscore>
0.6407068968

> <CNNaffinity>
7.1114134789

> <CNN_VS>
4.5563316345

> <CNNaffinity_variance>
0.1456815302

$$$$
[H]c1c(C([H])([H])n2c(=O)c3c(nc([H])n3C([H])([H])C(=O)N([H])c3nc(C(F)(F)F)c(Br)c([H])c3[H])n(C([H])([H])[H])c2=O)noc1C([H])([H])[H]


 35 38  0  0  0  0  0  0  0  0999 V2000
  152.0228  138.6075  181.9016 N   0  0  0  0  0  0  0  0  0  0  0  0
  152.5403  139.8354  181.6573 C   0  0  0  0  0  0  0  0  0  0  0  0
  152.1001  140.5690  180.7222 O   0  0  0  0  0  0  0  0  0  0  0  0
  153.5475  140.2997  182.4204 N   0  0  0  0  0  0  0  0  0  0  0  0
  154.1230  141.6279  182.1696 C   0  0  0  0  0  0  0  0  0  0  0  0
  154.0709  139.6049  183.4187 C   0  0  0  0  0  0  0  0  0  0  0  0
  155.0683  139.8606  184.3188 N   0  0  0  0  0  0  0  0  0  0  0  0
  155.1623  138.7843  185.1151 C   0  0  0  0  0  0  0  0  0  0  0  0
  154.2563  137.8524  184.7497 N   0  0  0  0  0  0  0  0  0  0  0  0
  153.5742  138.3325  183.7123 C   0  0  0  0  0  0  0  0  0  0  0  0
  152.5450  137.8906  182.9125 C   0  0  0  0  0  0  0  0  0  0  0  0
  152.0675  136.7754  183.1293 O   0  0  0  0  0  0  0  0  0  0  0  0
  150.9357  138.1333  181.0648 C   0  0  0  0  0  0  0  0  0  0  0  0
  146.8194  138.8974  183.9440 C   0  0  0  0  0  0  0  0  0  0  0  0
  147.8443  138.9529  182.8601 C   0  0  0  0  0  0  0  0  0  0  0  0
  149.0326  138.2450  182.7573 C   0  0  0  0  0  0  0  0  0  0  0  0
  149.6523  138.6182  181.5944 C   0  0  0  0  0  0  0  0  0  0  0  0
  148.8228  139.5418  181.0250 N   0  0  0  0  0  0  0  0  0  0  0  0
  147.7822  139.7099  181.7909 O   0  0  0  0  0  0  0  0  0  0  0  0
  154.1280  136.5916  185.3747 C   0  0  0  0  0  0  0  0  0  0  0  0
  153.1927  136.6458  186.5657 C   0  0  0  0  0  0  0  0  0  0  0  0
  152.2636  137.4713  186.4526 O   0  0  0  0  0  0  0  0  0  0  0  0
  153.3349  135.8499  187.7072 N   0  0  0  0  0  0  0  0  0  0  0  0
  154.1872  135.1830  187.6523 H   0  0  0  0  0  0  0  0  0  0  0  0
  152.5446  135.8084  188.8722 C   0  0  0  0  0  0  0  0  0  0  0  0
  151.2776  135.3094  188.9273 C   0  0  0  0  0  0  0  0  0  0  0  0
  150.5976  135.3375  190.1539 C   0  0  0  0  0  0  0  0  0  0  0  0
  151.1827  135.8493  191.2665 C   0  0  0  0  0  0  0  0  0  0  0  0
  150.3319  135.9266  192.9706 Br  0  0  0  0  0  0  0  0  0  0  0  0
  152.4705  136.3438  191.1604 C   0  0  0  0  0  0  0  0  0  0  0  0
  153.1086  136.3157  190.0025 N   0  0  0  0  0  0  0  0  0  0  0  0
  153.1634  136.9222  192.3504 C   0  0  0  0  0  0  0  0  0  0  0  0
  154.2976  137.5893  191.9092 F   0  0  0  0  0  0  0  0  0  0  0  0
  153.4596  135.9105  193.2247 F   0  0  0  0  0  0  0  0  0  0  0  0
  152.3812  137.8396  192.9913 F   0  0  0  0  0  0  0  0  0  0  0  0
 14 15  1  0  0  0
 15 16  2  0  0  0
 16 17  1  0  0  0
 17 13  1  0  0  0
 13  1  1  0  0  0
  1  2  1  0  0  0
  2  3  2  0  0  0
  2  4  1  0  0  0
  4  5  1  0  0  0
  4  6  1  0  0  0
  6  7  1  0  0  0
  7  8  2  0  0  0
  8  9  1  0  0  0
  9 20  1  0  0  0
 20 21  1  0  0  0
 21 22  2  0  0  0
 21 23  1  0  0  0
 23 25  1  0  0  0
 25 26  2  0  0  0
 26 27  1  0  0  0
 27 28  2  0  0  0
 28 29  1  0  0  0
 28 30  1  0  0  0
 30 31  2  0  0  0
 30 32  1  0  0  0
 32 33  1  0  0  0
 32 34  1  0  0  0
 32 35  1  0  0  0
  9 10  1  0  0  0
 10 11  1  0  0  0
 11 12  2  0  0  0
 17 18  2  0  0  0
 18 19  1  0  0  0
 19 15  1  0  0  0
 11  1  1  0  0  0
 10  6  2  0  0  0
 31 25  1  0  0  0
 23 24  1  0  0  0
M  END
> <minimizedAffinity>
-6.83113

> <CNNscore>
0.5405114293

> <CNNaffinity>
6.1100530624

> <CNN_VS>
3.3025534153

> <CNNaffinity_variance>
0.0452221557

$$$$
[H]c1c(C([H])([H])n2c(=O)c3c(nc([H])n3C([H])([H])C(=O)N([H])c3nc(C(F)(F)F)c(Br)c([H])c3[H])n(C([H])([H])[H])c2=O)noc1C([H])([H])[H]


 35 38  0  0  0  0  0  0  0  0999 V2000
  158.7648  141.9075  183.2752 N   0  0  0  0  0  0  0  0  0  0  0  0
  158.3725  143.1077  182.7844 C   0  0  0  0  0  0  0  0  0  0  0  0
  159.2120  143.9781  182.4054 O   0  0  0  0  0  0  0  0  0  0  0  0
  157.0604  143.3948  182.6915 N   0  0  0  0  0  0  0  0  0  0  0  0
  156.6156  144.6917  182.1639 C   0  0  0  0  0  0  0  0  0  0  0  0
  156.1124  142.5482  183.0626 C   0  0  0  0  0  0  0  0  0  0  0  0
  154.7460  142.6076  183.0566 N   0  0  0  0  0  0  0  0  0  0  0  0
  154.3014  141.4402  183.5471 C   0  0  0  0  0  0  0  0  0  0  0  0
  155.3417  140.6405  183.8651 N   0  0  0  0  0  0  0  0  0  0  0  0
  156.4630  141.2972  183.5762 C   0  0  0  0  0  0  0  0  0  0  0  0
  157.8123  141.0379  183.6562 C   0  0  0  0  0  0  0  0  0  0  0  0
  158.1774  139.9476  184.0998 O   0  0  0  0  0  0  0  0  0  0  0  0
  160.1857  141.6237  183.3616 C   0  0  0  0  0  0  0  0  0  0  0  0
  163.2051  142.8688  187.2540 C   0  0  0  0  0  0  0  0  0  0  0  0
  162.0242  142.5842  186.3863 C   0  0  0  0  0  0  0  0  0  0  0  0
  162.0040  142.1745  185.0613 C   0  0  0  0  0  0  0  0  0  0  0  0
  160.6966  142.0375  184.6770 C   0  0  0  0  0  0  0  0  0  0  0  0
  159.9610  142.3681  185.7793 N   0  0  0  0  0  0  0  0  0  0  0  0
  160.7686  142.6805  186.7529 O   0  0  0  0  0  0  0  0  0  0  0  0
  155.2013  139.3558  184.4362 C   0  0  0  0  0  0  0  0  0  0  0  0
  153.9127  138.6852  184.0048 C   0  0  0  0  0  0  0  0  0  0  0  0
  153.1814  138.3217  184.9484 O   0  0  0  0  0  0  0  0  0  0  0  0
  153.5487  138.4787  182.6701 N   0  0  0  0  0  0  0  0  0  0  0  0
  154.2862  138.8521  181.9696 H   0  0  0  0  0  0  0  0  0  0  0  0
  152.3934  137.8699  182.1425 C   0  0  0  0  0  0  0  0  0  0  0  0
  152.0219  136.5812  182.3838 C   0  0  0  0  0  0  0  0  0  0  0  0
  150.8489  136.0973  181.7859 C   0  0  0  0  0  0  0  0  0  0  0  0
  150.0948  136.8900  180.9827 C   0  0  0  0  0  0  0  0  0  0  0  0
  148.4895  136.3139  180.1313 Br  0  0  0  0  0  0  0  0  0  0  0  0
  150.5130  138.1911  180.7680 C   0  0  0  0  0  0  0  0  0  0  0  0
  151.6193  138.6441  181.3333 N   0  0  0  0  0  0  0  0  0  0  0  0
  149.7253  139.1082  179.8908 C   0  0  0  0  0  0  0  0  0  0  0  0
  150.4901  140.2412  179.6513 F   0  0  0  0  0  0  0  0  0  0  0  0
  148.5386  139.4003  180.5089 F   0  0  0  0  0  0  0  0  0  0  0  0
  149.4590  138.5392  178.6786 F   0  0  0  0  0  0  0  0  0  0  0  0
 14 15  1  0  0  0
 15 16  2  0  0  0
 16 17  1  0  0  0
 17 13  1  0  0  0
 13  1  1  0  0  0
  1  2  1  0  0  0
  2  3  2  0  0  0
  2  4  1  0  0  0
  4  5  1  0  0  0
  4  6  1  0  0  0
  6  7  1  0  0  0
  7  8  2  0  0  0
  8  9  1  0  0  0
  9 20  1  0  0  0
 20 21  1  0  0  0
 21 22  2  0  0  0
 21 23  1  0  0  0
 23 25  1  0  0  0
 25 26  2  0  0  0
 26 27  1  0  0  0
 27 28  2  0  0  0
 28 29  1  0  0  0
 28 30  1  0  0  0
 30 31  2  0  0  0
 30 32  1  0  0  0
 32 33  1  0  0  0
 32 34  1  0  0  0
 32 35  1  0  0  0
  9 10  1  0  0  0
 10 11  1  0  0  0
 11 12  2  0  0  0
 17 18  2  0  0  0
 18 19  1  0  0  0
 19 15  1  0  0  0
 11  1  1  0  0  0
 10  6  2  0  0  0
 31 25  1  0  0  0
 23 24  1  0  0  0
M  END
> <minimizedAffinity>
-8.89405

> <CNNscore>
0.5218154192

> <CNNaffinity>
6.7986173630

> <CNN_VS>
3.5476233959

> <CNNaffinity_variance>
0.1438791901

$$$$
[H]c1c(C([H])([H])n2c(=O)c3c(nc([H])n3C([H])([H])C(=O)N([H])c3nc(C(F)(F)F)c(Br)c([H])c3[H])n(C([H])([H])[H])c2=O)noc1C([H])([H])[H]


 35 38  0  0  0  0  0  0  0  0999 V2000
  158.5315  141.6471  183.2256 N   0  0  0  0  0  0  0  0  0  0  0  0
  157.9713  142.8030  182.7953 C   0  0  0  0  0  0  0  0  0  0  0  0
  158.6779  143.7978  182.4529 O   0  0  0  0  0  0  0  0  0  0  0  0
  156.6311  142.9101  182.7249 N   0  0  0  0  0  0  0  0  0  0  0  0
  156.0051  144.1562  182.2628 C   0  0  0  0  0  0  0  0  0  0  0  0
  155.8136  141.9243  183.0613 C   0  0  0  0  0  0  0  0  0  0  0  0
  154.4521  141.7945  183.0670 N   0  0  0  0  0  0  0  0  0  0  0  0
  154.1789  140.5554  183.5041 C   0  0  0  0  0  0  0  0  0  0  0  0
  155.3235  139.8932  183.7766 N   0  0  0  0  0  0  0  0  0  0  0  0
  156.3399  140.7112  183.5122 C   0  0  0  0  0  0  0  0  0  0  0  0
  157.7129  140.6374  183.5708 C   0  0  0  0  0  0  0  0  0  0  0  0
  158.2305  139.5887  183.9593 O   0  0  0  0  0  0  0  0  0  0  0  0
  159.9789  141.5586  183.2890 C   0  0  0  0  0  0  0  0  0  0  0  0
  162.8553  142.9451  187.2415 C   0  0  0  0  0  0  0  0  0  0  0  0
  161.7094  142.5793  186.3575 C   0  0  0  0  0  0  0  0  0  0  0  0
  161.7316  142.2201  185.0179 C   0  0  0  0  0  0  0  0  0  0  0  0
  160.4446  141.9703  184.6217 C   0  0  0  0  0  0  0  0  0  0  0  0
  159.6784  142.1852  185.7318 N   0  0  0  0  0  0  0  0  0  0  0  0
  160.4498  142.5381  186.7207 O   0  0  0  0  0  0  0  0  0  0  0  0
  155.3688  138.5762  184.2865 C   0  0  0  0  0  0  0  0  0  0  0  0
  154.7326  138.4812  185.6586 C   0  0  0  0  0  0  0  0  0  0  0  0
  153.5909  138.9796  185.7315 O   0  0  0  0  0  0  0  0  0  0  0  0
  155.3496  137.8902  186.7662 N   0  0  0  0  0  0  0  0  0  0  0  0
  156.3358  137.5016  186.5416 H   0  0  0  0  0  0  0  0  0  0  0  0
  154.8721  137.7440  188.0831 C   0  0  0  0  0  0  0  0  0  0  0  0
  155.3707  138.4095  189.1627 C   0  0  0  0  0  0  0  0  0  0  0  0
  154.8068  138.1625  190.4231 C   0  0  0  0  0  0  0  0  0  0  0  0
  153.7859  137.2805  190.5719 C   0  0  0  0  0  0  0  0  0  0  0  0
  152.9627  136.8857  192.2453 Br  0  0  0  0  0  0  0  0  0  0  0  0
  153.3137  136.6297  189.4461 C   0  0  0  0  0  0  0  0  0  0  0  0
  153.8476  136.8650  188.2594 N   0  0  0  0  0  0  0  0  0  0  0  0
  152.1945  135.6460  189.5497 C   0  0  0  0  0  0  0  0  0  0  0  0
  151.1106  136.2836  190.1367 F   0  0  0  0  0  0  0  0  0  0  0  0
  152.6209  134.5659  190.2758 F   0  0  0  0  0  0  0  0  0  0  0  0
  151.7890  135.2140  188.3196 F   0  0  0  0  0  0  0  0  0  0  0  0
 14 15  1  0  0  0
 15 16  2  0  0  0
 16 17  1  0  0  0
 17 13  1  0  0  0
 13  1  1  0  0  0
  1  2  1  0  0  0
  2  3  2  0  0  0
  2  4  1  0  0  0
  4  5  1  0  0  0
  4  6  1  0  0  0
  6  7  1  0  0  0
  7  8  2  0  0  0
  8  9  1  0  0  0
  9 20  1  0  0  0
 20 21  1  0  0  0
 21 22  2  0  0  0
 21 23  1  0  0  0
 23 25  1  0  0  0
 25 26  2  0  0  0
 26 27  1  0  0  0
 27 28  2  0  0  0
 28 29  1  0  0  0
 28 30  1  0  0  0
 30 31  2  0  0  0
 30 32  1  0  0  0
 32 33  1  0  0  0
 32 34  1  0  0  0
 32 35  1  0  0  0
  9 10  1  0  0  0
 10 11  1  0  0  0
 11 12  2  0  0  0
 17 18  2  0  0  0
 18 19  1  0  0  0
 19 15  1  0  0  0
 11  1  1  0  0  0
 10  6  2  0  0  0
 31 25  1  0  0  0
 23 24  1  0  0  0
M  END
> <minimizedAffinity>
-8.97106

> <CNNscore>
0.4631859362

> <CNNaffinity>
6.7245645523

> <CNN_VS>
3.1147236824

> <CNNaffinity_variance>
0.2074886858

$$$$
[H]c1c(C([H])([H])n2c(=O)c3c(nc([H])n3C([H])([H])C(=O)N([H])c3nc(C(F)(F)F)c(Br)c([H])c3[H])n(C([H])([H])[H])c2=O)noc1C([H])([H])[H]


 35 38  0  0  0  0  0  0  0  0999 V2000
  149.5687  137.5013  183.1767 N   0  0  0  0  0  0  0  0  0  0  0  0
  148.6281  138.4641  183.3292 C   0  0  0  0  0  0  0  0  0  0  0  0
  148.4641  139.3770  182.4656 O   0  0  0  0  0  0  0  0  0  0  0  0
  147.8409  138.4618  184.4215 N   0  0  0  0  0  0  0  0  0  0  0  0
  146.8166  139.4987  184.6056 C   0  0  0  0  0  0  0  0  0  0  0  0
  147.9395  137.5488  185.3753 C   0  0  0  0  0  0  0  0  0  0  0  0
  147.2640  137.3372  186.5455 N   0  0  0  0  0  0  0  0  0  0  0  0
  147.7948  136.2421  187.1114 C   0  0  0  0  0  0  0  0  0  0  0  0
  148.7866  135.7507  186.3381 N   0  0  0  0  0  0  0  0  0  0  0  0
  148.8938  136.5342  185.2672 C   0  0  0  0  0  0  0  0  0  0  0  0
  149.6800  136.5675  184.1381 C   0  0  0  0  0  0  0  0  0  0  0  0
  150.5369  135.6941  183.9908 O   0  0  0  0  0  0  0  0  0  0  0  0
  150.4016  137.5266  181.9881 C   0  0  0  0  0  0  0  0  0  0  0  0
  153.8148  141.2906  181.9908 C   0  0  0  0  0  0  0  0  0  0  0  0
  153.0919  140.0073  182.2334 C   0  0  0  0  0  0  0  0  0  0  0  0
  151.8548  139.6076  181.7502 C   0  0  0  0  0  0  0  0  0  0  0  0
  151.5931  138.3530  182.2331 C   0  0  0  0  0  0  0  0  0  0  0  0
  152.6785  138.0274  182.9955 N   0  0  0  0  0  0  0  0  0  0  0  0
  153.5283  139.0147  182.9713 O   0  0  0  0  0  0  0  0  0  0  0  0
  149.5636  134.6207  186.6780 C   0  0  0  0  0  0  0  0  0  0  0  0
  150.8625  135.0124  187.3530 C   0  0  0  0  0  0  0  0  0  0  0  0
  151.6591  134.0669  187.5229 O   0  0  0  0  0  0  0  0  0  0  0  0
  151.1688  136.3148  187.7608 N   0  0  0  0  0  0  0  0  0  0  0  0
  150.3778  137.0221  187.5412 H   0  0  0  0  0  0  0  0  0  0  0  0
  152.3266  136.8036  188.3966 C   0  0  0  0  0  0  0  0  0  0  0  0
  153.3718  137.3918  187.7497 C   0  0  0  0  0  0  0  0  0  0  0  0
  154.4705  137.8267  188.5056 C   0  0  0  0  0  0  0  0  0  0  0  0
  154.4991  137.6682  189.8533 C   0  0  0  0  0  0  0  0  0  0  0  0
  155.9500  138.2289  190.9553 Br  0  0  0  0  0  0  0  0  0  0  0  0
  153.4142  137.0656  190.4646 C   0  0  0  0  0  0  0  0  0  0  0  0
  152.3800  136.6569  189.7490 N   0  0  0  0  0  0  0  0  0  0  0  0
  153.3915  136.8615  191.9441 C   0  0  0  0  0  0  0  0  0  0  0  0
  154.5502  136.1891  192.3063 F   0  0  0  0  0  0  0  0  0  0  0  0
  152.2590  136.1672  192.2774 F   0  0  0  0  0  0  0  0  0  0  0  0
  153.3897  138.0502  192.6159 F   0  0  0  0  0  0  0  0  0  0  0  0
 14 15  1  0  0  0
 15 16  2  0  0  0
 16 17  1  0  0  0
 17 13  1  0  0  0
 13  1  1  0  0  0
  1  2  1  0  0  0
  2  3  2  0  0  0
  2  4  1  0  0  0
  4  5  1  0  0  0
  4  6  1  0  0  0
  6  7  1  0  0  0
  7  8  2  0  0  0
  8  9  1  0  0  0
  9 20  1  0  0  0
 20 21  1  0  0  0
 21 22  2  0  0  0
 21 23  1  0  0  0
 23 25  1  0  0  0
 25 26  2  0  0  0
 26 27  1  0  0  0
 27 28  2  0  0  0
 28 29  1  0  0  0
 28 30  1  0  0  0
 30 31  2  0  0  0
 30 32  1  0  0  0
 32 33  1  0  0  0
 32 34  1  0  0  0
 32 35  1  0  0  0
  9 10  1  0  0  0
 10 11  1  0  0  0
 11 12  2  0  0  0
 17 18  2  0  0  0
 18 19  1  0  0  0
 19 15  1  0  0  0
 11  1  1  0  0  0
 10  6  2  0  0  0
 31 25  1  0  0  0
 23 24  1  0  0  0
M  END
> <minimizedAffinity>
-6.40538

> <CNNscore>
0.4570971131

> <CNNaffinity>
6.0882787704

> <CNN_VS>
2.7829346657

> <CNNaffinity_variance>
0.0624585226

$$$$
[H]c1c(C([H])([H])n2c(=O)c3c(nc([H])n3C([H])([H])C(=O)N([H])c3nc(C(F)(F)F)c(Br)c([H])c3[H])n(C([H])([H])[H])c2=O)noc1C([H])([H])[H]


 35 38  0  0  0  0  0  0  0  0999 V2000
  154.1421  134.2301  183.5170 N   0  0  0  0  0  0  0  0  0  0  0  0
  154.6570  134.0307  184.7540 C   0  0  0  0  0  0  0  0  0  0  0  0
  155.1439  132.9129  185.0998 O   0  0  0  0  0  0  0  0  0  0  0  0
  154.6577  135.0377  185.6476 N   0  0  0  0  0  0  0  0  0  0  0  0
  155.2098  134.8401  186.9946 C   0  0  0  0  0  0  0  0  0  0  0  0
  154.1711  136.2388  185.3758 C   0  0  0  0  0  0  0  0  0  0  0  0
  154.0701  137.3960  186.0978 N   0  0  0  0  0  0  0  0  0  0  0  0
  153.4896  138.3057  185.2998 C   0  0  0  0  0  0  0  0  0  0  0  0
  153.2182  137.7635  184.0935 N   0  0  0  0  0  0  0  0  0  0  0  0
  153.6277  136.4971  184.1150 C   0  0  0  0  0  0  0  0  0  0  0  0
  153.6442  135.4454  183.2273 C   0  0  0  0  0  0  0  0  0  0  0  0
  153.1794  135.6192  182.0993 O   0  0  0  0  0  0  0  0  0  0  0  0
  154.1567  133.1277  182.5729 C   0  0  0  0  0  0  0  0  0  0  0  0
  158.8583  132.2794  180.8428 C   0  0  0  0  0  0  0  0  0  0  0  0
  157.4669  132.7862  181.0308 C   0  0  0  0  0  0  0  0  0  0  0  0
  156.5477  132.4444  182.0117 C   0  0  0  0  0  0  0  0  0  0  0  0
  155.4011  133.1597  181.7899 C   0  0  0  0  0  0  0  0  0  0  0  0
  155.6569  133.9147  180.6809 N   0  0  0  0  0  0  0  0  0  0  0  0
  156.8683  133.6697  180.2683 O   0  0  0  0  0  0  0  0  0  0  0  0
  152.5763  138.4590  183.0443 C   0  0  0  0  0  0  0  0  0  0  0  0
  153.4557  139.5525  182.4724 C   0  0  0  0  0  0  0  0  0  0  0  0
  153.1522  139.9031  181.3138 O   0  0  0  0  0  0  0  0  0  0  0  0
  154.5230  140.1371  183.1622 N   0  0  0  0  0  0  0  0  0  0  0  0
  154.6571  139.7274  184.1563 H   0  0  0  0  0  0  0  0  0  0  0  0
  155.4106  141.1479  182.7450 C   0  0  0  0  0  0  0  0  0  0  0  0
  155.1629  142.4837  182.8506 C   0  0  0  0  0  0  0  0  0  0  0  0
  156.1320  143.3853  182.3861 C   0  0  0  0  0  0  0  0  0  0  0  0
  157.2944  142.9437  181.8417 C   0  0  0  0  0  0  0  0  0  0  0  0
  158.6629  144.0976  181.1866 Br  0  0  0  0  0  0  0  0  0  0  0  0
  157.5001  141.5782  181.7565 C   0  0  0  0  0  0  0  0  0  0  0  0
  156.5844  140.7312  182.1954 N   0  0  0  0  0  0  0  0  0  0  0  0
  158.7586  141.0344  181.1638 C   0  0  0  0  0  0  0  0  0  0  0  0
  158.8268  141.4456  179.8400 F   0  0  0  0  0  0  0  0  0  0  0  0
  158.7521  139.6704  181.2871 F   0  0  0  0  0  0  0  0  0  0  0  0
  159.8652  141.5256  181.7949 F   0  0  0  0  0  0  0  0  0  0  0  0
 14 15  1  0  0  0
 15 16  2  0  0  0
 16 17  1  0  0  0
 17 13  1  0  0  0
 13  1  1  0  0  0
  1  2  1  0  0  0
  2  3  2  0  0  0
  2  4  1  0  0  0
  4  5  1  0  0  0
  4  6  1  0  0  0
  6  7  1  0  0  0
  7  8  2  0  0  0
  8  9  1  0  0  0
  9 20  1  0  0  0
 20 21  1  0  0  0
 21 22  2  0  0  0
 21 23  1  0  0  0
 23 25  1  0  0  0
 25 26  2  0  0  0
 26 27  1  0  0  0
 27 28  2  0  0  0
 28 29  1  0  0  0
 28 30  1  0  0  0
 30 31  2  0  0  0
 30 32  1  0  0  0
 32 33  1  0  0  0
 32 34  1  0  0  0
 32 35  1  0  0  0
  9 10  1  0  0  0
 10 11  1  0  0  0
 11 12  2  0  0  0
 17 18  2  0  0  0
 18 19  1  0  0  0
 19 15  1  0  0  0
 11  1  1  0  0  0
 10  6  2  0  0  0
 31 25  1  0  0  0
 23 24  1  0  0  0
M  END
> <minimizedAffinity>
-7.93580

> <CNNscore>
0.4353761375

> <CNNaffinity>
6.3366041183

> <CNN_VS>
2.7588062286

> <CNNaffinity_variance>
0.2198985517

$$$$
[H]c1c(C([H])([H])n2c(=O)c3c(nc([H])n3C([H])([H])C(=O)N([H])c3nc(C(F)(F)F)c(Br)c([H])c3[H])n(C([H])([H])[H])c2=O)noc1C([H])([H])[H]


 35 38  0  0  0  0  0  0  0  0999 V2000
  149.5943  136.6299  184.3473 N   0  0  0  0  0  0  0  0  0  0  0  0
  148.8094  137.7145  184.1405 C   0  0  0  0  0  0  0  0  0  0  0  0
  148.9262  138.4322  183.1025 O   0  0  0  0  0  0  0  0  0  0  0  0
  147.8777  138.0486  185.0531 N   0  0  0  0  0  0  0  0  0  0  0  0
  147.0185  139.2223  184.8475 C   0  0  0  0  0  0  0  0  0  0  0  0
  147.6836  137.3585  186.1664 C   0  0  0  0  0  0  0  0  0  0  0  0
  146.8154  137.4926  187.2146 N   0  0  0  0  0  0  0  0  0  0  0  0
  147.0716  136.4875  188.0662 C   0  0  0  0  0  0  0  0  0  0  0  0
  148.0753  135.7186  187.5927 N   0  0  0  0  0  0  0  0  0  0  0  0
  148.4668  136.2317  186.4285 C   0  0  0  0  0  0  0  0  0  0  0  0
  149.4081  135.9198  185.4741 C   0  0  0  0  0  0  0  0  0  0  0  0
  150.1249  134.9336  185.6538 O   0  0  0  0  0  0  0  0  0  0  0  0
  150.5887  136.2915  183.3455 C   0  0  0  0  0  0  0  0  0  0  0  0
  154.6451  138.7492  185.1684 C   0  0  0  0  0  0  0  0  0  0  0  0
  153.5438  138.2448  184.2960 C   0  0  0  0  0  0  0  0  0  0  0  0
  152.5542  137.3219  184.6001 C   0  0  0  0  0  0  0  0  0  0  0  0
  151.7619  137.1656  183.4939 C   0  0  0  0  0  0  0  0  0  0  0  0
  152.2934  137.9978  182.5503 N   0  0  0  0  0  0  0  0  0  0  0  0
  153.3285  138.6080  183.0542 O   0  0  0  0  0  0  0  0  0  0  0  0
  148.5998  134.5994  188.2774 C   0  0  0  0  0  0  0  0  0  0  0  0
  149.7943  134.9711  189.1327 C   0  0  0  0  0  0  0  0  0  0  0  0
  149.5313  135.1279  190.3425 O   0  0  0  0  0  0  0  0  0  0  0  0
  151.0917  135.1310  188.6350 N   0  0  0  0  0  0  0  0  0  0  0  0
  151.1576  134.9582  187.5673 H   0  0  0  0  0  0  0  0  0  0  0  0
  152.2746  135.4760  189.3170 C   0  0  0  0  0  0  0  0  0  0  0  0
  152.8697  134.7031  190.2686 C   0  0  0  0  0  0  0  0  0  0  0  0
  154.0434  135.1719  190.8772 C   0  0  0  0  0  0  0  0  0  0  0  0
  154.5807  136.3692  190.5308 C   0  0  0  0  0  0  0  0  0  0  0  0
  156.1699  137.0811  191.3062 Br  0  0  0  0  0  0  0  0  0  0  0  0
  153.9402  137.1176  189.5594 C   0  0  0  0  0  0  0  0  0  0  0  0
  152.8341  136.6726  188.9876 N   0  0  0  0  0  0  0  0  0  0  0  0
  154.4837  138.4443  189.1402 C   0  0  0  0  0  0  0  0  0  0  0  0
  153.5451  139.0579  188.3226 F   0  0  0  0  0  0  0  0  0  0  0  0
  155.6819  138.2509  188.5058 F   0  0  0  0  0  0  0  0  0  0  0  0
  154.6833  139.2672  190.2112 F   0  0  0  0  0  0  0  0  0  0  0  0
 14 15  1  0  0  0
 15 16  2  0  0  0
 16 17  1  0  0  0
 17 13  1  0  0  0
 13  1  1  0  0  0
  1  2  1  0  0  0
  2  3  2  0  0  0
  2  4  1  0  0  0
  4  5  1  0  0  0
  4  6  1  0  0  0
  6  7  1  0  0  0
  7  8  2  0  0  0
  8  9  1  0  0  0
  9 20  1  0  0  0
 20 21  1  0  0  0
 21 22  2  0  0  0
 21 23  1  0  0  0
 23 25  1  0  0  0
 25 26  2  0  0  0
 26 27  1  0  0  0
 27 28  2  0  0  0
 28 29  1  0  0  0
 28 30  1  0  0  0
 30 31  2  0  0  0
 30 32  1  0  0  0
 32 33  1  0  0  0
 32 34  1  0  0  0
 32 35  1  0  0  0
  9 10  1  0  0  0
 10 11  1  0  0  0
 11 12  2  0  0  0
 17 18  2  0  0  0
 18 19  1  0  0  0
 19 15  1  0  0  0
 11  1  1  0  0  0
 10  6  2  0  0  0
 31 25  1  0  0  0
 23 24  1  0  0  0
M  END
> <minimizedAffinity>
-6.16776

> <CNNscore>
0.4329764247

> <CNNaffinity>
6.1106081009

> <CNN_VS>
2.6457493305

> <CNNaffinity_variance>
0.0459195897

$$$$
[H]c1c(C([H])([H])n2c(=O)c3c(nc([H])n3C([H])([H])C(=O)N([H])c3nc(C(F)(F)F)c(Br)c([H])c3[H])n(C([H])([H])[H])c2=O)noc1C([H])([H])[H]


 35 38  0  0  0  0  0  0  0  0999 V2000
  154.3287  136.7260  189.4797 N   0  0  0  0  0  0  0  0  0  0  0  0
  154.8928  135.4943  189.4792 C   0  0  0  0  0  0  0  0  0  0  0  0
  155.2467  134.9241  190.5542 O   0  0  0  0  0  0  0  0  0  0  0  0
  155.0874  134.8492  188.3136 N   0  0  0  0  0  0  0  0  0  0  0  0
  155.6995  133.5139  188.2926 C   0  0  0  0  0  0  0  0  0  0  0  0
  154.7495  135.3658  187.1422 C   0  0  0  0  0  0  0  0  0  0  0  0
  154.8372  134.9111  185.8553 N   0  0  0  0  0  0  0  0  0  0  0  0
  154.3265  135.8690  185.0661 C   0  0  0  0  0  0  0  0  0  0  0  0
  153.9170  136.9184  185.8103 N   0  0  0  0  0  0  0  0  0  0  0  0
  154.1648  136.6335  187.0868 C   0  0  0  0  0  0  0  0  0  0  0  0
  153.9807  137.2630  188.2968 C   0  0  0  0  0  0  0  0  0  0  0  0
  153.4664  138.3828  188.3061 O   0  0  0  0  0  0  0  0  0  0  0  0
  154.1284  137.3972  190.7510 C   0  0  0  0  0  0  0  0  0  0  0  0
  150.7893  135.6567  194.1626 C   0  0  0  0  0  0  0  0  0  0  0  0
  151.4537  136.1092  192.9047 C   0  0  0  0  0  0  0  0  0  0  0  0
  152.7488  136.5739  192.7303 C   0  0  0  0  0  0  0  0  0  0  0  0
  152.9197  136.8738  191.4050 C   0  0  0  0  0  0  0  0  0  0  0  0
  151.7236  136.5829  190.8132 N   0  0  0  0  0  0  0  0  0  0  0  0
  150.8965  136.1411  191.7178 O   0  0  0  0  0  0  0  0  0  0  0  0
  153.3638  138.1001  185.2679 C   0  0  0  0  0  0  0  0  0  0  0  0
  154.4375  139.0606  184.7979 C   0  0  0  0  0  0  0  0  0  0  0  0
  155.4874  139.0278  185.4718 O   0  0  0  0  0  0  0  0  0  0  0  0
  154.2912  139.9214  183.7051 N   0  0  0  0  0  0  0  0  0  0  0  0
  153.3253  139.8294  183.2227 H   0  0  0  0  0  0  0  0  0  0  0  0
  155.2019  140.8558  183.1750 C   0  0  0  0  0  0  0  0  0  0  0  0
  154.9991  142.2032  183.1522 C   0  0  0  0  0  0  0  0  0  0  0  0
  155.9868  143.0216  182.5845 C   0  0  0  0  0  0  0  0  0  0  0  0
  157.1231  142.4897  182.0666 C   0  0  0  0  0  0  0  0  0  0  0  0
  158.5141  143.5270  181.2772 Br  0  0  0  0  0  0  0  0  0  0  0  0
  157.2834  141.1164  182.1132 C   0  0  0  0  0  0  0  0  0  0  0  0
  156.3503  140.3479  182.6492 N   0  0  0  0  0  0  0  0  0  0  0  0
  158.5117  140.4748  181.5556 C   0  0  0  0  0  0  0  0  0  0  0  0
  159.6109  140.9811  182.2349 F   0  0  0  0  0  0  0  0  0  0  0  0
  158.5689  140.7242  180.2102 F   0  0  0  0  0  0  0  0  0  0  0  0
  158.5060  139.1235  181.7505 F   0  0  0  0  0  0  0  0  0  0  0  0
 14 15  1  0  0  0
 15 16  2  0  0  0
 16 17  1  0  0  0
 17 13  1  0  0  0
 13  1  1  0  0  0
  1  2  1  0  0  0
  2  3  2  0  0  0
  2  4  1  0  0  0
  4  5  1  0  0  0
  4  6  1  0  0  0
  6  7  1  0  0  0
  7  8  2  0  0  0
  8  9  1  0  0  0
  9 20  1  0  0  0
 20 21  1  0  0  0
 21 22  2  0  0  0
 21 23  1  0  0  0
 23 25  1  0  0  0
 25 26  2  0  0  0
 26 27  1  0  0  0
 27 28  2  0  0  0
 28 29  1  0  0  0
 28 30  1  0  0  0
 30 31  2  0  0  0
 30 32  1  0  0  0
 32 33  1  0  0  0
 32 34  1  0  0  0
 32 35  1  0  0  0
  9 10  1  0  0  0
 10 11  1  0  0  0
 11 12  2  0  0  0
 17 18  2  0  0  0
 18 19  1  0  0  0
 19 15  1  0  0  0
 11  1  1  0  0  0
 10  6  2  0  0  0
 31 25  1  0  0  0
 23 24  1  0  0  0
M  END
> <minimizedAffinity>
-7.74071

> <CNNscore>
0.4040625393

> <CNNaffinity>
6.0947499275

> <CNN_VS>
2.4626600742

> <CNNaffinity_variance>
0.0650256425

$$$$
[H]c1c([H])c([H])c2c(c1[H])C(=O)C1=C2N([H])C(=S)N([H])C1([H])c1c([H])c([H])c([H])c(OC([H])([H])C([H])([H])C([H])([H])OC([H])([H])[H])c1[H]


 29 32  0  0  0  0  0  0  0  0999 V2000
  157.4551  140.7667  182.2748 C   0  0  0  0  0  0  0  0  0  0  0  0
  157.7611  141.2651  180.9749 N   0  0  0  0  0  0  0  0  0  0  0  0
  158.7180  142.2769  180.7531 C   0  0  0  0  0  0  0  0  0  0  0  0
  158.9922  142.8527  179.2277 S   0  0  0  0  0  0  0  0  0  0  0  0
  159.4434  142.7974  181.8430 N   0  0  0  0  0  0  0  0  0  0  0  0
  159.1502  142.2553  183.1469 C   0  0  0  0  0  0  0  0  0  0  0  0
  158.2526  141.3313  183.3488 C   0  0  0  0  0  0  0  0  0  0  0  0
  158.2756  141.0333  184.7999 C   0  0  0  0  0  0  0  0  0  0  0  0
  157.5485  140.1918  185.3595 O   0  0  0  0  0  0  0  0  0  0  0  0
  159.2669  141.8678  185.4370 C   0  0  0  0  0  0  0  0  0  0  0  0
  159.7074  142.0128  186.7494 C   0  0  0  0  0  0  0  0  0  0  0  0
  160.7030  142.9372  186.9967 C   0  0  0  0  0  0  0  0  0  0  0  0
  161.2607  143.7025  186.0072 C   0  0  0  0  0  0  0  0  0  0  0  0
  160.8107  143.5424  184.7211 C   0  0  0  0  0  0  0  0  0  0  0  0
  159.8073  142.6200  184.4292 C   0  0  0  0  0  0  0  0  0  0  0  0
  157.2594  140.8740  180.1118 H   0  0  0  0  0  0  0  0  0  0  0  0
  160.1669  143.5506  181.7015 H   0  0  0  0  0  0  0  0  0  0  0  0
  154.0964  139.5946  183.4770 C   0  0  0  0  0  0  0  0  0  0  0  0
  153.3124  140.6934  183.0613 C   0  0  0  0  0  0  0  0  0  0  0  0
  153.8465  141.7662  182.4110 C   0  0  0  0  0  0  0  0  0  0  0  0
  155.2068  141.8234  182.1260 C   0  0  0  0  0  0  0  0  0  0  0  0
  155.9814  140.7815  182.5158 C   0  0  0  0  0  0  0  0  0  0  0  0
  155.4252  139.7107  183.1693 C   0  0  0  0  0  0  0  0  0  0  0  0
  153.4804  138.5604  184.1254 O   0  0  0  0  0  0  0  0  0  0  0  0
  153.9957  137.7144  185.0834 C   0  0  0  0  0  0  0  0  0  0  0  0
  154.1521  138.2510  186.4663 C   0  0  0  0  0  0  0  0  0  0  0  0
  155.5169  137.8302  187.0427 C   0  0  0  0  0  0  0  0  0  0  0  0
  154.2308  138.3835  188.8260 C   0  0  0  0  0  0  0  0  0  0  0  0
  155.5247  138.1363  188.4012 O   0  0  0  0  0  0  0  0  0  0  0  0
 28 29  1  0  0  0
 29 27  1  0  0  0
 27 26  1  0  0  0
 26 25  1  0  0  0
 25 24  1  0  0  0
 24 18  1  0  0  0
 18 19  2  0  0  0
 19 20  1  0  0  0
 20 21  2  0  0  0
 21 22  1  0  0  0
 22 23  2  0  0  0
 22  1  1  0  0  0
  1  2  1  0  0  0
  2  3  1  0  0  0
  3  4  2  0  0  0
  3  5  1  0  0  0
  5  6  1  0  0  0
  6  7  2  0  0  0
  7  8  1  0  0  0
  8  9  2  0  0  0
  8 10  1  0  0  0
 10 11  2  0  0  0
 11 12  1  0  0  0
 12 13  2  0  0  0
 13 14  1  0  0  0
 14 15  2  0  0  0
 23 18  1  0  0  0
  7  1  1  0  0  0
 15 10  1  0  0  0
 15  6  1  0  0  0
  2 16  1  0  0  0
  5 17  1  0  0  0
M  END
> <minimizedAffinity>
-8.17984

> <CNNscore>
0.5588782430

> <CNNaffinity>
6.5276579857

> <CNN_VS>
3.6481659412

> <CNNaffinity_variance>
0.1819876432

$$$$
[H]c1c([H])c([H])c2c(c1[H])C(=O)C1=C2N([H])C(=S)N([H])C1([H])c1c([H])c([H])c([H])c(OC([H])([H])C([H])([H])C([H])([H])OC([H])([H])[H])c1[H]


 29 32  0  0  0  0  0  0  0  0999 V2000
  152.4767  137.7341  183.1503 C   0  0  0  0  0  0  0  0  0  0  0  0
  151.4502  137.8231  182.1652 N   0  0  0  0  0  0  0  0  0  0  0  0
  151.2786  138.9570  181.3446 C   0  0  0  0  0  0  0  0  0  0  0  0
  150.0362  139.0245  180.2558 S   0  0  0  0  0  0  0  0  0  0  0  0
  152.1754  140.0378  181.4572 N   0  0  0  0  0  0  0  0  0  0  0  0
  153.2322  139.9164  182.4311 C   0  0  0  0  0  0  0  0  0  0  0  0
  153.3767  138.8726  183.1991 C   0  0  0  0  0  0  0  0  0  0  0  0
  154.5794  139.1235  184.0271 C   0  0  0  0  0  0  0  0  0  0  0  0
  155.0272  138.3341  184.8793 O   0  0  0  0  0  0  0  0  0  0  0  0
  155.1304  140.4122  183.6799 C   0  0  0  0  0  0  0  0  0  0  0  0
  156.2271  141.1447  184.1249 C   0  0  0  0  0  0  0  0  0  0  0  0
  156.4554  142.3783  183.5477 C   0  0  0  0  0  0  0  0  0  0  0  0
  155.6497  142.8941  182.5676 C   0  0  0  0  0  0  0  0  0  0  0  0
  154.5745  142.1543  182.1448 C   0  0  0  0  0  0  0  0  0  0  0  0
  154.3091  140.9043  182.7017 C   0  0  0  0  0  0  0  0  0  0  0  0
  150.7659  137.0106  182.0196 H   0  0  0  0  0  0  0  0  0  0  0  0
  152.0703  140.8938  180.8516 H   0  0  0  0  0  0  0  0  0  0  0  0
  152.2899  137.2187  186.8650 C   0  0  0  0  0  0  0  0  0  0  0  0
  150.9911  136.6705  186.9512 C   0  0  0  0  0  0  0  0  0  0  0  0
  150.2104  136.4676  185.8519 C   0  0  0  0  0  0  0  0  0  0  0  0
  150.6682  136.7977  184.5805 C   0  0  0  0  0  0  0  0  0  0  0  0
  151.9113  137.3269  184.4710 C   0  0  0  0  0  0  0  0  0  0  0  0
  152.6820  137.5234  185.5893 C   0  0  0  0  0  0  0  0  0  0  0  0
  153.0045  137.3906  188.0178 O   0  0  0  0  0  0  0  0  0  0  0  0
  153.7820  138.4627  188.3984 C   0  0  0  0  0  0  0  0  0  0  0  0
  155.0622  138.1706  189.1060 C   0  0  0  0  0  0  0  0  0  0  0  0
  154.9840  138.6672  190.5618 C   0  0  0  0  0  0  0  0  0  0  0  0
  156.4940  136.9761  190.5714 C   0  0  0  0  0  0  0  0  0  0  0  0
  156.0135  138.0638  191.2796 O   0  0  0  0  0  0  0  0  0  0  0  0
 28 29  1  0  0  0
 29 27  1  0  0  0
 27 26  1  0  0  0
 26 25  1  0  0  0
 25 24  1  0  0  0
 24 18  1  0  0  0
 18 19  2  0  0  0
 19 20  1  0  0  0
 20 21  2  0  0  0
 21 22  1  0  0  0
 22 23  2  0  0  0
 22  1  1  0  0  0
  1  2  1  0  0  0
  2  3  1  0  0  0
  3  4  2  0  0  0
  3  5  1  0  0  0
  5  6  1  0  0  0
  6  7  2  0  0  0
  7  8  1  0  0  0
  8  9  2  0  0  0
  8 10  1  0  0  0
 10 11  2  0  0  0
 11 12  1  0  0  0
 12 13  2  0  0  0
 13 14  1  0  0  0
 14 15  2  0  0  0
 23 18  1  0  0  0
  7  1  1  0  0  0
 15 10  1  0  0  0
 15  6  1  0  0  0
  2 16  1  0  0  0
  5 17  1  0  0  0
M  END
> <minimizedAffinity>
-6.75456

> <CNNscore>
0.5290617347

> <CNNaffinity>
5.4911017418

> <CNN_VS>
2.9051318169

> <CNNaffinity_variance>
0.0039579328

$$$$
[H]c1c([H])c([H])c2c(c1[H])C(=O)C1=C2N([H])C(=S)N([H])C1([H])c1c([H])c([H])c([H])c(OC([H])([H])C([H])([H])C([H])([H])OC([H])([H])[H])c1[H]


 29 32  0  0  0  0  0  0  0  0999 V2000
  157.4586  141.5885  182.0972 C   0  0  0  0  0  0  0  0  0  0  0  0
  157.9188  142.1204  180.8573 N   0  0  0  0  0  0  0  0  0  0  0  0
  159.0546  142.9504  180.7596 C   0  0  0  0  0  0  0  0  0  0  0  0
  159.5097  143.5816  179.3008 S   0  0  0  0  0  0  0  0  0  0  0  0
  159.8040  143.2409  181.9168 N   0  0  0  0  0  0  0  0  0  0  0  0
  159.3482  142.6634  183.1573 C   0  0  0  0  0  0  0  0  0  0  0  0
  158.2877  141.9099  183.2451 C   0  0  0  0  0  0  0  0  0  0  0  0
  158.1790  141.5013  184.6650 C   0  0  0  0  0  0  0  0  0  0  0  0
  157.2821  140.7691  185.1223 O   0  0  0  0  0  0  0  0  0  0  0  0
  159.2708  142.0847  185.4084 C   0  0  0  0  0  0  0  0  0  0  0  0
  159.6602  142.0431  186.7440 C   0  0  0  0  0  0  0  0  0  0  0  0
  160.7931  142.7441  187.1073 C   0  0  0  0  0  0  0  0  0  0  0  0
  161.5327  143.4664  186.2090 C   0  0  0  0  0  0  0  0  0  0  0  0
  161.1298  143.4931  184.8979 C   0  0  0  0  0  0  0  0  0  0  0  0
  159.9919  142.7990  184.4901 C   0  0  0  0  0  0  0  0  0  0  0  0
  157.4006  141.8976  179.9455 H   0  0  0  0  0  0  0  0  0  0  0  0
  160.6592  143.8548  181.8680 H   0  0  0  0  0  0  0  0  0  0  0  0
  153.7853  140.8824  182.4267 C   0  0  0  0  0  0  0  0  0  0  0  0
  153.3223  142.1980  182.6494 C   0  0  0  0  0  0  0  0  0  0  0  0
  154.1625  143.2713  182.6832 C   0  0  0  0  0  0  0  0  0  0  0  0
  155.5318  143.1119  182.4970 C   0  0  0  0  0  0  0  0  0  0  0  0
  156.0017  141.8587  182.2827 C   0  0  0  0  0  0  0  0  0  0  0  0
  155.1401  140.7911  182.2522 C   0  0  0  0  0  0  0  0  0  0  0  0
  152.8745  139.8629  182.4105 O   0  0  0  0  0  0  0  0  0  0  0  0
  151.8441  139.6414  181.5228 C   0  0  0  0  0  0  0  0  0  0  0  0
  152.1685  139.6712  180.0671 C   0  0  0  0  0  0  0  0  0  0  0  0
  150.8975  139.9715  179.2508 C   0  0  0  0  0  0  0  0  0  0  0  0
  149.2214  138.4571  179.0573 C   0  0  0  0  0  0  0  0  0  0  0  0
  149.8174  139.3791  179.9001 O   0  0  0  0  0  0  0  0  0  0  0  0
 28 29  1  0  0  0
 29 27  1  0  0  0
 27 26  1  0  0  0
 26 25  1  0  0  0
 25 24  1  0  0  0
 24 18  1  0  0  0
 18 19  2  0  0  0
 19 20  1  0  0  0
 20 21  2  0  0  0
 21 22  1  0  0  0
 22 23  2  0  0  0
 22  1  1  0  0  0
  1  2  1  0  0  0
  2  3  1  0  0  0
  3  4  2  0  0  0
  3  5  1  0  0  0
  5  6  1  0  0  0
  6  7  2  0  0  0
  7  8  1  0  0  0
  8  9  2  0  0  0
  8 10  1  0  0  0
 10 11  2  0  0  0
 11 12  1  0  0  0
 12 13  2  0  0  0
 13 14  1  0  0  0
 14 15  2  0  0  0
 23 18  1  0  0  0
  7  1  1  0  0  0
 15 10  1  0  0  0
 15  6  1  0  0  0
  2 16  1  0  0  0
  5 17  1  0  0  0
M  END
> <minimizedAffinity>
-8.65269

> <CNNscore>
0.4924041629

> <CNNaffinity>
6.4759407043

> <CNN_VS>
3.1887800694

> <CNNaffinity_variance>
0.1331957579

$$$$
[H]c1c([H])c([H])c2c(c1[H])C(=O)C1=C2N([H])C(=S)N([H])C1([H])c1c([H])c([H])c([H])c(OC([H])([H])C([H])([H])C([H])([H])OC([H])([H])[H])c1[H]


 29 32  0  0  0  0  0  0  0  0999 V2000
  152.7992  139.3523  181.4812 C   0  0  0  0  0  0  0  0  0  0  0  0
  153.1600  140.7310  181.5097 N   0  0  0  0  0  0  0  0  0  0  0  0
  153.7882  141.3310  182.6205 C   0  0  0  0  0  0  0  0  0  0  0  0
  154.1348  142.9476  182.6167 S   0  0  0  0  0  0  0  0  0  0  0  0
  154.1211  140.5423  183.7396 N   0  0  0  0  0  0  0  0  0  0  0  0
  153.7849  139.1411  183.6798 C   0  0  0  0  0  0  0  0  0  0  0  0
  153.1891  138.5945  182.6569 C   0  0  0  0  0  0  0  0  0  0  0  0
  153.0495  137.1537  182.9725 C   0  0  0  0  0  0  0  0  0  0  0  0
  152.5265  136.3130  182.2179 O   0  0  0  0  0  0  0  0  0  0  0  0
  153.6149  136.8998  184.2767 C   0  0  0  0  0  0  0  0  0  0  0  0
  153.7563  135.7595  185.0621 C   0  0  0  0  0  0  0  0  0  0  0  0
  154.3659  135.8965  186.2936 C   0  0  0  0  0  0  0  0  0  0  0  0
  154.8278  137.0994  186.7577 C   0  0  0  0  0  0  0  0  0  0  0  0
  154.6776  138.2099  185.9663 C   0  0  0  0  0  0  0  0  0  0  0  0
  154.0677  138.1144  184.7165 C   0  0  0  0  0  0  0  0  0  0  0  0
  152.9581  141.3623  180.6669 H   0  0  0  0  0  0  0  0  0  0  0  0
  154.5951  140.9672  184.5795 H   0  0  0  0  0  0  0  0  0  0  0  0
  149.0712  139.0763  181.8362 C   0  0  0  0  0  0  0  0  0  0  0  0
  148.7253  138.9339  180.4743 C   0  0  0  0  0  0  0  0  0  0  0  0
  149.6601  138.9190  179.4818 C   0  0  0  0  0  0  0  0  0  0  0  0
  151.0140  139.0458  179.7746 C   0  0  0  0  0  0  0  0  0  0  0  0
  151.3721  139.1852  181.0744 C   0  0  0  0  0  0  0  0  0  0  0  0
  150.4164  139.1978  182.0591 C   0  0  0  0  0  0  0  0  0  0  0  0
  148.0702  139.0832  182.7675 O   0  0  0  0  0  0  0  0  0  0  0  0
  147.8934  138.2482  183.8493 C   0  0  0  0  0  0  0  0  0  0  0  0
  147.4196  138.8607  185.1241 C   0  0  0  0  0  0  0  0  0  0  0  0
  148.1456  138.2158  186.3196 C   0  0  0  0  0  0  0  0  0  0  0  0
  147.6263  136.7164  187.9389 C   0  0  0  0  0  0  0  0  0  0  0  0
  147.1855  137.8352  187.2535 O   0  0  0  0  0  0  0  0  0  0  0  0
 28 29  1  0  0  0
 29 27  1  0  0  0
 27 26  1  0  0  0
 26 25  1  0  0  0
 25 24  1  0  0  0
 24 18  1  0  0  0
 18 19  2  0  0  0
 19 20  1  0  0  0
 20 21  2  0  0  0
 21 22  1  0  0  0
 22 23  2  0  0  0
 22  1  1  0  0  0
  1  2  1  0  0  0
  2  3  1  0  0  0
  3  4  2  0  0  0
  3  5  1  0  0  0
  5  6  1  0  0  0
  6  7  2  0  0  0
  7  8  1  0  0  0
  8  9  2  0  0  0
  8 10  1  0  0  0
 10 11  2  0  0  0
 11 12  1  0  0  0
 12 13  2  0  0  0
 13 14  1  0  0  0
 14 15  2  0  0  0
 23 18  1  0  0  0
  7  1  1  0  0  0
 15 10  1  0  0  0
 15  6  1  0  0  0
  2 16  1  0  0  0
  5 17  1  0  0  0
M  END
> <minimizedAffinity>
-6.47649

> <CNNscore>
0.4846055806

> <CNNaffinity>
5.4071125984

> <CNN_VS>
2.6203169823

> <CNNaffinity_variance>
0.0354974158

$$$$
[H]c1c([H])c([H])c2c(c1[H])C(=O)C1=C2N([H])C(=S)N([H])C1([H])c1c([H])c([H])c([H])c(OC([H])([H])C([H])([H])C([H])([H])OC([H])([H])[H])c1[H]


 29 32  0  0  0  0  0  0  0  0999 V2000
  155.9232  140.1730  183.2281 C   0  0  0  0  0  0  0  0  0  0  0  0
  154.8772  141.0917  182.9216 N   0  0  0  0  0  0  0  0  0  0  0  0
  155.0488  142.4899  182.9860 C   0  0  0  0  0  0  0  0  0  0  0  0
  153.7831  143.5060  182.6707 S   0  0  0  0  0  0  0  0  0  0  0  0
  156.3103  143.0199  183.3218 N   0  0  0  0  0  0  0  0  0  0  0  0
  157.3687  142.0780  183.5909 C   0  0  0  0  0  0  0  0  0  0  0  0
  157.2006  140.7857  183.5462 C   0  0  0  0  0  0  0  0  0  0  0  0
  158.5172  140.1799  183.8535 C   0  0  0  0  0  0  0  0  0  0  0  0
  158.7384  138.9556  183.8965 O   0  0  0  0  0  0  0  0  0  0  0  0
  159.4777  141.2326  184.0867 C   0  0  0  0  0  0  0  0  0  0  0  0
  160.8319  141.2499  184.4079 C   0  0  0  0  0  0  0  0  0  0  0  0
  161.4427  142.4791  184.5593 C   0  0  0  0  0  0  0  0  0  0  0  0
  160.7685  143.6613  184.4057 C   0  0  0  0  0  0  0  0  0  0  0  0
  159.4343  143.6197  184.0892 C   0  0  0  0  0  0  0  0  0  0  0  0
  158.7802  142.3995  183.9275 C   0  0  0  0  0  0  0  0  0  0  0  0
  153.9101  140.7345  182.6272 H   0  0  0  0  0  0  0  0  0  0  0  0
  156.4640  144.0614  183.3716 H   0  0  0  0  0  0  0  0  0  0  0  0
  155.6764  138.2991  186.4728 C   0  0  0  0  0  0  0  0  0  0  0  0
  154.6775  137.3658  186.1183 C   0  0  0  0  0  0  0  0  0  0  0  0
  154.1123  137.3377  184.8778 C   0  0  0  0  0  0  0  0  0  0  0  0
  154.5026  138.2415  183.8950 C   0  0  0  0  0  0  0  0  0  0  0  0
  155.4590  139.1487  184.2107 C   0  0  0  0  0  0  0  0  0  0  0  0
  156.0158  139.1610  185.4648 C   0  0  0  0  0  0  0  0  0  0  0  0
  156.1882  138.2590  187.7399 O   0  0  0  0  0  0  0  0  0  0  0  0
  156.0755  137.2617  188.6841 C   0  0  0  0  0  0  0  0  0  0  0  0
  155.7102  137.6641  190.0732 C   0  0  0  0  0  0  0  0  0  0  0  0
  154.2018  137.4534  190.3026 C   0  0  0  0  0  0  0  0  0  0  0  0
  152.7758  136.8898  191.9727 C   0  0  0  0  0  0  0  0  0  0  0  0
  153.9560  137.5466  191.6701 O   0  0  0  0  0  0  0  0  0  0  0  0
 28 29  1  0  0  0
 29 27  1  0  0  0
 27 26  1  0  0  0
 26 25  1  0  0  0
 25 24  1  0  0  0
 24 18  1  0  0  0
 18 19  2  0  0  0
 19 20  1  0  0  0
 20 21  2  0  0  0
 21 22  1  0  0  0
 22 23  2  0  0  0
 22  1  1  0  0  0
  1  2  1  0  0  0
  2  3  1  0  0  0
  3  4  2  0  0  0
  3  5  1  0  0  0
  5  6  1  0  0  0
  6  7  2  0  0  0
  7  8  1  0  0  0
  8  9  2  0  0  0
  8 10  1  0  0  0
 10 11  2  0  0  0
 11 12  1  0  0  0
 12 13  2  0  0  0
 13 14  1  0  0  0
 14 15  2  0  0  0
 23 18  1  0  0  0
  7  1  1  0  0  0
 15 10  1  0  0  0
 15  6  1  0  0  0
  2 16  1  0  0  0
  5 17  1  0  0  0
M  END
> <minimizedAffinity>
-6.64872

> <CNNscore>
0.3941270113

> <CNNaffinity>
5.9896731377

> <CNN_VS>
2.3606920242

> <CNNaffinity_variance>
0.0359425955

$$$$
[H]c1c([H])c([H])c2c(c1[H])C(=O)C1=C2N([H])C(=S)N([H])C1([H])c1c([H])c([H])c([H])c(OC([H])([H])C([H])([H])C([H])([H])OC([H])([H])[H])c1[H]


 29 32  0  0  0  0  0  0  0  0999 V2000
  153.0117  139.4903  181.5405 C   0  0  0  0  0  0  0  0  0  0  0  0
  153.3671  140.8705  181.5679 N   0  0  0  0  0  0  0  0  0  0  0  0
  153.9330  141.4887  182.7020 C   0  0  0  0  0  0  0  0  0  0  0  0
  154.2754  143.1062  182.6928 S   0  0  0  0  0  0  0  0  0  0  0  0
  154.2069  140.7177  183.8489 N   0  0  0  0  0  0  0  0  0  0  0  0
  153.8779  139.3147  183.7919 C   0  0  0  0  0  0  0  0  0  0  0  0
  153.3394  138.7512  182.7466 C   0  0  0  0  0  0  0  0  0  0  0  0
  153.1865  137.3147  183.0756 C   0  0  0  0  0  0  0  0  0  0  0  0
  152.7070  136.4613  182.3065 O   0  0  0  0  0  0  0  0  0  0  0  0
  153.6814  137.0818  184.4120 C   0  0  0  0  0  0  0  0  0  0  0  0
  153.7829  135.9536  185.2207 C   0  0  0  0  0  0  0  0  0  0  0  0
  154.3249  136.1107  186.4811 C   0  0  0  0  0  0  0  0  0  0  0  0
  154.7582  137.3217  186.9515 C   0  0  0  0  0  0  0  0  0  0  0  0
  154.6482  138.4200  186.1368 C   0  0  0  0  0  0  0  0  0  0  0  0
  154.1069  138.3042  184.8575 C   0  0  0  0  0  0  0  0  0  0  0  0
  153.2094  141.4887  180.7062 H   0  0  0  0  0  0  0  0  0  0  0  0
  154.6339  141.1563  184.7068 H   0  0  0  0  0  0  0  0  0  0  0  0
  149.2854  139.0588  181.7101 C   0  0  0  0  0  0  0  0  0  0  0  0
  148.9992  139.0277  180.3274 C   0  0  0  0  0  0  0  0  0  0  0  0
  149.9724  139.1334  179.3783 C   0  0  0  0  0  0  0  0  0  0  0  0
  151.3081  139.2787  179.7387 C   0  0  0  0  0  0  0  0  0  0  0  0
  151.6090  139.3127  181.0600 C   0  0  0  0  0  0  0  0  0  0  0  0
  150.6153  139.2048  182.0002 C   0  0  0  0  0  0  0  0  0  0  0  0
  148.2488  138.9484  182.5947 O   0  0  0  0  0  0  0  0  0  0  0  0
  147.8806  137.8635  183.3603 C   0  0  0  0  0  0  0  0  0  0  0  0
  147.4584  136.6247  182.6446 C   0  0  0  0  0  0  0  0  0  0  0  0
  148.3949  135.4589  183.0135 C   0  0  0  0  0  0  0  0  0  0  0  0
  149.2514  135.3628  180.9165 C   0  0  0  0  0  0  0  0  0  0  0  0
  149.5534  135.5777  182.2501 O   0  0  0  0  0  0  0  0  0  0  0  0
 28 29  1  0  0  0
 29 27  1  0  0  0
 27 26  1  0  0  0
 26 25  1  0  0  0
 25 24  1  0  0  0
 24 18  1  0  0  0
 18 19  2  0  0  0
 19 20  1  0  0  0
 20 21  2  0  0  0
 21 22  1  0  0  0
 22 23  2  0  0  0
 22  1  1  0  0  0
  1  2  1  0  0  0
  2  3  1  0  0  0
  3  4  2  0  0  0
  3  5  1  0  0  0
  5  6  1  0  0  0
  6  7  2  0  0  0
  7  8  1  0  0  0
  8  9  2  0  0  0
  8 10  1  0  0  0
 10 11  2  0  0  0
 11 12  1  0  0  0
 12 13  2  0  0  0
 13 14  1  0  0  0
 14 15  2  0  0  0
 23 18  1  0  0  0
  7  1  1  0  0  0
 15 10  1  0  0  0
 15  6  1  0  0  0
  2 16  1  0  0  0
  5 17  1  0  0  0
M  END
> <minimizedAffinity>
-5.74523

> <CNNscore>
0.3639782071

> <CNNaffinity>
5.3208742142

> <CNN_VS>
1.9366822243

> <CNNaffinity_variance>
0.1475876123

$$$$
[H]c1c([H])c([H])c2c(c1[H])C(=O)C1=C2N([H])C(=S)N([H])C1([H])c1c([H])c([H])c([H])c(OC([H])([H])C([H])([H])C([H])([H])OC([H])([H])[H])c1[H]


 29 32  0  0  0  0  0  0  0  0999 V2000
  157.5171  140.7709  182.3036 C   0  0  0  0  0  0  0  0  0  0  0  0
  157.8200  141.2772  181.0060 N   0  0  0  0  0  0  0  0  0  0  0  0
  158.7650  142.3012  180.7896 C   0  0  0  0  0  0  0  0  0  0  0  0
  159.0357  142.8852  179.2667 S   0  0  0  0  0  0  0  0  0  0  0  0
  159.4814  142.8272  181.8828 N   0  0  0  0  0  0  0  0  0  0  0  0
  159.1919  142.2774  183.1843 C   0  0  0  0  0  0  0  0  0  0  0  0
  158.3052  141.3419  183.3813 C   0  0  0  0  0  0  0  0  0  0  0  0
  158.3285  141.0396  184.8314 C   0  0  0  0  0  0  0  0  0  0  0  0
  157.6105  140.1875  185.3867 O   0  0  0  0  0  0  0  0  0  0  0  0
  159.3081  141.8840  185.4735 C   0  0  0  0  0  0  0  0  0  0  0  0
  159.7437  142.0303  186.7873 C   0  0  0  0  0  0  0  0  0  0  0  0
  160.7274  142.9660  187.0398 C   0  0  0  0  0  0  0  0  0  0  0  0
  161.2779  143.7412  186.0541 C   0  0  0  0  0  0  0  0  0  0  0  0
  160.8329  143.5797  184.7665 C   0  0  0  0  0  0  0  0  0  0  0  0
  159.8415  142.6460  184.4693 C   0  0  0  0  0  0  0  0  0  0  0  0
  157.3251  140.8827  180.1405 H   0  0  0  0  0  0  0  0  0  0  0  0
  160.1960  143.5896  181.7454 H   0  0  0  0  0  0  0  0  0  0  0  0
  154.1677  139.5458  183.4787 C   0  0  0  0  0  0  0  0  0  0  0  0
  153.3736  140.6431  183.0787 C   0  0  0  0  0  0  0  0  0  0  0  0
  153.8983  141.7316  182.4470 C   0  0  0  0  0  0  0  0  0  0  0  0
  155.2586  141.8071  182.1662 C   0  0  0  0  0  0  0  0  0  0  0  0
  156.0428  140.7670  182.5412 C   0  0  0  0  0  0  0  0  0  0  0  0
  155.4960  139.6803  183.1761 C   0  0  0  0  0  0  0  0  0  0  0  0
  153.5609  138.4952  184.1090 O   0  0  0  0  0  0  0  0  0  0  0  0
  152.8952  137.4243  183.5532 C   0  0  0  0  0  0  0  0  0  0  0  0
  153.5604  136.0906  183.6144 C   0  0  0  0  0  0  0  0  0  0  0  0
  152.7835  135.0752  182.7557 C   0  0  0  0  0  0  0  0  0  0  0  0
  153.8891  134.2236  180.9689 C   0  0  0  0  0  0  0  0  0  0  0  0
  153.1262  135.2857  181.4225 O   0  0  0  0  0  0  0  0  0  0  0  0
 28 29  1  0  0  0
 29 27  1  0  0  0
 27 26  1  0  0  0
 26 25  1  0  0  0
 25 24  1  0  0  0
 24 18  1  0  0  0
 18 19  2  0  0  0
 19 20  1  0  0  0
 20 21  2  0  0  0
 21 22  1  0  0  0
 22 23  2  0  0  0
 22  1  1  0  0  0
  1  2  1  0  0  0
  2  3  1  0  0  0
  3  4  2  0  0  0
  3  5  1  0  0  0
  5  6  1  0  0  0
  6  7  2  0  0  0
  7  8  1  0  0  0
  8  9  2  0  0  0
  8 10  1  0  0  0
 10 11  2  0  0  0
 11 12  1  0  0  0
 12 13  2  0  0  0
 13 14  1  0  0  0
 14 15  2  0  0  0
 23 18  1  0  0  0
  7  1  1  0  0  0
 15 10  1  0  0  0
 15  6  1  0  0  0
  2 16  1  0  0  0
  5 17  1  0  0  0
M  END
> <minimizedAffinity>
-7.77009

> <CNNscore>
0.3451327980

> <CNNaffinity>
6.2668485641

> <CNN_VS>
2.1628949642

> <CNNaffinity_variance>
0.2181073874

$$$$
[H]c1c([H])c([H])c2c(c1[H])C(=O)C1=C2N([H])C(=S)N([H])C1([H])c1c([H])c([H])c([H])c(OC([H])([H])C([H])([H])C([H])([H])OC([H])([H])[H])c1[H]


 29 32  0  0  0  0  0  0  0  0999 V2000
  157.4060  141.7155  182.0348 C   0  0  0  0  0  0  0  0  0  0  0  0
  157.8934  142.2348  180.8000 N   0  0  0  0  0  0  0  0  0  0  0  0
  159.0654  143.0139  180.7112 C   0  0  0  0  0  0  0  0  0  0  0  0
  159.5528  143.6340  179.2581 S   0  0  0  0  0  0  0  0  0  0  0  0
  159.8234  143.2626  181.8725 N   0  0  0  0  0  0  0  0  0  0  0  0
  159.3385  142.6977  183.1077 C   0  0  0  0  0  0  0  0  0  0  0  0
  158.2450  141.9918  183.1872 C   0  0  0  0  0  0  0  0  0  0  0  0
  158.1138  141.5788  184.6040 C   0  0  0  0  0  0  0  0  0  0  0  0
  157.1836  140.8843  185.0537 O   0  0  0  0  0  0  0  0  0  0  0  0
  159.2282  142.1077  185.3545 C   0  0  0  0  0  0  0  0  0  0  0  0
  159.6111  142.0396  186.6909 C   0  0  0  0  0  0  0  0  0  0  0  0
  160.7732  142.6868  187.0622 C   0  0  0  0  0  0  0  0  0  0  0  0
  161.5471  143.3815  186.1710 C   0  0  0  0  0  0  0  0  0  0  0  0
  161.1499  143.4350  184.8590 C   0  0  0  0  0  0  0  0  0  0  0  0
  159.9834  142.7953  184.4431 C   0  0  0  0  0  0  0  0  0  0  0  0
  157.3686  142.0416  179.8852 H   0  0  0  0  0  0  0  0  0  0  0  0
  160.7054  143.8381  181.8304 H   0  0  0  0  0  0  0  0  0  0  0  0
  153.6948  141.1864  182.2519 C   0  0  0  0  0  0  0  0  0  0  0  0
  153.2977  142.5043  182.5684 C   0  0  0  0  0  0  0  0  0  0  0  0
  154.1926  143.5248  182.6981 C   0  0  0  0  0  0  0  0  0  0  0  0
  155.5549  143.3062  182.5214 C   0  0  0  0  0  0  0  0  0  0  0  0
  155.9621  142.0493  182.2182 C   0  0  0  0  0  0  0  0  0  0  0  0
  155.0460  141.0355  182.0918 C   0  0  0  0  0  0  0  0  0  0  0  0
  152.7319  140.2220  182.1428 O   0  0  0  0  0  0  0  0  0  0  0  0
  152.8852  138.8542  182.0768 C   0  0  0  0  0  0  0  0  0  0  0  0
  152.5811  138.0652  183.3056 C   0  0  0  0  0  0  0  0  0  0  0  0
  153.8822  137.7630  184.0723 C   0  0  0  0  0  0  0  0  0  0  0  0
  154.9857  138.3606  185.9605 C   0  0  0  0  0  0  0  0  0  0  0  0
  154.0838  138.7826  184.9991 O   0  0  0  0  0  0  0  0  0  0  0  0
 28 29  1  0  0  0
 29 27  1  0  0  0
 27 26  1  0  0  0
 26 25  1  0  0  0
 25 24  1  0  0  0
 24 18  1  0  0  0
 18 19  2  0  0  0
 19 20  1  0  0  0
 20 21  2  0  0  0
 21 22  1  0  0  0
 22 23  2  0  0  0
 22  1  1  0  0  0
  1  2  1  0  0  0
  2  3  1  0  0  0
  3  4  2  0  0  0
  3  5  1  0  0  0
  5  6  1  0  0  0
  6  7  2  0  0  0
  7  8  1  0  0  0
  8  9  2  0  0  0
  8 10  1  0  0  0
 10 11  2  0  0  0
 11 12  1  0  0  0
 12 13  2  0  0  0
 13 14  1  0  0  0
 14 15  2  0  0  0
 23 18  1  0  0  0
  7  1  1  0  0  0
 15 10  1  0  0  0
 15  6  1  0  0  0
  2 16  1  0  0  0
  5 17  1  0  0  0
M  END
> <minimizedAffinity>
-8.00676

> <CNNscore>
0.3174270093

> <CNNaffinity>
6.3626465797

> <CNN_VS>
2.0196759701

> <CNNaffinity_variance>
0.0574082062

$$$$
[H]c1c([H])c([H])c2c(c1[H])C(=O)C1=C2N([H])C(=S)N([H])C1([H])c1c([H])c([H])c([H])c(OC([H])([H])C([H])([H])C([H])([H])OC([H])([H])[H])c1[H]


 29 32  0  0  0  0  0  0  0  0999 V2000
  153.4336  138.7828  183.6312 C   0  0  0  0  0  0  0  0  0  0  0  0
  152.8050  139.6009  182.6477 N   0  0  0  0  0  0  0  0  0  0  0  0
  152.1852  139.0693  181.4980 C   0  0  0  0  0  0  0  0  0  0  0  0
  151.5188  140.0716  180.3645 S   0  0  0  0  0  0  0  0  0  0  0  0
  152.1362  137.6727  181.3187 N   0  0  0  0  0  0  0  0  0  0  0  0
  152.7421  136.8568  182.3419 C   0  0  0  0  0  0  0  0  0  0  0  0
  153.3286  137.3539  183.3951 C   0  0  0  0  0  0  0  0  0  0  0  0
  153.7896  136.2007  184.2028 C   0  0  0  0  0  0  0  0  0  0  0  0
  154.3924  136.2948  185.2880 O   0  0  0  0  0  0  0  0  0  0  0  0
  153.4244  134.9770  183.5291 C   0  0  0  0  0  0  0  0  0  0  0  0
  153.5991  133.6267  183.8182 C   0  0  0  0  0  0  0  0  0  0  0  0
  153.1039  132.7052  182.9167 C   0  0  0  0  0  0  0  0  0  0  0  0
  152.4572  133.0729  181.7668 C   0  0  0  0  0  0  0  0  0  0  0  0
  152.2967  134.4095  181.5026 C   0  0  0  0  0  0  0  0  0  0  0  0
  152.7817  135.3717  182.3868 C   0  0  0  0  0  0  0  0  0  0  0  0
  152.7869  140.6671  182.7597 H   0  0  0  0  0  0  0  0  0  0  0  0
  151.6743  137.2518  180.4699 H   0  0  0  0  0  0  0  0  0  0  0  0
  156.6959  140.5664  183.1054 C   0  0  0  0  0  0  0  0  0  0  0  0
  157.3211  140.2591  184.3340 C   0  0  0  0  0  0  0  0  0  0  0  0
  156.7159  139.4989  185.2905 C   0  0  0  0  0  0  0  0  0  0  0  0
  155.4378  138.9869  185.0924 C   0  0  0  0  0  0  0  0  0  0  0  0
  154.8155  139.2686  183.9216 C   0  0  0  0  0  0  0  0  0  0  0  0
  155.4412  140.0356  182.9712 C   0  0  0  0  0  0  0  0  0  0  0  0
  157.3734  141.3375  182.2022 O   0  0  0  0  0  0  0  0  0  0  0  0
  158.3333  140.9549  181.2906 C   0  0  0  0  0  0  0  0  0  0  0  0
  158.4019  141.7064  180.0039 C   0  0  0  0  0  0  0  0  0  0  0  0
  159.1785  143.0214  180.2033 C   0  0  0  0  0  0  0  0  0  0  0  0
  158.9819  144.6130  181.8059 C   0  0  0  0  0  0  0  0  0  0  0  0
  158.3185  143.9457  180.7908 O   0  0  0  0  0  0  0  0  0  0  0  0
 28 29  1  0  0  0
 29 27  1  0  0  0
 27 26  1  0  0  0
 26 25  1  0  0  0
 25 24  1  0  0  0
 24 18  1  0  0  0
 18 19  2  0  0  0
 19 20  1  0  0  0
 20 21  2  0  0  0
 21 22  1  0  0  0
 22 23  2  0  0  0
 22  1  1  0  0  0
  1  2  1  0  0  0
  2  3  1  0  0  0
  3  4  2  0  0  0
  3  5  1  0  0  0
  5  6  1  0  0  0
  6  7  2  0  0  0
  7  8  1  0  0  0
  8  9  2  0  0  0
  8 10  1  0  0  0
 10 11  2  0  0  0
 11 12  1  0  0  0
 12 13  2  0  0  0
 13 14  1  0  0  0
 14 15  2  0  0  0
 23 18  1  0  0  0
  7  1  1  0  0  0
 15 10  1  0  0  0
 15  6  1  0  0  0
  2 16  1  0  0  0
  5 17  1  0  0  0
M  END
> <minimizedAffinity>
-6.17500

> <CNNscore>
0.3132591844

> <CNNaffinity>
5.5106964111

> <CNN_VS>
1.7262762785

> <CNNaffinity_variance>
0.0832943469

$$$$
[H]c1nc2c(c(=O)n(C([H])([H])C(=O)C([H])([H])C([H])([H])[H])c(=O)n2C([H])([H])[H])n1C([H])([H])C(=O)N([H])[H]


 23 24  0  0  0  0  0  0  0  0999 V2000
  153.4450  136.3795  188.7461 N   0  0  0  0  0  0  0  0  0  0  0  0
  154.4868  136.9910  189.2990 C   0  0  0  0  0  0  0  0  0  0  0  0
  155.5088  137.1865  188.5972 O   0  0  0  0  0  0  0  0  0  0  0  0
  154.5263  137.4203  190.5696 N   0  0  0  0  0  0  0  0  0  0  0  0
  155.6973  138.0787  191.1024 C   0  0  0  0  0  0  0  0  0  0  0  0
  153.4222  137.2117  191.3361 C   0  0  0  0  0  0  0  0  0  0  0  0
  153.1256  137.5049  192.6170 N   0  0  0  0  0  0  0  0  0  0  0  0
  151.8770  137.0743  192.8846 C   0  0  0  0  0  0  0  0  0  0  0  0
  151.3439  136.4945  191.7803 N   0  0  0  0  0  0  0  0  0  0  0  0
  152.2965  136.5820  190.8343 C   0  0  0  0  0  0  0  0  0  0  0  0
  152.3542  136.1765  189.5128 C   0  0  0  0  0  0  0  0  0  0  0  0
  151.3193  135.6013  189.0630 O   0  0  0  0  0  0  0  0  0  0  0  0
  153.4122  135.9191  187.3714 C   0  0  0  0  0  0  0  0  0  0  0  0
  153.1527  137.0052  186.4273 C   0  0  0  0  0  0  0  0  0  0  0  0
  152.1498  137.6794  186.5317 O   0  0  0  0  0  0  0  0  0  0  0  0
  154.3636  138.7918  185.2217 C   0  0  0  0  0  0  0  0  0  0  0  0
  154.0989  137.3089  185.3282 C   0  0  0  0  0  0  0  0  0  0  0  0
  150.0269  135.9033  191.6404 C   0  0  0  0  0  0  0  0  0  0  0  0
  149.8720  134.7336  192.5394 C   0  0  0  0  0  0  0  0  0  0  0  0
  148.9941  134.7213  193.6497 N   0  0  0  0  0  0  0  0  0  0  0  0
  150.5582  133.7148  192.2913 O   0  0  0  0  0  0  0  0  0  0  0  0
  147.9733  134.5959  193.5344 H   0  0  0  0  0  0  0  0  0  0  0  0
  149.3975  134.8429  194.6086 H   0  0  0  0  0  0  0  0  0  0  0  0
 16 17  1  0  0  0
 17 14  1  0  0  0
 14 15  2  0  0  0
 14 13  1  0  0  0
 13  1  1  0  0  0
  1  2  1  0  0  0
  2  3  2  0  0  0
  2  4  1  0  0  0
  4  5  1  0  0  0
  4  6  1  0  0  0
  6  7  1  0  0  0
  7  8  2  0  0  0
  8  9  1  0  0  0
  9 18  1  0  0  0
 18 19  1  0  0  0
 19 20  1  0  0  0
 19 21  2  0  0  0
  9 10  1  0  0  0
 10 11  1  0  0  0
 11 12  2  0  0  0
 11  1  1  0  0  0
 10  6  2  0  0  0
 20 22  1  0  0  0
 20 23  1  0  0  0
M  END
> <minimizedAffinity>
-4.09620

> <CNNscore>
0.5990452170

> <CNNaffinity>
4.5015344620

> <CNN_VS>
2.6966226101

> <CNNaffinity_variance>
0.2034478635

$$$$
[H]c1nc2c(c(=O)n(C([H])([H])C(=O)C([H])([H])C([H])([H])[H])c(=O)n2C([H])([H])[H])n1C([H])([H])C(=O)N([H])[H]


 23 24  0  0  0  0  0  0  0  0999 V2000
  152.9680  136.1277  191.2513 N   0  0  0  0  0  0  0  0  0  0  0  0
  153.7689  137.0444  190.7193 C   0  0  0  0  0  0  0  0  0  0  0  0
  154.6894  137.5198  191.4277 O   0  0  0  0  0  0  0  0  0  0  0  0
  153.6638  137.5049  189.4634 N   0  0  0  0  0  0  0  0  0  0  0  0
  154.5736  138.5051  188.9531 C   0  0  0  0  0  0  0  0  0  0  0  0
  152.6684  136.9941  188.6900 C   0  0  0  0  0  0  0  0  0  0  0  0
  152.2844  137.2231  187.4192 N   0  0  0  0  0  0  0  0  0  0  0  0
  151.2236  136.4413  187.1370 C   0  0  0  0  0  0  0  0  0  0  0  0
  150.9029  135.6923  188.2214 N   0  0  0  0  0  0  0  0  0  0  0  0
  151.7926  136.0361  189.1703 C   0  0  0  0  0  0  0  0  0  0  0  0
  151.9835  135.6262  190.4778 C   0  0  0  0  0  0  0  0  0  0  0  0
  151.1771  134.7494  190.9080 O   0  0  0  0  0  0  0  0  0  0  0  0
  153.0897  135.6364  192.6102 C   0  0  0  0  0  0  0  0  0  0  0  0
  152.1745  136.3112  193.5296 C   0  0  0  0  0  0  0  0  0  0  0  0
  152.0374  137.5154  193.4815 O   0  0  0  0  0  0  0  0  0  0  0  0
  149.9547  135.3943  194.1156 C   0  0  0  0  0  0  0  0  0  0  0  0
  151.3970  135.5496  194.5352 C   0  0  0  0  0  0  0  0  0  0  0  0
  149.8300  134.7238  188.3411 C   0  0  0  0  0  0  0  0  0  0  0  0
  148.5087  135.3972  188.3765 C   0  0  0  0  0  0  0  0  0  0  0  0
  147.5651  135.3067  187.3253 N   0  0  0  0  0  0  0  0  0  0  0  0
  148.2288  136.0752  189.3926 O   0  0  0  0  0  0  0  0  0  0  0  0
  146.9798  134.4639  187.1910 H   0  0  0  0  0  0  0  0  0  0  0  0
  147.4640  136.1189  186.6718 H   0  0  0  0  0  0  0  0  0  0  0  0
 16 17  1  0  0  0
 17 14  1  0  0  0
 14 15  2  0  0  0
 14 13  1  0  0  0
 13  1  1  0  0  0
  1  2  1  0  0  0
  2  3  2  0  0  0
  2  4  1  0  0  0
  4  5  1  0  0  0
  4  6  1  0  0  0
  6  7  1  0  0  0
  7  8  2  0  0  0
  8  9  1  0  0  0
  9 18  1  0  0  0
 18 19  1  0  0  0
 19 20  1  0  0  0
 19 21  2  0  0  0
  9 10  1  0  0  0
 10 11  1  0  0  0
 11 12  2  0  0  0
 11  1  1  0  0  0
 10  6  2  0  0  0
 20 22  1  0  0  0
 20 23  1  0  0  0
M  END
> <minimizedAffinity>
-3.86759

> <CNNscore>
0.5866794586

> <CNNaffinity>
4.3232755661

> <CNN_VS>
2.5363769531

> <CNNaffinity_variance>
0.0955783874

$$$$
[H]c1nc2c(c(=O)n(C([H])([H])C(=O)C([H])([H])C([H])([H])[H])c(=O)n2C([H])([H])[H])n1C([H])([H])C(=O)N([H])[H]


 23 24  0  0  0  0  0  0  0  0999 V2000
  158.0932  141.3761  183.0473 N   0  0  0  0  0  0  0  0  0  0  0  0
  157.4932  142.4351  182.5150 C   0  0  0  0  0  0  0  0  0  0  0  0
  156.4100  142.2661  181.9041 O   0  0  0  0  0  0  0  0  0  0  0  0
  157.9673  143.6884  182.5840 N   0  0  0  0  0  0  0  0  0  0  0  0
  157.2576  144.7927  181.9794 C   0  0  0  0  0  0  0  0  0  0  0  0
  159.1408  143.8790  183.2447 C   0  0  0  0  0  0  0  0  0  0  0  0
  159.8835  144.9738  183.4988 N   0  0  0  0  0  0  0  0  0  0  0  0
  160.9725  144.6076  184.2032 C   0  0  0  0  0  0  0  0  0  0  0  0
  160.9530  143.2683  184.4170 N   0  0  0  0  0  0  0  0  0  0  0  0
  159.8272  142.8275  183.8267 C   0  0  0  0  0  0  0  0  0  0  0  0
  159.2564  141.5736  183.7007 C   0  0  0  0  0  0  0  0  0  0  0  0
  159.8921  140.6180  184.2367 O   0  0  0  0  0  0  0  0  0  0  0  0
  157.5727  140.0250  182.9672 C   0  0  0  0  0  0  0  0  0  0  0  0
  156.6078  139.7372  184.0276 C   0  0  0  0  0  0  0  0  0  0  0  0
  156.9900  139.4992  185.1538 O   0  0  0  0  0  0  0  0  0  0  0  0
  154.3892  139.0336  184.8610 C   0  0  0  0  0  0  0  0  0  0  0  0
  155.1508  139.7286  183.7577 C   0  0  0  0  0  0  0  0  0  0  0  0
  161.9336  142.4723  185.1299 C   0  0  0  0  0  0  0  0  0  0  0  0
  161.9102  142.7764  186.5816 C   0  0  0  0  0  0  0  0  0  0  0  0
  160.7162  143.0139  187.3039 N   0  0  0  0  0  0  0  0  0  0  0  0
  163.0083  142.8219  187.1838 O   0  0  0  0  0  0  0  0  0  0  0  0
  160.0934  142.2402  187.5944 H   0  0  0  0  0  0  0  0  0  0  0  0
  160.4652  144.0016  187.5457 H   0  0  0  0  0  0  0  0  0  0  0  0
 16 17  1  0  0  0
 17 14  1  0  0  0
 14 15  2  0  0  0
 14 13  1  0  0  0
 13  1  1  0  0  0
  1  2  1  0  0  0
  2  3  2  0  0  0
  2  4  1  0  0  0
  4  5  1  0  0  0
  4  6  1  0  0  0
  6  7  1  0  0  0
  7  8  2  0  0  0
  8  9  1  0  0  0
  9 18  1  0  0  0
 18 19  1  0  0  0
 19 20  1  0  0  0
 19 21  2  0  0  0
  9 10  1  0  0  0
 10 11  1  0  0  0
 11 12  2  0  0  0
 11  1  1  0  0  0
 10  6  2  0  0  0
 20 22  1  0  0  0
 20 23  1  0  0  0
M  END
> <minimizedAffinity>
-6.79866

> <CNNscore>
0.5459631681

> <CNNaffinity>
5.8904075623

> <CNN_VS>
3.2159454823

> <CNNaffinity_variance>
0.1211100072

$$$$
[H]c1nc2c(c(=O)n(C([H])([H])C(=O)C([H])([H])C([H])([H])[H])c(=O)n2C([H])([H])[H])n1C([H])([H])C(=O)N([H])[H]


 23 24  0  0  0  0  0  0  0  0999 V2000
  153.2847  137.6465  188.8610 N   0  0  0  0  0  0  0  0  0  0  0  0
  152.6583  136.8511  189.7212 C   0  0  0  0  0  0  0  0  0  0  0  0
  152.9934  136.8934  190.9299 O   0  0  0  0  0  0  0  0  0  0  0  0
  151.6808  135.9948  189.3872 N   0  0  0  0  0  0  0  0  0  0  0  0
  151.0443  135.1594  190.3800 C   0  0  0  0  0  0  0  0  0  0  0  0
  151.3125  135.9437  188.0789 C   0  0  0  0  0  0  0  0  0  0  0  0
  150.3931  135.2193  187.4120 N   0  0  0  0  0  0  0  0  0  0  0  0
  150.4339  135.5576  186.1081 C   0  0  0  0  0  0  0  0  0  0  0  0
  151.3813  136.5076  185.9089 N   0  0  0  0  0  0  0  0  0  0  0  0
  151.9164  136.7399  187.1213 C   0  0  0  0  0  0  0  0  0  0  0  0
  152.9136  137.5897  187.5656 C   0  0  0  0  0  0  0  0  0  0  0  0
  153.4600  138.3141  186.6819 O   0  0  0  0  0  0  0  0  0  0  0  0
  154.3404  138.5688  189.2319 C   0  0  0  0  0  0  0  0  0  0  0  0
  155.6127  137.8896  189.4733 C   0  0  0  0  0  0  0  0  0  0  0  0
  156.0721  137.1377  188.6398 O   0  0  0  0  0  0  0  0  0  0  0  0
  156.4312  136.8356  191.5544 C   0  0  0  0  0  0  0  0  0  0  0  0
  156.3682  138.0997  190.7306 C   0  0  0  0  0  0  0  0  0  0  0  0
  151.7465  137.1436  184.6577 C   0  0  0  0  0  0  0  0  0  0  0  0
  152.7873  136.3603  183.9481 C   0  0  0  0  0  0  0  0  0  0  0  0
  154.1720  136.4994  184.2068 N   0  0  0  0  0  0  0  0  0  0  0  0
  152.4069  135.5400  183.0804 O   0  0  0  0  0  0  0  0  0  0  0  0
  154.6146  136.0754  185.0407 H   0  0  0  0  0  0  0  0  0  0  0  0
  154.7552  137.0473  183.5311 H   0  0  0  0  0  0  0  0  0  0  0  0
 16 17  1  0  0  0
 17 14  1  0  0  0
 14 15  2  0  0  0
 14 13  1  0  0  0
 13  1  1  0  0  0
  1  2  1  0  0  0
  2  3  2  0  0  0
  2  4  1  0  0  0
  4  5  1  0  0  0
  4  6  1  0  0  0
  6  7  1  0  0  0
  7  8  2  0  0  0
  8  9  1  0  0  0
  9 18  1  0  0  0
 18 19  1  0  0  0
 19 20  1  0  0  0
 19 21  2  0  0  0
  9 10  1  0  0  0
 10 11  1  0  0  0
 11 12  2  0  0  0
 11  1  1  0  0  0
 10  6  2  0  0  0
 20 22  1  0  0  0
 20 23  1  0  0  0
M  END
> <minimizedAffinity>
-3.83011

> <CNNscore>
0.5172548890

> <CNNaffinity>
4.4317202568

> <CNN_VS>
2.2923290730

> <CNNaffinity_variance>
0.0948281586

$$$$
[H]c1nc2c(c(=O)n(C([H])([H])C(=O)C([H])([H])C([H])([H])[H])c(=O)n2C([H])([H])[H])n1C([H])([H])C(=O)N([H])[H]


 23 24  0  0  0  0  0  0  0  0999 V2000
  154.9568  135.7931  191.0265 N   0  0  0  0  0  0  0  0  0  0  0  0
  155.0975  136.8504  190.2345 C   0  0  0  0  0  0  0  0  0  0  0  0
  154.4825  137.9046  190.5272 O   0  0  0  0  0  0  0  0  0  0  0  0
  155.8594  136.8735  189.1302 N   0  0  0  0  0  0  0  0  0  0  0  0
  155.9639  138.0631  188.3163 C   0  0  0  0  0  0  0  0  0  0  0  0
  156.5288  135.7345  188.8070 C   0  0  0  0  0  0  0  0  0  0  0  0
  157.3594  135.4138  187.7960 N   0  0  0  0  0  0  0  0  0  0  0  0
  157.7538  134.1339  187.9455 C   0  0  0  0  0  0  0  0  0  0  0  0
  157.1846  133.6040  189.0568 N   0  0  0  0  0  0  0  0  0  0  0  0
  156.4346  134.5907  189.5805 C   0  0  0  0  0  0  0  0  0  0  0  0
  155.6239  134.6677  190.6989 C   0  0  0  0  0  0  0  0  0  0  0  0
  155.5443  133.6159  191.4002 O   0  0  0  0  0  0  0  0  0  0  0  0
  154.1307  135.7782  192.2182 C   0  0  0  0  0  0  0  0  0  0  0  0
  152.7183  135.5539  191.9129 C   0  0  0  0  0  0  0  0  0  0  0  0
  152.3383  134.4624  191.5449 O   0  0  0  0  0  0  0  0  0  0  0  0
  151.9928  137.4948  193.2612 C   0  0  0  0  0  0  0  0  0  0  0  0
  151.7226  136.6434  192.0437 C   0  0  0  0  0  0  0  0  0  0  0  0
  157.3451  132.2599  189.5774 C   0  0  0  0  0  0  0  0  0  0  0  0
  158.4561  132.1999  190.5584 C   0  0  0  0  0  0  0  0  0  0  0  0
  158.2563  132.2513  191.9588 N   0  0  0  0  0  0  0  0  0  0  0  0
  159.6222  132.0990  190.1106 O   0  0  0  0  0  0  0  0  0  0  0  0
  157.9229  131.4287  192.4910 H   0  0  0  0  0  0  0  0  0  0  0  0
  158.4537  133.1493  192.4603 H   0  0  0  0  0  0  0  0  0  0  0  0
 16 17  1  0  0  0
 17 14  1  0  0  0
 14 15  2  0  0  0
 14 13  1  0  0  0
 13  1  1  0  0  0
  1  2  1  0  0  0
  2  3  2  0  0  0
  2  4  1  0  0  0
  4  5  1  0  0  0
  4  6  1  0  0  0
  6  7  1  0  0  0
  7  8  2  0  0  0
  8  9  1  0  0  0
  9 18  1  0  0  0
 18 19  1  0  0  0
 19 20  1  0  0  0
 19 21  2  0  0  0
  9 10  1  0  0  0
 10 11  1  0  0  0
 11 12  2  0  0  0
 11  1  1  0  0  0
 10  6  2  0  0  0
 20 22  1  0  0  0
 20 23  1  0  0  0
M  END
> <minimizedAffinity>
-3.78047

> <CNNscore>
0.5118871927

> <CNNaffinity>
4.4738335609

> <CNN_VS>
2.2900981903

> <CNNaffinity_variance>
0.1782267690

$$$$
[H]c1nc2c(c(=O)n(C([H])([H])C(=O)C([H])([H])C([H])([H])[H])c(=O)n2C([H])([H])[H])n1C([H])([H])C(=O)N([H])[H]


 23 24  0  0  0  0  0  0  0  0999 V2000
  152.9764  136.1793  190.7145 N   0  0  0  0  0  0  0  0  0  0  0  0
  152.2975  136.2039  191.8562 C   0  0  0  0  0  0  0  0  0  0  0  0
  152.9078  136.5079  192.9099 O   0  0  0  0  0  0  0  0  0  0  0  0
  150.9899  135.9240  191.9659 N   0  0  0  0  0  0  0  0  0  0  0  0
  150.3177  135.9716  193.2444 C   0  0  0  0  0  0  0  0  0  0  0  0
  150.3221  135.5938  190.8279 C   0  0  0  0  0  0  0  0  0  0  0  0
  149.0400  135.2633  190.5794 N   0  0  0  0  0  0  0  0  0  0  0  0
  148.8995  135.0246  189.2605 C   0  0  0  0  0  0  0  0  0  0  0  0
  150.0894  135.1967  188.6326 N   0  0  0  0  0  0  0  0  0  0  0  0
  150.9576  135.5456  189.5994 C   0  0  0  0  0  0  0  0  0  0  0  0
  152.3069  135.8510  189.5907 C   0  0  0  0  0  0  0  0  0  0  0  0
  152.8794  135.8041  188.4618 O   0  0  0  0  0  0  0  0  0  0  0  0
  154.3901  136.4836  190.6063 C   0  0  0  0  0  0  0  0  0  0  0  0
  154.6395  137.9145  190.4370 C   0  0  0  0  0  0  0  0  0  0  0  0
  154.8543  138.6160  191.4028 O   0  0  0  0  0  0  0  0  0  0  0  0
  155.6841  137.9251  188.1964 C   0  0  0  0  0  0  0  0  0  0  0  0
  154.6368  138.5401  189.0938 C   0  0  0  0  0  0  0  0  0  0  0  0
  150.3742  135.0399  187.2192 C   0  0  0  0  0  0  0  0  0  0  0  0
  150.7320  133.6356  186.9024 C   0  0  0  0  0  0  0  0  0  0  0  0
  152.0446  133.1225  187.0336 N   0  0  0  0  0  0  0  0  0  0  0  0
  149.8173  132.8793  186.5001 O   0  0  0  0  0  0  0  0  0  0  0  0
  152.4409  132.8721  187.9562 H   0  0  0  0  0  0  0  0  0  0  0  0
  152.6220  132.9966  186.1688 H   0  0  0  0  0  0  0  0  0  0  0  0
 16 17  1  0  0  0
 17 14  1  0  0  0
 14 15  2  0  0  0
 14 13  1  0  0  0
 13  1  1  0  0  0
  1  2  1  0  0  0
  2  3  2  0  0  0
  2  4  1  0  0  0
  4  5  1  0  0  0
  4  6  1  0  0  0
  6  7  1  0  0  0
  7  8  2  0  0  0
  8  9  1  0  0  0
  9 18  1  0  0  0
 18 19  1  0  0  0
 19 20  1  0  0  0
 19 21  2  0  0  0
  9 10  1  0  0  0
 10 11  1  0  0  0
 11 12  2  0  0  0
 11  1  1  0  0  0
 10  6  2  0  0  0
 20 22  1  0  0  0
 20 23  1  0  0  0
M  END
> <minimizedAffinity>
-3.63896

> <CNNscore>
0.5080035329

> <CNNaffinity>
4.4230775833

> <CNN_VS>
2.2469389439

> <CNNaffinity_variance>
0.0710782036

$$$$
[H]c1nc2c(c(=O)n(C([H])([H])C(=O)C([H])([H])C([H])([H])[H])c(=O)n2C([H])([H])[H])n1C([H])([H])C(=O)N([H])[H]


 23 24  0  0  0  0  0  0  0  0999 V2000
  152.1921  138.4683  182.0368 N   0  0  0  0  0  0  0  0  0  0  0  0
  152.6985  139.6646  181.7584 C   0  0  0  0  0  0  0  0  0  0  0  0
  152.2288  140.3025  180.7849 O   0  0  0  0  0  0  0  0  0  0  0  0
  153.6885  140.2478  182.4514 N   0  0  0  0  0  0  0  0  0  0  0  0
  154.1888  141.5542  182.0885 C   0  0  0  0  0  0  0  0  0  0  0  0
  154.2023  139.5622  183.5076 C   0  0  0  0  0  0  0  0  0  0  0  0
  155.1755  139.8407  184.3966 N   0  0  0  0  0  0  0  0  0  0  0  0
  155.2912  138.8074  185.2539 C   0  0  0  0  0  0  0  0  0  0  0  0
  154.3940  137.8417  184.9340 N   0  0  0  0  0  0  0  0  0  0  0  0
  153.7294  138.3107  183.8623 C   0  0  0  0  0  0  0  0  0  0  0  0
  152.7072  137.7950  183.0858 C   0  0  0  0  0  0  0  0  0  0  0  0
  152.2814  136.6494  183.4183 O   0  0  0  0  0  0  0  0  0  0  0  0
  151.1219  137.8463  181.2815 C   0  0  0  0  0  0  0  0  0  0  0  0
  149.8089  138.3890  181.6275 C   0  0  0  0  0  0  0  0  0  0  0  0
  149.3716  138.2615  182.7516 O   0  0  0  0  0  0  0  0  0  0  0  0
  149.3304  138.6713  179.2186 C   0  0  0  0  0  0  0  0  0  0  0  0
  148.9849  139.1028  180.6239 C   0  0  0  0  0  0  0  0  0  0  0  0
  154.1880  136.5703  185.6006 C   0  0  0  0  0  0  0  0  0  0  0  0
  153.2482  136.7140  186.7393 C   0  0  0  0  0  0  0  0  0  0  0  0
  151.8616  136.9460  186.5744 N   0  0  0  0  0  0  0  0  0  0  0  0
  153.7194  136.6236  187.8969 O   0  0  0  0  0  0  0  0  0  0  0  0
  151.2108  136.1860  186.3099 H   0  0  0  0  0  0  0  0  0  0  0  0
  151.4943  137.9150  186.7262 H   0  0  0  0  0  0  0  0  0  0  0  0
 16 17  1  0  0  0
 17 14  1  0  0  0
 14 15  2  0  0  0
 14 13  1  0  0  0
 13  1  1  0  0  0
  1  2  1  0  0  0
  2  3  2  0  0  0
  2  4  1  0  0  0
  4  5  1  0  0  0
  4  6  1  0  0  0
  6  7  1  0  0  0
  7  8  2  0  0  0
  8  9  1  0  0  0
  9 18  1  0  0  0
 18 19  1  0  0  0
 19 20  1  0  0  0
 19 21  2  0  0  0
  9 10  1  0  0  0
 10 11  1  0  0  0
 11 12  2  0  0  0
 11  1  1  0  0  0
 10  6  2  0  0  0
 20 22  1  0  0  0
 20 23  1  0  0  0
M  END
> <minimizedAffinity>
-4.38091

> <CNNscore>
0.4909269512

> <CNNaffinity>
4.4210395813

> <CNN_VS>
2.1704075336

> <CNNaffinity_variance>
0.2134015858

$$$$
[H]c1nc2c(c(=O)n(C([H])([H])C(=O)C([H])([H])C([H])([H])[H])c(=O)n2C([H])([H])[H])n1C([H])([H])C(=O)N([H])[H]


 23 24  0  0  0  0  0  0  0  0999 V2000
  156.0459  137.0760  188.8570 N   0  0  0  0  0  0  0  0  0  0  0  0
  155.1222  137.2858  187.9255 C   0  0  0  0  0  0  0  0  0  0  0  0
  154.4955  138.3731  187.9371 O   0  0  0  0  0  0  0  0  0  0  0  0
  154.8067  136.4084  186.9606 N   0  0  0  0  0  0  0  0  0  0  0  0
  153.7884  136.7071  185.9795 C   0  0  0  0  0  0  0  0  0  0  0  0
  155.4819  135.2279  186.9420 C   0  0  0  0  0  0  0  0  0  0  0  0
  155.4220  134.1491  186.1374 N   0  0  0  0  0  0  0  0  0  0  0  0
  156.3202  133.2385  186.5619 C   0  0  0  0  0  0  0  0  0  0  0  0
  156.9772  133.7131  187.6495 N   0  0  0  0  0  0  0  0  0  0  0  0
  156.4585  134.9334  187.8774 C   0  0  0  0  0  0  0  0  0  0  0  0
  156.7109  135.9029  188.8315 C   0  0  0  0  0  0  0  0  0  0  0  0
  157.6062  135.6240  189.6829 O   0  0  0  0  0  0  0  0  0  0  0  0
  156.3797  138.0309  189.8960 C   0  0  0  0  0  0  0  0  0  0  0  0
  155.3532  138.1036  190.9350 C   0  0  0  0  0  0  0  0  0  0  0  0
  154.9880  139.1796  191.3591 O   0  0  0  0  0  0  0  0  0  0  0  0
  153.2353  136.8933  191.3363 C   0  0  0  0  0  0  0  0  0  0  0  0
  154.7372  136.8766  191.4923 C   0  0  0  0  0  0  0  0  0  0  0  0
  158.0194  133.0518  188.4112 C   0  0  0  0  0  0  0  0  0  0  0  0
  159.3551  133.3129  187.8211 C   0  0  0  0  0  0  0  0  0  0  0  0
  159.9880  134.5782  187.8668 N   0  0  0  0  0  0  0  0  0  0  0  0
  159.9387  132.3574  187.2582 O   0  0  0  0  0  0  0  0  0  0  0  0
  160.4503  134.9242  188.7255 H   0  0  0  0  0  0  0  0  0  0  0  0
  159.9829  135.1722  187.0042 H   0  0  0  0  0  0  0  0  0  0  0  0
 16 17  1  0  0  0
 17 14  1  0  0  0
 14 15  2  0  0  0
 14 13  1  0  0  0
 13  1  1  0  0  0
  1  2  1  0  0  0
  2  3  2  0  0  0
  2  4  1  0  0  0
  4  5  1  0  0  0
  4  6  1  0  0  0
  6  7  1  0  0  0
  7  8  2  0  0  0
  8  9  1  0  0  0
  9 18  1  0  0  0
 18 19  1  0  0  0
 19 20  1  0  0  0
 19 21  2  0  0  0
  9 10  1  0  0  0
 10 11  1  0  0  0
 11 12  2  0  0  0
 11  1  1  0  0  0
 10  6  2  0  0  0
 20 22  1  0  0  0
 20 23  1  0  0  0
M  END
> <minimizedAffinity>
-3.96156

> <CNNscore>
0.4642746747

> <CNNaffinity>
4.4525451660

> <CNN_VS>
2.0672039986

> <CNNaffinity_variance>
0.2443312407

$$$$
[H]c1nc2c(c(=O)n(C([H])([H])C(=O)C([H])([H])C([H])([H])[H])c(=O)n2C([H])([H])[H])n1C([H])([H])C(=O)N([H])[H]


 23 24  0  0  0  0  0  0  0  0999 V2000
  156.2819  140.4709  183.3518 N   0  0  0  0  0  0  0  0  0  0  0  0
  155.1452  140.5132  182.6653 C   0  0  0  0  0  0  0  0  0  0  0  0
  155.1036  141.2016  181.6168 O   0  0  0  0  0  0  0  0  0  0  0  0
  154.0240  139.8649  183.0161 N   0  0  0  0  0  0  0  0  0  0  0  0
  152.8230  139.9585  182.2179 C   0  0  0  0  0  0  0  0  0  0  0  0
  154.0620  139.1169  184.1515 C   0  0  0  0  0  0  0  0  0  0  0  0
  153.1447  138.3569  184.7807 N   0  0  0  0  0  0  0  0  0  0  0  0
  153.7045  137.8225  185.8840 C   0  0  0  0  0  0  0  0  0  0  0  0
  154.9947  138.2280  185.9875 N   0  0  0  0  0  0  0  0  0  0  0  0
  155.2077  139.0215  184.9220 C   0  0  0  0  0  0  0  0  0  0  0  0
  156.3111  139.7269  184.4763 C   0  0  0  0  0  0  0  0  0  0  0  0
  157.3545  139.6332  185.1882 O   0  0  0  0  0  0  0  0  0  0  0  0
  157.4886  141.1754  182.9642 C   0  0  0  0  0  0  0  0  0  0  0  0
  158.2133  140.4903  181.8947 C   0  0  0  0  0  0  0  0  0  0  0  0
  158.6744  139.3839  182.0801 O   0  0  0  0  0  0  0  0  0  0  0  0
  159.1389  142.4361  180.6828 C   0  0  0  0  0  0  0  0  0  0  0  0
  158.4021  141.1230  180.5682 C   0  0  0  0  0  0  0  0  0  0  0  0
  155.9493  137.8838  187.0237 C   0  0  0  0  0  0  0  0  0  0  0  0
  155.2569  137.5292  188.2867 C   0  0  0  0  0  0  0  0  0  0  0  0
  154.6876  138.4919  189.1543 N   0  0  0  0  0  0  0  0  0  0  0  0
  155.1804  136.3149  188.5866 O   0  0  0  0  0  0  0  0  0  0  0  0
  153.7813  138.9451  188.9440 H   0  0  0  0  0  0  0  0  0  0  0  0
  155.2045  138.7455  190.0293 H   0  0  0  0  0  0  0  0  0  0  0  0
 16 17  1  0  0  0
 17 14  1  0  0  0
 14 15  2  0  0  0
 14 13  1  0  0  0
 13  1  1  0  0  0
  1  2  1  0  0  0
  2  3  2  0  0  0
  2  4  1  0  0  0
  4  5  1  0  0  0
  4  6  1  0  0  0
  6  7  1  0  0  0
  7  8  2  0  0  0
  8  9  1  0  0  0
  9 18  1  0  0  0
 18 19  1  0  0  0
 19 20  1  0  0  0
 19 21  2  0  0  0
  9 10  1  0  0  0
 10 11  1  0  0  0
 11 12  2  0  0  0
 11  1  1  0  0  0
 10  6  2  0  0  0
 20 22  1  0  0  0
 20 23  1  0  0  0
M  END
> <minimizedAffinity>
-5.94720

> <CNNscore>
0.4571745396

> <CNNaffinity>
4.8256101608

> <CNN_VS>
2.2061460018

> <CNNaffinity_variance>
0.0384483859

$$$$
[H]c1sc(N([H])C(=O)C([H])([H])c2c(Cl)oc3c2c(=O)n(C([H])([H])[H])c(=O)n3C([H])([H])[H])nc1-c1c([H])c(F)c([H])c(C(F)(F)F)c1[H]


 35 38  0  0  0  0  0  0  0  0999 V2000
  154.7560  136.7286  187.9126 C   0  0  0  0  0  0  0  0  0  0  0  0
  155.0149  135.6969  188.6257 O   0  0  0  0  0  0  0  0  0  0  0  0
  155.2553  136.7460  186.6227 N   0  0  0  0  0  0  0  0  0  0  0  0
  155.8328  135.9602  186.1973 H   0  0  0  0  0  0  0  0  0  0  0  0
  155.0235  137.8676  185.7634 C   0  0  0  0  0  0  0  0  0  0  0  0
  155.9554  138.7251  185.3883 N   0  0  0  0  0  0  0  0  0  0  0  0
  155.6583  139.7164  184.6054 C   0  0  0  0  0  0  0  0  0  0  0  0
  154.3490  139.8194  184.1975 C   0  0  0  0  0  0  0  0  0  0  0  0
  153.6384  138.4725  184.9786 S   0  0  0  0  0  0  0  0  0  0  0  0
  156.6804  140.7033  184.1873 C   0  0  0  0  0  0  0  0  0  0  0  0
  157.9884  140.6321  184.6118 C   0  0  0  0  0  0  0  0  0  0  0  0
  158.9538  141.5365  184.2325 C   0  0  0  0  0  0  0  0  0  0  0  0
  160.2158  141.4199  184.6791 F   0  0  0  0  0  0  0  0  0  0  0  0
  158.5801  142.5613  183.3846 C   0  0  0  0  0  0  0  0  0  0  0  0
  157.2937  142.6661  182.9425 C   0  0  0  0  0  0  0  0  0  0  0  0
  156.3476  141.7387  183.3434 C   0  0  0  0  0  0  0  0  0  0  0  0
  156.9526  143.7885  182.0362 C   0  0  0  0  0  0  0  0  0  0  0  0
  157.4040  143.5939  180.7463 F   0  0  0  0  0  0  0  0  0  0  0  0
  155.5757  143.9472  182.0347 F   0  0  0  0  0  0  0  0  0  0  0  0
  157.5010  144.9652  182.4995 F   0  0  0  0  0  0  0  0  0  0  0  0
  153.9592  137.7930  188.5333 C   0  0  0  0  0  0  0  0  0  0  0  0
  151.6328  135.9361  193.8446 C   0  0  0  0  0  0  0  0  0  0  0  0
  151.5692  136.0392  192.3818 N   0  0  0  0  0  0  0  0  0  0  0  0
  152.5350  136.6636  191.6930 C   0  0  0  0  0  0  0  0  0  0  0  0
  153.6351  137.2632  192.1065 O   0  0  0  0  0  0  0  0  0  0  0  0
  154.2910  137.7396  191.0887 C   0  0  0  0  0  0  0  0  0  0  0  0
  155.8173  138.6246  191.0971 Cl  0  0  0  0  0  0  0  0  0  0  0  0
  153.5821  137.4379  189.9220 C   0  0  0  0  0  0  0  0  0  0  0  0
  152.4650  136.7534  190.3079 C   0  0  0  0  0  0  0  0  0  0  0  0
  151.3838  136.1908  189.6265 C   0  0  0  0  0  0  0  0  0  0  0  0
  151.3067  136.2635  188.3679 O   0  0  0  0  0  0  0  0  0  0  0  0
  150.4449  135.5776  190.3641 N   0  0  0  0  0  0  0  0  0  0  0  0
  149.3197  134.9952  189.6555 C   0  0  0  0  0  0  0  0  0  0  0  0
  150.5408  135.5076  191.7047 C   0  0  0  0  0  0  0  0  0  0  0  0
  149.6165  134.9131  192.3447 O   0  0  0  0  0  0  0  0  0  0  0  0
 22 23  1  0  0  0
 23 24  1  0  0  0
 24 25  1  0  0  0
 25 26  1  0  0  0
 26 27  1  0  0  0
 26 28  2  0  0  0
 28 21  1  0  0  0
 21  1  1  0  0  0
  1  2  2  0  0  0
  1  3  1  0  0  0
  3  5  1  0  0  0
  5  6  2  0  0  0
  6  7  1  0  0  0
  7  8  2  0  0  0
  8  9  1  0  0  0
  7 10  1  0  0  0
 10 11  2  0  0  0
 11 12  1  0  0  0
 12 13  1  0  0  0
 12 14  2  0  0  0
 14 15  1  0  0  0
 15 16  2  0  0  0
 15 17  1  0  0  0
 17 18  1  0  0  0
 17 19  1  0  0  0
 17 20  1  0  0  0
 28 29  1  0  0  0
 29 30  1  0  0  0
 30 31  2  0  0  0
 30 32  1  0  0  0
 32 33  1  0  0  0
 32 34  1  0  0  0
 34 35  2  0  0  0
 34 23  1  0  0  0
 29 24  2  0  0  0
  9  5  1  0  0  0
 16 10  1  0  0  0
  3  4  1  0  0  0
M  END
> <minimizedAffinity>
-8.52016

> <CNNscore>
0.5097388029

> <CNNaffinity>
6.5066566467

> <CNN_VS>
3.3166954517

> <CNNaffinity_variance>
0.1692930907

$$$$
[H]c1sc(N([H])C(=O)C([H])([H])c2c(Cl)oc3c2c(=O)n(C([H])([H])[H])c(=O)n3C([H])([H])[H])nc1-c1c([H])c(F)c([H])c(C(F)(F)F)c1[H]


 35 38  0  0  0  0  0  0  0  0999 V2000
  154.4788  136.2010  188.0286 C   0  0  0  0  0  0  0  0  0  0  0  0
  154.8922  135.3156  188.8563 O   0  0  0  0  0  0  0  0  0  0  0  0
  154.7641  135.9965  186.6905 N   0  0  0  0  0  0  0  0  0  0  0  0
  155.2990  135.1557  186.3178 H   0  0  0  0  0  0  0  0  0  0  0  0
  154.3504  136.9447  185.7009 C   0  0  0  0  0  0  0  0  0  0  0  0
  155.0356  138.0242  185.3696 N   0  0  0  0  0  0  0  0  0  0  0  0
  154.5866  138.8329  184.4594 C   0  0  0  0  0  0  0  0  0  0  0  0
  153.3858  138.5083  183.8729 C   0  0  0  0  0  0  0  0  0  0  0  0
  152.9895  137.0535  184.6826 S   0  0  0  0  0  0  0  0  0  0  0  0
  155.3255  140.0606  184.0849 C   0  0  0  0  0  0  0  0  0  0  0  0
  154.7565  141.0584  183.3254 C   0  0  0  0  0  0  0  0  0  0  0  0
  155.4244  142.2079  182.9696 C   0  0  0  0  0  0  0  0  0  0  0  0
  154.8203  143.1490  182.2246 F   0  0  0  0  0  0  0  0  0  0  0  0
  156.7285  142.3561  183.4011 C   0  0  0  0  0  0  0  0  0  0  0  0
  157.3273  141.3896  184.1550 C   0  0  0  0  0  0  0  0  0  0  0  0
  156.6264  140.2456  184.4955 C   0  0  0  0  0  0  0  0  0  0  0  0
  158.7292  141.6043  184.5863 C   0  0  0  0  0  0  0  0  0  0  0  0
  159.2831  142.7542  184.0604 F   0  0  0  0  0  0  0  0  0  0  0  0
  158.7580  141.6581  185.9710 F   0  0  0  0  0  0  0  0  0  0  0  0
  159.5197  140.5433  184.2001 F   0  0  0  0  0  0  0  0  0  0  0  0
  153.7472  137.3475  188.5791 C   0  0  0  0  0  0  0  0  0  0  0  0
  151.5760  136.0724  194.1226 C   0  0  0  0  0  0  0  0  0  0  0  0
  151.4547  136.0474  192.6600 N   0  0  0  0  0  0  0  0  0  0  0  0
  152.4144  136.5661  191.8807 C   0  0  0  0  0  0  0  0  0  0  0  0
  153.5537  137.1523  192.1954 O   0  0  0  0  0  0  0  0  0  0  0  0
  154.1841  137.5076  191.1141 C   0  0  0  0  0  0  0  0  0  0  0  0
  155.7431  138.3235  190.9834 Cl  0  0  0  0  0  0  0  0  0  0  0  0
  153.4153  137.1340  190.0078 C   0  0  0  0  0  0  0  0  0  0  0  0
  152.2895  136.5352  190.4969 C   0  0  0  0  0  0  0  0  0  0  0  0
  151.1592  135.9611  189.9115 C   0  0  0  0  0  0  0  0  0  0  0  0
  151.0320  135.9247  188.6554 O   0  0  0  0  0  0  0  0  0  0  0  0
  150.2290  135.4568  190.7373 N   0  0  0  0  0  0  0  0  0  0  0  0
  149.0528  134.8625  190.1283 C   0  0  0  0  0  0  0  0  0  0  0  0
  150.3786  135.5023  192.0740 C   0  0  0  0  0  0  0  0  0  0  0  0
  149.4595  135.0074  192.8004 O   0  0  0  0  0  0  0  0  0  0  0  0
 22 23  1  0  0  0
 23 24  1  0  0  0
 24 25  1  0  0  0
 25 26  1  0  0  0
 26 27  1  0  0  0
 26 28  2  0  0  0
 28 21  1  0  0  0
 21  1  1  0  0  0
  1  2  2  0  0  0
  1  3  1  0  0  0
  3  5  1  0  0  0
  5  6  2  0  0  0
  6  7  1  0  0  0
  7  8  2  0  0  0
  8  9  1  0  0  0
  7 10  1  0  0  0
 10 11  2  0  0  0
 11 12  1  0  0  0
 12 13  1  0  0  0
 12 14  2  0  0  0
 14 15  1  0  0  0
 15 16  2  0  0  0
 15 17  1  0  0  0
 17 18  1  0  0  0
 17 19  1  0  0  0
 17 20  1  0  0  0
 28 29  1  0  0  0
 29 30  1  0  0  0
 30 31  2  0  0  0
 30 32  1  0  0  0
 32 33  1  0  0  0
 32 34  1  0  0  0
 34 35  2  0  0  0
 34 23  1  0  0  0
 29 24  2  0  0  0
  9  5  1  0  0  0
 16 10  1  0  0  0
  3  4  1  0  0  0
M  END
> <minimizedAffinity>
-8.43189

> <CNNscore>
0.4923527539

> <CNNaffinity>
6.4135832787

> <CNN_VS>
3.1577453613

> <CNNaffinity_variance>
0.1247777343

$$$$
[H]c1sc(N([H])C(=O)C([H])([H])c2c(Cl)oc3c2c(=O)n(C([H])([H])[H])c(=O)n3C([H])([H])[H])nc1-c1c([H])c(F)c([H])c(C(F)(F)F)c1[H]


 35 38  0  0  0  0  0  0  0  0999 V2000
  155.2162  137.2795  187.0804 C   0  0  0  0  0  0  0  0  0  0  0  0
  155.4140  136.1466  187.6437 O   0  0  0  0  0  0  0  0  0  0  0  0
  155.7430  137.4551  185.8134 N   0  0  0  0  0  0  0  0  0  0  0  0
  156.2941  136.7109  185.2895 H   0  0  0  0  0  0  0  0  0  0  0  0
  155.5795  138.6962  185.1185 C   0  0  0  0  0  0  0  0  0  0  0  0
  156.5653  139.5283  184.8355 N   0  0  0  0  0  0  0  0  0  0  0  0
  156.3283  140.6349  184.2006 C   0  0  0  0  0  0  0  0  0  0  0  0
  155.0231  140.8847  183.8468 C   0  0  0  0  0  0  0  0  0  0  0  0
  154.2289  139.4984  184.4604 S   0  0  0  0  0  0  0  0  0  0  0  0
  157.4130  141.5943  183.8899 C   0  0  0  0  0  0  0  0  0  0  0  0
  157.3353  142.4756  182.8346 C   0  0  0  0  0  0  0  0  0  0  0  0
  158.3300  143.3769  182.5311 C   0  0  0  0  0  0  0  0  0  0  0  0
  158.2020  144.2133  181.4872 F   0  0  0  0  0  0  0  0  0  0  0  0
  159.4563  143.3883  183.3312 C   0  0  0  0  0  0  0  0  0  0  0  0
  159.5708  142.5304  184.3857 C   0  0  0  0  0  0  0  0  0  0  0  0
  158.5510  141.6366  184.6634 C   0  0  0  0  0  0  0  0  0  0  0  0
  160.8040  142.5882  185.2064 C   0  0  0  0  0  0  0  0  0  0  0  0
  160.6171  142.1188  186.4911 F   0  0  0  0  0  0  0  0  0  0  0  0
  161.7875  141.8458  184.5719 F   0  0  0  0  0  0  0  0  0  0  0  0
  161.2622  143.8851  185.2962 F   0  0  0  0  0  0  0  0  0  0  0  0
  154.4544  138.2819  187.8339 C   0  0  0  0  0  0  0  0  0  0  0  0
  151.0562  135.4932  192.0464 C   0  0  0  0  0  0  0  0  0  0  0  0
  151.3114  135.8800  190.6537 N   0  0  0  0  0  0  0  0  0  0  0  0
  152.3940  136.5998  190.3264 C   0  0  0  0  0  0  0  0  0  0  0  0
  153.3678  137.0774  191.0776 O   0  0  0  0  0  0  0  0  0  0  0  0
  154.2220  137.7244  190.3394 C   0  0  0  0  0  0  0  0  0  0  0  0
  155.6954  138.5489  190.8514 Cl  0  0  0  0  0  0  0  0  0  0  0  0
  153.7894  137.6744  189.0109 C   0  0  0  0  0  0  0  0  0  0  0  0
  152.6262  136.9587  189.0040 C   0  0  0  0  0  0  0  0  0  0  0  0
  151.7286  136.5688  188.0078 C   0  0  0  0  0  0  0  0  0  0  0  0
  151.9266  136.8865  186.8015 O   0  0  0  0  0  0  0  0  0  0  0  0
  150.6615  135.8498  188.3898 N   0  0  0  0  0  0  0  0  0  0  0  0
  149.7273  135.4470  187.3543 C   0  0  0  0  0  0  0  0  0  0  0  0
  150.4640  135.5182  189.6792 C   0  0  0  0  0  0  0  0  0  0  0  0
  149.4321  134.8362  189.9747 O   0  0  0  0  0  0  0  0  0  0  0  0
 22 23  1  0  0  0
 23 24  1  0  0  0
 24 25  1  0  0  0
 25 26  1  0  0  0
 26 27  1  0  0  0
 26 28  2  0  0  0
 28 21  1  0  0  0
 21  1  1  0  0  0
  1  2  2  0  0  0
  1  3  1  0  0  0
  3  5  1  0  0  0
  5  6  2  0  0  0
  6  7  1  0  0  0
  7  8  2  0  0  0
  8  9  1  0  0  0
  7 10  1  0  0  0
 10 11  2  0  0  0
 11 12  1  0  0  0
 12 13  1  0  0  0
 12 14  2  0  0  0
 14 15  1  0  0  0
 15 16  2  0  0  0
 15 17  1  0  0  0
 17 18  1  0  0  0
 17 19  1  0  0  0
 17 20  1  0  0  0
 28 29  1  0  0  0
 29 30  1  0  0  0
 30 31  2  0  0  0
 30 32  1  0  0  0
 32 33  1  0  0  0
 32 34  1  0  0  0
 34 35  2  0  0  0
 34 23  1  0  0  0
 29 24  2  0  0  0
  9  5  1  0  0  0
 16 10  1  0  0  0
  3  4  1  0  0  0
M  END
> <minimizedAffinity>
-8.43445

> <CNNscore>
0.4112389386

> <CNNaffinity>
6.5503730774

> <CNN_VS>
2.6937685013

> <CNNaffinity_variance>
0.1546167880

$$$$
[H]c1sc(N([H])C(=O)C([H])([H])c2c(Cl)oc3c2c(=O)n(C([H])([H])[H])c(=O)n3C([H])([H])[H])nc1-c1c([H])c(F)c([H])c(C(F)(F)F)c1[H]


 35 38  0  0  0  0  0  0  0  0999 V2000
  154.7484  136.3028  187.8733 C   0  0  0  0  0  0  0  0  0  0  0  0
  155.6959  135.9686  188.6673 O   0  0  0  0  0  0  0  0  0  0  0  0
  154.6649  135.6260  186.6697 N   0  0  0  0  0  0  0  0  0  0  0  0
  155.3343  134.8540  186.3734 H   0  0  0  0  0  0  0  0  0  0  0  0
  153.6439  135.9472  185.7188 C   0  0  0  0  0  0  0  0  0  0  0  0
  153.6927  136.9745  184.8902 N   0  0  0  0  0  0  0  0  0  0  0  0
  152.7213  137.1934  184.0582 C   0  0  0  0  0  0  0  0  0  0  0  0
  151.6640  136.3145  184.0874 C   0  0  0  0  0  0  0  0  0  0  0  0
  152.1505  135.2319  185.3204 S   0  0  0  0  0  0  0  0  0  0  0  0
  152.7425  138.3501  183.1335 C   0  0  0  0  0  0  0  0  0  0  0  0
  153.6561  139.3730  183.2561 C   0  0  0  0  0  0  0  0  0  0  0  0
  153.6949  140.4543  182.4057 C   0  0  0  0  0  0  0  0  0  0  0  0
  154.6081  141.4258  182.5733 F   0  0  0  0  0  0  0  0  0  0  0  0
  152.7667  140.5048  181.3836 C   0  0  0  0  0  0  0  0  0  0  0  0
  151.8451  139.5109  181.2294 C   0  0  0  0  0  0  0  0  0  0  0  0
  151.8343  138.4369  182.1025 C   0  0  0  0  0  0  0  0  0  0  0  0
  150.8734  139.6219  180.1153 C   0  0  0  0  0  0  0  0  0  0  0  0
  150.6314  138.4147  179.4910 F   0  0  0  0  0  0  0  0  0  0  0  0
  149.6892  140.1387  180.6169 F   0  0  0  0  0  0  0  0  0  0  0  0
  151.3340  140.5029  179.1606 F   0  0  0  0  0  0  0  0  0  0  0  0
  153.8465  137.3728  188.3144 C   0  0  0  0  0  0  0  0  0  0  0  0
  151.6942  136.3718  193.9211 C   0  0  0  0  0  0  0  0  0  0  0  0
  151.5767  136.2589  192.4624 N   0  0  0  0  0  0  0  0  0  0  0  0
  152.5255  136.7537  191.6550 C   0  0  0  0  0  0  0  0  0  0  0  0
  153.6501  137.3839  191.9358 O   0  0  0  0  0  0  0  0  0  0  0  0
  154.2743  137.6905  190.8361 C   0  0  0  0  0  0  0  0  0  0  0  0
  155.8140  138.5338  190.6592 Cl  0  0  0  0  0  0  0  0  0  0  0  0
  153.5168  137.2351  189.7528 C   0  0  0  0  0  0  0  0  0  0  0  0
  152.4043  136.6394  190.2752 C   0  0  0  0  0  0  0  0  0  0  0  0
  151.2890  136.0058  189.7234 C   0  0  0  0  0  0  0  0  0  0  0  0
  151.1653  135.8934  188.4715 O   0  0  0  0  0  0  0  0  0  0  0  0
  150.3691  135.5287  190.5765 N   0  0  0  0  0  0  0  0  0  0  0  0
  149.2085  134.8724  190.0023 C   0  0  0  0  0  0  0  0  0  0  0  0
  150.5148  135.6554  191.9084 C   0  0  0  0  0  0  0  0  0  0  0  0
  149.6061  135.1821  192.6617 O   0  0  0  0  0  0  0  0  0  0  0  0
 22 23  1  0  0  0
 23 24  1  0  0  0
 24 25  1  0  0  0
 25 26  1  0  0  0
 26 27  1  0  0  0
 26 28  2  0  0  0
 28 21  1  0  0  0
 21  1  1  0  0  0
  1  2  2  0  0  0
  1  3  1  0  0  0
  3  5  1  0  0  0
  5  6  2  0  0  0
  6  7  1  0  0  0
  7  8  2  0  0  0
  8  9  1  0  0  0
  7 10  1  0  0  0
 10 11  2  0  0  0
 11 12  1  0  0  0
 12 13  1  0  0  0
 12 14  2  0  0  0
 14 15  1  0  0  0
 15 16  2  0  0  0
 15 17  1  0  0  0
 17 18  1  0  0  0
 17 19  1  0  0  0
 17 20  1  0  0  0
 28 29  1  0  0  0
 29 30  1  0  0  0
 30 31  2  0  0  0
 30 32  1  0  0  0
 32 33  1  0  0  0
 32 34  1  0  0  0
 34 35  2  0  0  0
 34 23  1  0  0  0
 29 24  2  0  0  0
  9  5  1  0  0  0
 16 10  1  0  0  0
  3  4  1  0  0  0
M  END
> <minimizedAffinity>
-7.88403

> <CNNscore>
0.3865368366

> <CNNaffinity>
6.0850257874

> <CNN_VS>
2.3520865440

> <CNNaffinity_variance>
0.1362814754

$$$$
[H]c1sc(N([H])C(=O)C([H])([H])c2c(Cl)oc3c2c(=O)n(C([H])([H])[H])c(=O)n3C([H])([H])[H])nc1-c1c([H])c(F)c([H])c(C(F)(F)F)c1[H]


 35 38  0  0  0  0  0  0  0  0999 V2000
  153.7675  136.3339  184.5195 C   0  0  0  0  0  0  0  0  0  0  0  0
  153.6789  135.7112  183.4041 O   0  0  0  0  0  0  0  0  0  0  0  0
  154.6648  135.8395  185.4491 N   0  0  0  0  0  0  0  0  0  0  0  0
  155.2766  134.9839  185.2892 H   0  0  0  0  0  0  0  0  0  0  0  0
  154.8157  136.4680  186.7267 C   0  0  0  0  0  0  0  0  0  0  0  0
  154.3740  135.9619  187.8638 N   0  0  0  0  0  0  0  0  0  0  0  0
  154.5537  136.5995  188.9797 C   0  0  0  0  0  0  0  0  0  0  0  0
  155.2159  137.8028  188.9117 C   0  0  0  0  0  0  0  0  0  0  0  0
  155.5310  137.9279  187.2342 S   0  0  0  0  0  0  0  0  0  0  0  0
  154.0498  136.0635  190.2650 C   0  0  0  0  0  0  0  0  0  0  0  0
  154.3425  134.7887  190.6955 C   0  0  0  0  0  0  0  0  0  0  0  0
  153.8872  134.2730  191.8875 C   0  0  0  0  0  0  0  0  0  0  0  0
  154.2025  133.0203  192.2575 F   0  0  0  0  0  0  0  0  0  0  0  0
  153.0989  135.0833  192.6818 C   0  0  0  0  0  0  0  0  0  0  0  0
  152.7865  136.3521  192.2898 C   0  0  0  0  0  0  0  0  0  0  0  0
  153.2616  136.8397  191.0845 C   0  0  0  0  0  0  0  0  0  0  0  0
  151.9350  137.1729  193.1834 C   0  0  0  0  0  0  0  0  0  0  0  0
  152.4308  138.4465  193.3775 F   0  0  0  0  0  0  0  0  0  0  0  0
  150.6635  137.2406  192.6360 F   0  0  0  0  0  0  0  0  0  0  0  0
  151.8184  136.5752  194.4200 F   0  0  0  0  0  0  0  0  0  0  0  0
  152.9069  137.5077  184.7053 C   0  0  0  0  0  0  0  0  0  0  0  0
  151.3835  140.0402  179.3822 C   0  0  0  0  0  0  0  0  0  0  0  0
  151.1143  139.1078  180.4832 N   0  0  0  0  0  0  0  0  0  0  0  0
  151.9601  139.0016  181.5179 C   0  0  0  0  0  0  0  0  0  0  0  0
  153.0955  139.6256  181.7672 O   0  0  0  0  0  0  0  0  0  0  0  0
  153.5918  139.2109  182.8963 C   0  0  0  0  0  0  0  0  0  0  0  0
  155.0863  139.7250  183.6806 Cl  0  0  0  0  0  0  0  0  0  0  0  0
  152.7316  138.2488  183.4338 C   0  0  0  0  0  0  0  0  0  0  0  0
  151.6939  138.1165  182.5557 C   0  0  0  0  0  0  0  0  0  0  0  0
  150.5393  137.3317  182.5239 C   0  0  0  0  0  0  0  0  0  0  0  0
  150.2832  136.5234  183.4601 O   0  0  0  0  0  0  0  0  0  0  0  0
  149.7269  137.4770  181.4653 N   0  0  0  0  0  0  0  0  0  0  0  0
  148.5282  136.6590  181.4313 C   0  0  0  0  0  0  0  0  0  0  0  0
  150.0126  138.3428  180.4754 C   0  0  0  0  0  0  0  0  0  0  0  0
  149.2016  138.4318  179.4999 O   0  0  0  0  0  0  0  0  0  0  0  0
 22 23  1  0  0  0
 23 24  1  0  0  0
 24 25  1  0  0  0
 25 26  1  0  0  0
 26 27  1  0  0  0
 26 28  2  0  0  0
 28 21  1  0  0  0
 21  1  1  0  0  0
  1  2  2  0  0  0
  1  3  1  0  0  0
  3  5  1  0  0  0
  5  6  2  0  0  0
  6  7  1  0  0  0
  7  8  2  0  0  0
  8  9  1  0  0  0
  7 10  1  0  0  0
 10 11  2  0  0  0
 11 12  1  0  0  0
 12 13  1  0  0  0
 12 14  2  0  0  0
 14 15  1  0  0  0
 15 16  2  0  0  0
 15 17  1  0  0  0
 17 18  1  0  0  0
 17 19  1  0  0  0
 17 20  1  0  0  0
 28 29  1  0  0  0
 29 30  1  0  0  0
 30 31  2  0  0  0
 30 32  1  0  0  0
 32 33  1  0  0  0
 32 34  1  0  0  0
 34 35  2  0  0  0
 34 23  1  0  0  0
 29 24  2  0  0  0
  9  5  1  0  0  0
 16 10  1  0  0  0
  3  4  1  0  0  0
M  END
> <minimizedAffinity>
-7.20499

> <CNNscore>
0.3815210760

> <CNNaffinity>
5.8924112320

> <CNN_VS>
2.2480790615

> <CNNaffinity_variance>
0.1322751045

$$$$
[H]c1sc(N([H])C(=O)C([H])([H])c2c(Cl)oc3c2c(=O)n(C([H])([H])[H])c(=O)n3C([H])([H])[H])nc1-c1c([H])c(F)c([H])c(C(F)(F)F)c1[H]


 35 38  0  0  0  0  0  0  0  0999 V2000
  153.8751  137.9536  188.0286 C   0  0  0  0  0  0  0  0  0  0  0  0
  153.2868  137.7204  189.1418 O   0  0  0  0  0  0  0  0  0  0  0  0
  153.0729  138.2371  186.9378 N   0  0  0  0  0  0  0  0  0  0  0  0
  152.0102  138.2724  186.9737 H   0  0  0  0  0  0  0  0  0  0  0  0
  153.6494  138.4960  185.6531 C   0  0  0  0  0  0  0  0  0  0  0  0
  154.7807  139.1501  185.4612 N   0  0  0  0  0  0  0  0  0  0  0  0
  155.2328  139.3410  184.2600 C   0  0  0  0  0  0  0  0  0  0  0  0
  154.4849  138.8341  183.2232 C   0  0  0  0  0  0  0  0  0  0  0  0
  153.1765  138.1168  184.0615 S   0  0  0  0  0  0  0  0  0  0  0  0
  156.4877  140.0892  184.0171 C   0  0  0  0  0  0  0  0  0  0  0  0
  157.3997  140.3400  185.0178 C   0  0  0  0  0  0  0  0  0  0  0  0
  158.5727  141.0299  184.8124 C   0  0  0  0  0  0  0  0  0  0  0  0
  159.4265  141.2478  185.8268 F   0  0  0  0  0  0  0  0  0  0  0  0
  158.8365  141.4882  183.5360 C   0  0  0  0  0  0  0  0  0  0  0  0
  157.9574  141.2601  182.5180 C   0  0  0  0  0  0  0  0  0  0  0  0
  156.7867  140.5620  182.7593 C   0  0  0  0  0  0  0  0  0  0  0  0
  158.2944  141.7784  181.1707 C   0  0  0  0  0  0  0  0  0  0  0  0
  157.4751  142.8161  180.7737 F   0  0  0  0  0  0  0  0  0  0  0  0
  159.6152  142.1983  181.1807 F   0  0  0  0  0  0  0  0  0  0  0  0
  158.1891  140.7771  180.2293 F   0  0  0  0  0  0  0  0  0  0  0  0
  155.3411  137.8937  188.0166 C   0  0  0  0  0  0  0  0  0  0  0  0
  157.2720  132.8895  190.8974 C   0  0  0  0  0  0  0  0  0  0  0  0
  156.7694  133.5644  189.6949 N   0  0  0  0  0  0  0  0  0  0  0  0
  156.4926  134.8761  189.7064 C   0  0  0  0  0  0  0  0  0  0  0  0
  156.5888  135.7662  190.6756 O   0  0  0  0  0  0  0  0  0  0  0  0
  156.2110  136.9345  190.2450 C   0  0  0  0  0  0  0  0  0  0  0  0
  156.1500  138.4545  191.1387 Cl  0  0  0  0  0  0  0  0  0  0  0  0
  155.8394  136.8150  188.9025 C   0  0  0  0  0  0  0  0  0  0  0  0
  156.0189  135.5048  188.5611 C   0  0  0  0  0  0  0  0  0  0  0  0
  155.8291  134.7690  187.3896 C   0  0  0  0  0  0  0  0  0  0  0  0
  155.4001  135.3265  186.3406 O   0  0  0  0  0  0  0  0  0  0  0  0
  156.1213  133.4596  187.4327 N   0  0  0  0  0  0  0  0  0  0  0  0
  155.9213  132.6945  186.2154 C   0  0  0  0  0  0  0  0  0  0  0  0
  156.5782  132.8794  188.5578 C   0  0  0  0  0  0  0  0  0  0  0  0
  156.8353  131.6342  188.5321 O   0  0  0  0  0  0  0  0  0  0  0  0
 22 23  1  0  0  0
 23 24  1  0  0  0
 24 25  1  0  0  0
 25 26  1  0  0  0
 26 27  1  0  0  0
 26 28  2  0  0  0
 28 21  1  0  0  0
 21  1  1  0  0  0
  1  2  2  0  0  0
  1  3  1  0  0  0
  3  5  1  0  0  0
  5  6  2  0  0  0
  6  7  1  0  0  0
  7  8  2  0  0  0
  8  9  1  0  0  0
  7 10  1  0  0  0
 10 11  2  0  0  0
 11 12  1  0  0  0
 12 13  1  0  0  0
 12 14  2  0  0  0
 14 15  1  0  0  0
 15 16  2  0  0  0
 15 17  1  0  0  0
 17 18  1  0  0  0
 17 19  1  0  0  0
 17 20  1  0  0  0
 28 29  1  0  0  0
 29 30  1  0  0  0
 30 31  2  0  0  0
 30 32  1  0  0  0
 32 33  1  0  0  0
 32 34  1  0  0  0
 34 35  2  0  0  0
 34 23  1  0  0  0
 29 24  2  0  0  0
  9  5  1  0  0  0
 16 10  1  0  0  0
  3  4  1  0  0  0
M  END
> <minimizedAffinity>
-7.56263

> <CNNscore>
0.3719301224

> <CNNaffinity>
6.4058446884

> <CNN_VS>
2.3825266361

> <CNNaffinity_variance>
0.2078947574

$$$$
[H]c1sc(N([H])C(=O)C([H])([H])c2c(Cl)oc3c2c(=O)n(C([H])([H])[H])c(=O)n3C([H])([H])[H])nc1-c1c([H])c(F)c([H])c(C(F)(F)F)c1[H]


 35 38  0  0  0  0  0  0  0  0999 V2000
  154.5984  136.2169  187.7246 C   0  0  0  0  0  0  0  0  0  0  0  0
  155.5063  135.7450  188.4945 O   0  0  0  0  0  0  0  0  0  0  0  0
  154.4600  135.6315  186.4789 N   0  0  0  0  0  0  0  0  0  0  0  0
  155.0571  134.8221  186.1320 H   0  0  0  0  0  0  0  0  0  0  0  0
  153.4785  136.1076  185.5516 C   0  0  0  0  0  0  0  0  0  0  0  0
  153.6466  137.1488  184.7565 N   0  0  0  0  0  0  0  0  0  0  0  0
  152.7027  137.5133  183.9441 C   0  0  0  0  0  0  0  0  0  0  0  0
  151.5457  136.7701  183.9573 C   0  0  0  0  0  0  0  0  0  0  0  0
  151.9055  135.5947  185.1481 S   0  0  0  0  0  0  0  0  0  0  0  0
  152.8585  138.6895  183.0576 C   0  0  0  0  0  0  0  0  0  0  0  0
  152.1878  138.8018  181.8603 C   0  0  0  0  0  0  0  0  0  0  0  0
  152.3158  139.8874  181.0241 C   0  0  0  0  0  0  0  0  0  0  0  0
  151.6380  139.9438  179.8652 F   0  0  0  0  0  0  0  0  0  0  0  0
  153.1614  140.9073  181.4160 C   0  0  0  0  0  0  0  0  0  0  0  0
  153.8438  140.8327  182.5949 C   0  0  0  0  0  0  0  0  0  0  0  0
  153.6915  139.7264  183.4127 C   0  0  0  0  0  0  0  0  0  0  0  0
  154.7381  141.9571  182.9602 C   0  0  0  0  0  0  0  0  0  0  0  0
  154.0580  143.1416  183.1602 F   0  0  0  0  0  0  0  0  0  0  0  0
  155.4296  141.6108  184.1104 F   0  0  0  0  0  0  0  0  0  0  0  0
  155.6715  142.1717  181.9689 F   0  0  0  0  0  0  0  0  0  0  0  0
  153.7964  137.3342  188.2358 C   0  0  0  0  0  0  0  0  0  0  0  0
  151.8556  136.2839  193.9103 C   0  0  0  0  0  0  0  0  0  0  0  0
  151.6739  136.2016  192.4562 N   0  0  0  0  0  0  0  0  0  0  0  0
  152.6009  136.6868  191.6180 C   0  0  0  0  0  0  0  0  0  0  0  0
  153.7527  137.2822  191.8619 O   0  0  0  0  0  0  0  0  0  0  0  0
  154.3381  137.5931  190.7422 C   0  0  0  0  0  0  0  0  0  0  0  0
  155.8909  138.3995  190.5151 Cl  0  0  0  0  0  0  0  0  0  0  0  0
  153.5238  137.1780  189.6842 C   0  0  0  0  0  0  0  0  0  0  0  0
  152.4188  136.6016  190.2428 C   0  0  0  0  0  0  0  0  0  0  0  0
  151.2648  136.0076  189.7278 C   0  0  0  0  0  0  0  0  0  0  0  0
  151.0856  135.9220  188.4804 O   0  0  0  0  0  0  0  0  0  0  0  0
  150.3691  135.5385  190.6106 N   0  0  0  0  0  0  0  0  0  0  0  0
  149.1684  134.9234  190.0747 C   0  0  0  0  0  0  0  0  0  0  0  0
  150.5740  135.6363  191.9371 C   0  0  0  0  0  0  0  0  0  0  0  0
  149.6855  135.1726  192.7199 O   0  0  0  0  0  0  0  0  0  0  0  0
 22 23  1  0  0  0
 23 24  1  0  0  0
 24 25  1  0  0  0
 25 26  1  0  0  0
 26 27  1  0  0  0
 26 28  2  0  0  0
 28 21  1  0  0  0
 21  1  1  0  0  0
  1  2  2  0  0  0
  1  3  1  0  0  0
  3  5  1  0  0  0
  5  6  2  0  0  0
  6  7  1  0  0  0
  7  8  2  0  0  0
  8  9  1  0  0  0
  7 10  1  0  0  0
 10 11  2  0  0  0
 11 12  1  0  0  0
 12 13  1  0  0  0
 12 14  2  0  0  0
 14 15  1  0  0  0
 15 16  2  0  0  0
 15 17  1  0  0  0
 17 18  1  0  0  0
 17 19  1  0  0  0
 17 20  1  0  0  0
 28 29  1  0  0  0
 29 30  1  0  0  0
 30 31  2  0  0  0
 30 32  1  0  0  0
 32 33  1  0  0  0
 32 34  1  0  0  0
 34 35  2  0  0  0
 34 23  1  0  0  0
 29 24  2  0  0  0
  9  5  1  0  0  0
 16 10  1  0  0  0
  3  4  1  0  0  0
M  END
> <minimizedAffinity>
-7.91808

> <CNNscore>
0.3599107862

> <CNNaffinity>
6.2087941170

> <CNN_VS>
2.2346119881

> <CNNaffinity_variance>
0.1341662258

$$$$
[H]c1sc(N([H])C(=O)C([H])([H])c2c(Cl)oc3c2c(=O)n(C([H])([H])[H])c(=O)n3C([H])([H])[H])nc1-c1c([H])c(F)c([H])c(C(F)(F)F)c1[H]


 35 38  0  0  0  0  0  0  0  0999 V2000
  154.4930  137.6015  185.3891 C   0  0  0  0  0  0  0  0  0  0  0  0
  154.4841  136.3465  185.6435 O   0  0  0  0  0  0  0  0  0  0  0  0
  155.0677  137.9996  184.1955 N   0  0  0  0  0  0  0  0  0  0  0  0
  155.4949  137.3297  183.4879 H   0  0  0  0  0  0  0  0  0  0  0  0
  155.1315  139.3852  183.8403 C   0  0  0  0  0  0  0  0  0  0  0  0
  156.2454  140.0935  183.7967 N   0  0  0  0  0  0  0  0  0  0  0  0
  156.2132  141.3474  183.4638 C   0  0  0  0  0  0  0  0  0  0  0  0
  154.9822  141.8828  183.1650 C   0  0  0  0  0  0  0  0  0  0  0  0
  153.9558  140.5316  183.3888 S   0  0  0  0  0  0  0  0  0  0  0  0
  157.4451  142.1685  183.4276 C   0  0  0  0  0  0  0  0  0  0  0  0
  157.6347  143.1697  182.5014 C   0  0  0  0  0  0  0  0  0  0  0  0
  158.7699  143.9461  182.4530 C   0  0  0  0  0  0  0  0  0  0  0  0
  158.9028  144.9092  181.5254 F   0  0  0  0  0  0  0  0  0  0  0  0
  159.7605  143.6992  183.3840 C   0  0  0  0  0  0  0  0  0  0  0  0
  159.6102  142.7157  184.3174 C   0  0  0  0  0  0  0  0  0  0  0  0
  158.4549  141.9535  184.3382 C   0  0  0  0  0  0  0  0  0  0  0  0
  160.7085  142.4965  185.2886 C   0  0  0  0  0  0  0  0  0  0  0  0
  160.2721  141.9510  186.4792 F   0  0  0  0  0  0  0  0  0  0  0  0
  161.6492  141.6625  184.7049 F   0  0  0  0  0  0  0  0  0  0  0  0
  161.3393  143.6871  185.5790 F   0  0  0  0  0  0  0  0  0  0  0  0
  153.8974  138.4951  186.3889 C   0  0  0  0  0  0  0  0  0  0  0  0
  151.8764  135.4596  191.2645 C   0  0  0  0  0  0  0  0  0  0  0  0
  152.9166  136.2310  190.5735 N   0  0  0  0  0  0  0  0  0  0  0  0
  152.7226  136.6865  189.3277 C   0  0  0  0  0  0  0  0  0  0  0  0
  151.6858  136.5670  188.5207 O   0  0  0  0  0  0  0  0  0  0  0  0
  151.9288  137.1687  187.3928 C   0  0  0  0  0  0  0  0  0  0  0  0
  150.8752  137.3038  185.9841 Cl  0  0  0  0  0  0  0  0  0  0  0  0
  153.2101  137.7250  187.4525 C   0  0  0  0  0  0  0  0  0  0  0  0
  153.7141  137.4173  188.6840 C   0  0  0  0  0  0  0  0  0  0  0  0
  154.9205  137.6807  189.3359 C   0  0  0  0  0  0  0  0  0  0  0  0
  155.8306  138.3443  188.7644 O   0  0  0  0  0  0  0  0  0  0  0  0
  155.0628  137.2015  190.5816 N   0  0  0  0  0  0  0  0  0  0  0  0
  156.3182  137.4732  191.2580 C   0  0  0  0  0  0  0  0  0  0  0  0
  154.0839  136.4964  191.1782 C   0  0  0  0  0  0  0  0  0  0  0  0
  154.2827  136.0698  192.3596 O   0  0  0  0  0  0  0  0  0  0  0  0
 22 23  1  0  0  0
 23 24  1  0  0  0
 24 25  1  0  0  0
 25 26  1  0  0  0
 26 27  1  0  0  0
 26 28  2  0  0  0
 28 21  1  0  0  0
 21  1  1  0  0  0
  1  2  2  0  0  0
  1  3  1  0  0  0
  3  5  1  0  0  0
  5  6  2  0  0  0
  6  7  1  0  0  0
  7  8  2  0  0  0
  8  9  1  0  0  0
  7 10  1  0  0  0
 10 11  2  0  0  0
 11 12  1  0  0  0
 12 13  1  0  0  0
 12 14  2  0  0  0
 14 15  1  0  0  0
 15 16  2  0  0  0
 15 17  1  0  0  0
 17 18  1  0  0  0
 17 19  1  0  0  0
 17 20  1  0  0  0
 28 29  1  0  0  0
 29 30  1  0  0  0
 30 31  2  0  0  0
 30 32  1  0  0  0
 32 33  1  0  0  0
 32 34  1  0  0  0
 34 35  2  0  0  0
 34 23  1  0  0  0
 29 24  2  0  0  0
  9  5  1  0  0  0
 16 10  1  0  0  0
  3  4  1  0  0  0
M  END
> <minimizedAffinity>
-8.79427

> <CNNscore>
0.3594257832

> <CNNaffinity>
6.5325040817

> <CNN_VS>
2.3479504585

> <CNNaffinity_variance>
0.2389436960

$$$$
[H]c1sc(N([H])C(=O)C([H])([H])c2c(Cl)oc3c2c(=O)n(C([H])([H])[H])c(=O)n3C([H])([H])[H])nc1-c1c([H])c(F)c([H])c(C(F)(F)F)c1[H]


 35 38  0  0  0  0  0  0  0  0999 V2000
  154.2787  137.1739  185.5648 C   0  0  0  0  0  0  0  0  0  0  0  0
  154.1879  135.9279  185.8459 O   0  0  0  0  0  0  0  0  0  0  0  0
  154.7784  137.5051  184.3181 N   0  0  0  0  0  0  0  0  0  0  0  0
  155.0853  136.7914  183.5911 H   0  0  0  0  0  0  0  0  0  0  0  0
  154.9257  138.8750  183.9290 C   0  0  0  0  0  0  0  0  0  0  0  0
  156.0530  139.5578  184.0147 N   0  0  0  0  0  0  0  0  0  0  0  0
  156.0988  140.7990  183.6390 C   0  0  0  0  0  0  0  0  0  0  0  0
  154.9342  141.3489  183.1568 C   0  0  0  0  0  0  0  0  0  0  0  0
  153.8524  140.0287  183.2829 S   0  0  0  0  0  0  0  0  0  0  0  0
  157.3450  141.5922  183.7444 C   0  0  0  0  0  0  0  0  0  0  0  0
  158.3465  141.2735  184.6341 C   0  0  0  0  0  0  0  0  0  0  0  0
  159.5131  141.9951  184.7453 C   0  0  0  0  0  0  0  0  0  0  0  0
  160.4571  141.6397  185.6332 F   0  0  0  0  0  0  0  0  0  0  0  0
  159.6754  143.0905  183.9191 C   0  0  0  0  0  0  0  0  0  0  0  0
  158.7057  143.4386  183.0248 C   0  0  0  0  0  0  0  0  0  0  0  0
  157.5443  142.6904  182.9386 C   0  0  0  0  0  0  0  0  0  0  0  0
  158.9361  144.6253  182.1668 C   0  0  0  0  0  0  0  0  0  0  0  0
  159.2757  144.2935  180.8706 F   0  0  0  0  0  0  0  0  0  0  0  0
  157.7852  145.3976  182.1693 F   0  0  0  0  0  0  0  0  0  0  0  0
  159.9525  145.4014  182.6811 F   0  0  0  0  0  0  0  0  0  0  0  0
  153.8485  138.1288  186.5924 C   0  0  0  0  0  0  0  0  0  0  0  0
  151.7767  135.3905  191.6202 C   0  0  0  0  0  0  0  0  0  0  0  0
  152.8454  136.0661  190.8747 N   0  0  0  0  0  0  0  0  0  0  0  0
  152.6444  136.4962  189.6210 C   0  0  0  0  0  0  0  0  0  0  0  0
  151.5771  136.4249  188.8487 O   0  0  0  0  0  0  0  0  0  0  0  0
  151.8257  136.9738  187.6954 C   0  0  0  0  0  0  0  0  0  0  0  0
  150.7404  137.1394  186.3142 Cl  0  0  0  0  0  0  0  0  0  0  0  0
  153.1434  137.4410  187.6998 C   0  0  0  0  0  0  0  0  0  0  0  0
  153.6632  137.1364  188.9255 C   0  0  0  0  0  0  0  0  0  0  0  0
  154.9047  137.3346  189.5333 C   0  0  0  0  0  0  0  0  0  0  0  0
  155.8400  137.9155  188.9144 O   0  0  0  0  0  0  0  0  0  0  0  0
  155.0525  136.8846  190.7892 N   0  0  0  0  0  0  0  0  0  0  0  0
  156.3441  137.0885  191.4197 C   0  0  0  0  0  0  0  0  0  0  0  0
  154.0465  136.2677  191.4363 C   0  0  0  0  0  0  0  0  0  0  0  0
  154.2522  135.8643  192.6247 O   0  0  0  0  0  0  0  0  0  0  0  0
 22 23  1  0  0  0
 23 24  1  0  0  0
 24 25  1  0  0  0
 25 26  1  0  0  0
 26 27  1  0  0  0
 26 28  2  0  0  0
 28 21  1  0  0  0
 21  1  1  0  0  0
  1  2  2  0  0  0
  1  3  1  0  0  0
  3  5  1  0  0  0
  5  6  2  0  0  0
  6  7  1  0  0  0
  7  8  2  0  0  0
  8  9  1  0  0  0
  7 10  1  0  0  0
 10 11  2  0  0  0
 11 12  1  0  0  0
 12 13  1  0  0  0
 12 14  2  0  0  0
 14 15  1  0  0  0
 15 16  2  0  0  0
 15 17  1  0  0  0
 17 18  1  0  0  0
 17 19  1  0  0  0
 17 20  1  0  0  0
 28 29  1  0  0  0
 29 30  1  0  0  0
 30 31  2  0  0  0
 30 32  1  0  0  0
 32 33  1  0  0  0
 32 34  1  0  0  0
 34 35  2  0  0  0
 34 23  1  0  0  0
 29 24  2  0  0  0
  9  5  1  0  0  0
 16 10  1  0  0  0
  3  4  1  0  0  0
M  END
> <minimizedAffinity>
-8.46460

> <CNNscore>
0.3290326297

> <CNNaffinity>
6.3421649933

> <CNN_VS>
2.0867791176

> <CNNaffinity_variance>
0.3645936847

$$$$
[H]c1c(C([H])([H])n2c(=O)c3c(nc([H])n3C([H])([H])C(=O)N([H])c3nc(N4C([H])([H])C5([H])C([H])([H])C5([H])C4([H])[H])c([H])c([H])c3[H])n(C([H])([H])[H])c2=O)noc1C([H])([H])[H]


 36 41  0  0  0  0  0  0  0  0999 V2000
  158.6892  141.6659  182.6711 N   0  0  0  0  0  0  0  0  0  0  0  0
  158.4998  142.9865  182.4211 C   0  0  0  0  0  0  0  0  0  0  0  0
  159.4982  143.7166  182.1536 O   0  0  0  0  0  0  0  0  0  0  0  0
  157.2743  143.5386  182.4510 N   0  0  0  0  0  0  0  0  0  0  0  0
  157.0691  144.9469  182.1847 C   0  0  0  0  0  0  0  0  0  0  0  0
  156.2385  142.7298  182.7390 C   0  0  0  0  0  0  0  0  0  0  0  0
  154.9128  142.9741  182.8439 N   0  0  0  0  0  0  0  0  0  0  0  0
  154.3055  141.8154  183.1539 C   0  0  0  0  0  0  0  0  0  0  0  0
  155.1870  140.8216  183.2555 N   0  0  0  0  0  0  0  0  0  0  0  0
  156.3896  141.3756  183.0004 C   0  0  0  0  0  0  0  0  0  0  0  0
  157.6759  140.8562  182.9568 C   0  0  0  0  0  0  0  0  0  0  0  0
  157.8000  139.6272  183.1955 O   0  0  0  0  0  0  0  0  0  0  0  0
  160.0412  141.1004  182.6291 C   0  0  0  0  0  0  0  0  0  0  0  0
  161.4550  143.3272  186.9731 C   0  0  0  0  0  0  0  0  0  0  0  0
  161.4722  142.5763  185.6812 C   0  0  0  0  0  0  0  0  0  0  0  0
  160.3936  142.3272  184.8728 C   0  0  0  0  0  0  0  0  0  0  0  0
  160.8430  141.6012  183.7755 C   0  0  0  0  0  0  0  0  0  0  0  0
  162.1675  141.4571  183.9909 N   0  0  0  0  0  0  0  0  0  0  0  0
  162.5150  142.0288  185.1006 O   0  0  0  0  0  0  0  0  0  0  0  0
  154.9328  139.4531  183.5677 C   0  0  0  0  0  0  0  0  0  0  0  0
  153.5490  139.0414  183.0837 C   0  0  0  0  0  0  0  0  0  0  0  0
  152.8744  138.3787  183.8745 O   0  0  0  0  0  0  0  0  0  0  0  0
  153.1077  139.4129  181.8119 N   0  0  0  0  0  0  0  0  0  0  0  0
  153.7862  139.9911  181.2130 H   0  0  0  0  0  0  0  0  0  0  0  0
  151.8626  139.1180  181.2091 C   0  0  0  0  0  0  0  0  0  0  0  0
  151.5864  139.2423  179.8744 C   0  0  0  0  0  0  0  0  0  0  0  0
  150.3160  138.9198  179.3957 C   0  0  0  0  0  0  0  0  0  0  0  0
  149.3553  138.4795  180.2763 C   0  0  0  0  0  0  0  0  0  0  0  0
  149.6266  138.3507  181.6292 C   0  0  0  0  0  0  0  0  0  0  0  0
  150.8582  138.6764  182.0120 N   0  0  0  0  0  0  0  0  0  0  0  0
  148.6195  137.8958  182.5036 N   0  0  0  0  0  0  0  0  0  0  0  0
  148.2555  136.5317  182.7585 C   0  0  0  0  0  0  0  0  0  0  0  0
  148.1259  136.5350  184.2895 C   0  0  0  0  0  0  0  0  0  0  0  0
  146.8123  136.8442  184.8527 C   0  0  0  0  0  0  0  0  0  0  0  0
  147.6994  137.9831  184.6147 C   0  0  0  0  0  0  0  0  0  0  0  0
  147.7513  138.7143  183.3149 C   0  0  0  0  0  0  0  0  0  0  0  0
 14 15  1  0  0  0
 15 16  2  0  0  0
 16 17  1  0  0  0
 17 13  1  0  0  0
 13  1  1  0  0  0
  1  2  1  0  0  0
  2  3  2  0  0  0
  2  4  1  0  0  0
  4  5  1  0  0  0
  4  6  1  0  0  0
  6  7  1  0  0  0
  7  8  2  0  0  0
  8  9  1  0  0  0
  9 20  1  0  0  0
 20 21  1  0  0  0
 21 22  2  0  0  0
 21 23  1  0  0  0
 23 25  1  0  0  0
 25 26  2  0  0  0
 26 27  1  0  0  0
 27 28  2  0  0  0
 28 29  1  0  0  0
 29 30  2  0  0  0
 29 31  1  0  0  0
 31 32  1  0  0  0
 32 33  1  0  0  0
 33 34  1  0  0  0
 34 35  1  0  0  0
 35 36  1  0  0  0
  9 10  1  0  0  0
 10 11  1  0  0  0
 11 12  2  0  0  0
 17 18  2  0  0  0
 18 19  1  0  0  0
 19 15  1  0  0  0
 11  1  1  0  0  0
 10  6  2  0  0  0
 30 25  1  0  0  0
 36 31  1  0  0  0
 35 33  1  0  0  0
 23 24  1  0  0  0
M  END
> <minimizedAffinity>
-8.93842

> <CNNscore>
0.7794816494

> <CNNaffinity>
6.9598722458

> <CNN_VS>
5.4250926971

> <CNNaffinity_variance>
0.1367941797

$$$$
[H]c1c(C([H])([H])n2c(=O)c3c(nc([H])n3C([H])([H])C(=O)N([H])c3nc(N4C([H])([H])C5([H])C([H])([H])C5([H])C4([H])[H])c([H])c([H])c3[H])n(C([H])([H])[H])c2=O)noc1C([H])([H])[H]


 36 41  0  0  0  0  0  0  0  0999 V2000
  158.0684  141.1822  183.5094 N   0  0  0  0  0  0  0  0  0  0  0  0
  157.5398  142.3021  182.9537 C   0  0  0  0  0  0  0  0  0  0  0  0
  158.3125  143.2265  182.5665 O   0  0  0  0  0  0  0  0  0  0  0  0
  156.2122  142.4531  182.8043 N   0  0  0  0  0  0  0  0  0  0  0  0
  155.6455  143.6465  182.2118 C   0  0  0  0  0  0  0  0  0  0  0  0
  155.4240  141.4485  183.2279 C   0  0  0  0  0  0  0  0  0  0  0  0
  154.0804  141.2985  183.2184 N   0  0  0  0  0  0  0  0  0  0  0  0
  153.7973  140.1019  183.7619 C   0  0  0  0  0  0  0  0  0  0  0  0
  154.9084  139.4636  184.1268 N   0  0  0  0  0  0  0  0  0  0  0  0
  155.9244  140.2882  183.8010 C   0  0  0  0  0  0  0  0  0  0  0  0
  157.3021  140.1831  183.9319 C   0  0  0  0  0  0  0  0  0  0  0  0
  157.7435  139.1264  184.4529 O   0  0  0  0  0  0  0  0  0  0  0  0
  159.5215  141.0543  183.6553 C   0  0  0  0  0  0  0  0  0  0  0  0
  162.3157  143.3522  187.2246 C   0  0  0  0  0  0  0  0  0  0  0  0
  161.1878  142.6971  186.4954 C   0  0  0  0  0  0  0  0  0  0  0  0
  161.2211  142.2168  185.2121 C   0  0  0  0  0  0  0  0  0  0  0  0
  159.9680  141.6886  184.9228 C   0  0  0  0  0  0  0  0  0  0  0  0
  159.2552  141.8837  186.0520 N   0  0  0  0  0  0  0  0  0  0  0  0
  159.9784  142.4698  186.9535 O   0  0  0  0  0  0  0  0  0  0  0  0
  155.0212  138.1785  184.7357 C   0  0  0  0  0  0  0  0  0  0  0  0
  154.7614  138.2707  186.2333 C   0  0  0  0  0  0  0  0  0  0  0  0
  153.7402  138.8741  186.5688 O   0  0  0  0  0  0  0  0  0  0  0  0
  155.6522  137.6925  187.1401 N   0  0  0  0  0  0  0  0  0  0  0  0
  156.5082  137.1925  186.7270 H   0  0  0  0  0  0  0  0  0  0  0  0
  155.5643  137.6844  188.5518 C   0  0  0  0  0  0  0  0  0  0  0  0
  156.5089  138.1938  189.4011 C   0  0  0  0  0  0  0  0  0  0  0  0
  156.3096  138.1274  190.7806 C   0  0  0  0  0  0  0  0  0  0  0  0
  155.1614  137.5483  191.2690 C   0  0  0  0  0  0  0  0  0  0  0  0
  154.1999  137.0301  190.4160 C   0  0  0  0  0  0  0  0  0  0  0  0
  154.4584  137.1290  189.1149 N   0  0  0  0  0  0  0  0  0  0  0  0
  153.0346  136.4447  190.9499 N   0  0  0  0  0  0  0  0  0  0  0  0
  152.5760  136.5279  192.3067 C   0  0  0  0  0  0  0  0  0  0  0  0
  151.0800  136.8127  192.1027 C   0  0  0  0  0  0  0  0  0  0  0  0
  150.1818  135.6618  192.0171 C   0  0  0  0  0  0  0  0  0  0  0  0
  150.7602  136.1273  190.7563 C   0  0  0  0  0  0  0  0  0  0  0  0
  152.0718  135.6413  190.2362 C   0  0  0  0  0  0  0  0  0  0  0  0
 14 15  1  0  0  0
 15 16  2  0  0  0
 16 17  1  0  0  0
 17 13  1  0  0  0
 13  1  1  0  0  0
  1  2  1  0  0  0
  2  3  2  0  0  0
  2  4  1  0  0  0
  4  5  1  0  0  0
  4  6  1  0  0  0
  6  7  1  0  0  0
  7  8  2  0  0  0
  8  9  1  0  0  0
  9 20  1  0  0  0
 20 21  1  0  0  0
 21 22  2  0  0  0
 21 23  1  0  0  0
 23 25  1  0  0  0
 25 26  2  0  0  0
 26 27  1  0  0  0
 27 28  2  0  0  0
 28 29  1  0  0  0
 29 30  2  0  0  0
 29 31  1  0  0  0
 31 32  1  0  0  0
 32 33  1  0  0  0
 33 34  1  0  0  0
 34 35  1  0  0  0
 35 36  1  0  0  0
  9 10  1  0  0  0
 10 11  1  0  0  0
 11 12  2  0  0  0
 17 18  2  0  0  0
 18 19  1  0  0  0
 19 15  1  0  0  0
 11  1  1  0  0  0
 10  6  2  0  0  0
 30 25  1  0  0  0
 36 31  1  0  0  0
 35 33  1  0  0  0
 23 24  1  0  0  0
M  END
> <minimizedAffinity>
-9.19052

> <CNNscore>
0.5820785761

> <CNNaffinity>
6.6528487206

> <CNN_VS>
3.8724806309

> <CNNaffinity_variance>
0.2099297941

$$$$
[H]c1c(C([H])([H])n2c(=O)c3c(nc([H])n3C([H])([H])C(=O)N([H])c3nc(N4C([H])([H])C5([H])C([H])([H])C5([H])C4([H])[H])c([H])c([H])c3[H])n(C([H])([H])[H])c2=O)noc1C([H])([H])[H]


 36 41  0  0  0  0  0  0  0  0999 V2000
  158.4943  142.0035  183.0148 N   0  0  0  0  0  0  0  0  0  0  0  0
  158.3364  143.3081  182.6752 C   0  0  0  0  0  0  0  0  0  0  0  0
  159.3569  144.0485  182.5657 O   0  0  0  0  0  0  0  0  0  0  0  0
  157.1192  143.8337  182.4518 N   0  0  0  0  0  0  0  0  0  0  0  0
  156.9477  145.2250  182.0894 C   0  0  0  0  0  0  0  0  0  0  0  0
  156.0593  143.0148  182.5780 C   0  0  0  0  0  0  0  0  0  0  0  0
  154.7341  143.2339  182.4234 N   0  0  0  0  0  0  0  0  0  0  0  0
  154.0959  142.0759  182.6664 C   0  0  0  0  0  0  0  0  0  0  0  0
  154.9567  141.1068  182.9746 N   0  0  0  0  0  0  0  0  0  0  0  0
  156.1779  141.6762  182.9232 C   0  0  0  0  0  0  0  0  0  0  0  0
  157.4569  141.1841  183.1429 C   0  0  0  0  0  0  0  0  0  0  0  0
  157.5514  139.9690  183.4552 O   0  0  0  0  0  0  0  0  0  0  0  0
  159.8380  141.4668  183.2503 C   0  0  0  0  0  0  0  0  0  0  0  0
  162.7842  142.9287  187.1247 C   0  0  0  0  0  0  0  0  0  0  0  0
  161.6085  142.5089  186.3033 C   0  0  0  0  0  0  0  0  0  0  0  0
  161.6184  142.2089  184.9660 C   0  0  0  0  0  0  0  0  0  0  0  0
  160.3221  141.8674  184.5969 C   0  0  0  0  0  0  0  0  0  0  0  0
  159.6095  141.9831  185.7371 N   0  0  0  0  0  0  0  0  0  0  0  0
  160.3716  142.3560  186.7166 O   0  0  0  0  0  0  0  0  0  0  0  0
  154.6678  139.7471  183.2949 C   0  0  0  0  0  0  0  0  0  0  0  0
  153.3353  139.3258  182.6902 C   0  0  0  0  0  0  0  0  0  0  0  0
  152.5439  138.7735  183.4572 O   0  0  0  0  0  0  0  0  0  0  0  0
  153.0648  139.5690  181.3419 N   0  0  0  0  0  0  0  0  0  0  0  0
  153.8337  140.0582  180.7738 H   0  0  0  0  0  0  0  0  0  0  0  0
  151.8890  139.2467  180.6248 C   0  0  0  0  0  0  0  0  0  0  0  0
  151.3220  140.0267  179.6536 C   0  0  0  0  0  0  0  0  0  0  0  0
  150.1571  139.6010  179.0141 C   0  0  0  0  0  0  0  0  0  0  0  0
  149.5929  138.3982  179.3709 C   0  0  0  0  0  0  0  0  0  0  0  0
  150.1606  137.6024  180.3532 C   0  0  0  0  0  0  0  0  0  0  0  0
  151.2692  138.0728  180.9183 N   0  0  0  0  0  0  0  0  0  0  0  0
  149.5572  136.3753  180.6935 N   0  0  0  0  0  0  0  0  0  0  0  0
  148.1637  136.0479  180.5984 C   0  0  0  0  0  0  0  0  0  0  0  0
  148.2250  134.6473  179.9695 C   0  0  0  0  0  0  0  0  0  0  0  0
  148.2880  133.5039  180.8788 C   0  0  0  0  0  0  0  0  0  0  0  0
  149.5701  134.0812  180.4742 C   0  0  0  0  0  0  0  0  0  0  0  0
  150.2232  135.2037  181.2092 C   0  0  0  0  0  0  0  0  0  0  0  0
 14 15  1  0  0  0
 15 16  2  0  0  0
 16 17  1  0  0  0
 17 13  1  0  0  0
 13  1  1  0  0  0
  1  2  1  0  0  0
  2  3  2  0  0  0
  2  4  1  0  0  0
  4  5  1  0  0  0
  4  6  1  0  0  0
  6  7  1  0  0  0
  7  8  2  0  0  0
  8  9  1  0  0  0
  9 20  1  0  0  0
 20 21  1  0  0  0
 21 22  2  0  0  0
 21 23  1  0  0  0
 23 25  1  0  0  0
 25 26  2  0  0  0
 26 27  1  0  0  0
 27 28  2  0  0  0
 28 29  1  0  0  0
 29 30  2  0  0  0
 29 31  1  0  0  0
 31 32  1  0  0  0
 32 33  1  0  0  0
 33 34  1  0  0  0
 34 35  1  0  0  0
 35 36  1  0  0  0
  9 10  1  0  0  0
 10 11  1  0  0  0
 11 12  2  0  0  0
 17 18  2  0  0  0
 18 19  1  0  0  0
 19 15  1  0  0  0
 11  1  1  0  0  0
 10  6  2  0  0  0
 30 25  1  0  0  0
 36 31  1  0  0  0
 35 33  1  0  0  0
 23 24  1  0  0  0
M  END
> <minimizedAffinity>
-9.05887

> <CNNscore>
0.5644400120

> <CNNaffinity>
6.5792555809

> <CNN_VS>
3.7135951519

> <CNNaffinity_variance>
0.1912345588

$$$$
[H]c1c(C([H])([H])n2c(=O)c3c(nc([H])n3C([H])([H])C(=O)N([H])c3nc(N4C([H])([H])C5([H])C([H])([H])C5([H])C4([H])[H])c([H])c([H])c3[H])n(C([H])([H])[H])c2=O)noc1C([H])([H])[H]


 36 41  0  0  0  0  0  0  0  0999 V2000
  152.0701  138.5545  182.0735 N   0  0  0  0  0  0  0  0  0  0  0  0
  152.5846  139.7414  181.6624 C   0  0  0  0  0  0  0  0  0  0  0  0
  152.0631  140.3343  180.6734 O   0  0  0  0  0  0  0  0  0  0  0  0
  153.6371  140.3034  182.2820 N   0  0  0  0  0  0  0  0  0  0  0  0
  154.1881  141.5693  181.8458 C   0  0  0  0  0  0  0  0  0  0  0  0
  154.1634  139.6427  183.3291 C   0  0  0  0  0  0  0  0  0  0  0  0
  155.2014  139.9364  184.1443 N   0  0  0  0  0  0  0  0  0  0  0  0
  155.3150  138.9395  185.0391 C   0  0  0  0  0  0  0  0  0  0  0  0
  154.3881  138.0038  184.8382 N   0  0  0  0  0  0  0  0  0  0  0  0
  153.6673  138.4280  183.7804 C   0  0  0  0  0  0  0  0  0  0  0  0
  152.5798  137.8917  183.1054 C   0  0  0  0  0  0  0  0  0  0  0  0
  152.1391  136.7901  183.5241 O   0  0  0  0  0  0  0  0  0  0  0  0
  150.9213  137.9734  181.3721 C   0  0  0  0  0  0  0  0  0  0  0  0
  146.8553  138.9314  184.2666 C   0  0  0  0  0  0  0  0  0  0  0  0
  147.8671  138.9684  183.1675 C   0  0  0  0  0  0  0  0  0  0  0  0
  148.9916  138.1904  183.0729 C   0  0  0  0  0  0  0  0  0  0  0  0
  149.6549  138.5416  181.9026 C   0  0  0  0  0  0  0  0  0  0  0  0
  148.8875  139.5118  181.3628 N   0  0  0  0  0  0  0  0  0  0  0  0
  147.8549  139.7464  182.1098 O   0  0  0  0  0  0  0  0  0  0  0  0
  154.1843  136.7995  185.5751 C   0  0  0  0  0  0  0  0  0  0  0  0
  153.7371  137.1108  186.9970 C   0  0  0  0  0  0  0  0  0  0  0  0
  152.5397  137.3642  187.1440 O   0  0  0  0  0  0  0  0  0  0  0  0
  154.6604  137.0995  188.0447 N   0  0  0  0  0  0  0  0  0  0  0  0
  155.6773  136.8640  187.7922 H   0  0  0  0  0  0  0  0  0  0  0  0
  154.4177  137.3629  189.4131 C   0  0  0  0  0  0  0  0  0  0  0  0
  155.0690  138.3074  190.1592 C   0  0  0  0  0  0  0  0  0  0  0  0
  154.7413  138.4755  191.5051 C   0  0  0  0  0  0  0  0  0  0  0  0
  153.7638  137.6859  192.0649 C   0  0  0  0  0  0  0  0  0  0  0  0
  153.0993  136.7272  191.3164 C   0  0  0  0  0  0  0  0  0  0  0  0
  153.4650  136.6242  190.0416 N   0  0  0  0  0  0  0  0  0  0  0  0
  152.1023  135.9361  191.9211 N   0  0  0  0  0  0  0  0  0  0  0  0
  151.9499  135.6696  193.3225 C   0  0  0  0  0  0  0  0  0  0  0  0
  150.4360  135.8604  193.5031 C   0  0  0  0  0  0  0  0  0  0  0  0
  149.5844  134.6844  193.3296 C   0  0  0  0  0  0  0  0  0  0  0  0
  149.8543  135.4720  192.1264 C   0  0  0  0  0  0  0  0  0  0  0  0
  151.0368  135.2334  191.2480 C   0  0  0  0  0  0  0  0  0  0  0  0
 14 15  1  0  0  0
 15 16  2  0  0  0
 16 17  1  0  0  0
 17 13  1  0  0  0
 13  1  1  0  0  0
  1  2  1  0  0  0
  2  3  2  0  0  0
  2  4  1  0  0  0
  4  5  1  0  0  0
  4  6  1  0  0  0
  6  7  1  0  0  0
  7  8  2  0  0  0
  8  9  1  0  0  0
  9 20  1  0  0  0
 20 21  1  0  0  0
 21 22  2  0  0  0
 21 23  1  0  0  0
 23 25  1  0  0  0
 25 26  2  0  0  0
 26 27  1  0  0  0
 27 28  2  0  0  0
 28 29  1  0  0  0
 29 30  2  0  0  0
 29 31  1  0  0  0
 31 32  1  0  0  0
 32 33  1  0  0  0
 33 34  1  0  0  0
 34 35  1  0  0  0
 35 36  1  0  0  0
  9 10  1  0  0  0
 10 11  1  0  0  0
 11 12  2  0  0  0
 17 18  2  0  0  0
 18 19  1  0  0  0
 19 15  1  0  0  0
 11  1  1  0  0  0
 10  6  2  0  0  0
 30 25  1  0  0  0
 36 31  1  0  0  0
 35 33  1  0  0  0
 23 24  1  0  0  0
M  END
> <minimizedAffinity>
-7.22179

> <CNNscore>
0.5243837237

> <CNNaffinity>
5.8692035675

> <CNN_VS>
3.0777149200

> <CNNaffinity_variance>
0.1744003594

$$$$
[H]c1c(C([H])([H])n2c(=O)c3c(nc([H])n3C([H])([H])C(=O)N([H])c3nc(N4C([H])([H])C5([H])C([H])([H])C5([H])C4([H])[H])c([H])c([H])c3[H])n(C([H])([H])[H])c2=O)noc1C([H])([H])[H]


 36 41  0  0  0  0  0  0  0  0999 V2000
  158.8021  141.5885  182.8988 N   0  0  0  0  0  0  0  0  0  0  0  0
  158.2819  142.7617  182.4568 C   0  0  0  0  0  0  0  0  0  0  0  0
  159.0337  143.5898  181.8648 O   0  0  0  0  0  0  0  0  0  0  0  0
  156.9841  143.0656  182.6332 N   0  0  0  0  0  0  0  0  0  0  0  0
  156.4263  144.3162  182.1629 C   0  0  0  0  0  0  0  0  0  0  0  0
  156.2174  142.1598  183.2668 C   0  0  0  0  0  0  0  0  0  0  0  0
  154.9049  142.1668  183.5916 N   0  0  0  0  0  0  0  0  0  0  0  0
  154.6325  141.0116  184.2231 C   0  0  0  0  0  0  0  0  0  0  0  0
  155.7204  140.2490  184.3230 N   0  0  0  0  0  0  0  0  0  0  0  0
  156.7103  140.9497  183.7337 C   0  0  0  0  0  0  0  0  0  0  0  0
  158.0568  140.6855  183.5257 C   0  0  0  0  0  0  0  0  0  0  0  0
  158.4917  139.5852  183.9535 O   0  0  0  0  0  0  0  0  0  0  0  0
  160.2224  141.2929  182.6875 C   0  0  0  0  0  0  0  0  0  0  0  0
  161.6430  143.4457  187.0664 C   0  0  0  0  0  0  0  0  0  0  0  0
  161.6540  142.6987  185.7722 C   0  0  0  0  0  0  0  0  0  0  0  0
  160.5819  142.4971  184.9423 C   0  0  0  0  0  0  0  0  0  0  0  0
  161.0219  141.7564  183.8511 C   0  0  0  0  0  0  0  0  0  0  0  0
  162.3349  141.5568  184.0912 N   0  0  0  0  0  0  0  0  0  0  0  0
  162.6842  142.1102  185.2097 O   0  0  0  0  0  0  0  0  0  0  0  0
  155.8350  138.9600  184.9234 C   0  0  0  0  0  0  0  0  0  0  0  0
  154.4726  138.2852  185.0074 C   0  0  0  0  0  0  0  0  0  0  0  0
  153.9583  137.9696  183.9325 O   0  0  0  0  0  0  0  0  0  0  0  0
  153.8751  138.0555  186.2485 N   0  0  0  0  0  0  0  0  0  0  0  0
  154.4211  138.3756  187.1161 H   0  0  0  0  0  0  0  0  0  0  0  0
  152.6248  137.4461  186.5060 C   0  0  0  0  0  0  0  0  0  0  0  0
  152.2745  136.8368  187.6804 C   0  0  0  0  0  0  0  0  0  0  0  0
  151.0071  136.2688  187.8162 C   0  0  0  0  0  0  0  0  0  0  0  0
  150.1244  136.3299  186.7629 C   0  0  0  0  0  0  0  0  0  0  0  0
  150.4712  136.9449  185.5704 C   0  0  0  0  0  0  0  0  0  0  0  0
  151.6949  137.4634  185.5144 N   0  0  0  0  0  0  0  0  0  0  0  0
  149.5422  136.9907  184.5118 N   0  0  0  0  0  0  0  0  0  0  0  0
  148.2141  137.5312  184.5575 C   0  0  0  0  0  0  0  0  0  0  0  0
  148.1682  138.3301  183.2458 C   0  0  0  0  0  0  0  0  0  0  0  0
  147.6932  137.6342  182.0507 C   0  0  0  0  0  0  0  0  0  0  0  0
  149.1300  137.5581  182.3166 C   0  0  0  0  0  0  0  0  0  0  0  0
  149.7428  136.4986  183.1703 C   0  0  0  0  0  0  0  0  0  0  0  0
 14 15  1  0  0  0
 15 16  2  0  0  0
 16 17  1  0  0  0
 17 13  1  0  0  0
 13  1  1  0  0  0
  1  2  1  0  0  0
  2  3  2  0  0  0
  2  4  1  0  0  0
  4  5  1  0  0  0
  4  6  1  0  0  0
  6  7  1  0  0  0
  7  8  2  0  0  0
  8  9  1  0  0  0
  9 20  1  0  0  0
 20 21  1  0  0  0
 21 22  2  0  0  0
 21 23  1  0  0  0
 23 25  1  0  0  0
 25 26  2  0  0  0
 26 27  1  0  0  0
 27 28  2  0  0  0
 28 29  1  0  0  0
 29 30  2  0  0  0
 29 31  1  0  0  0
 31 32  1  0  0  0
 32 33  1  0  0  0
 33 34  1  0  0  0
 34 35  1  0  0  0
 35 36  1  0  0  0
  9 10  1  0  0  0
 10 11  1  0  0  0
 11 12  2  0  0  0
 17 18  2  0  0  0
 18 19  1  0  0  0
 19 15  1  0  0  0
 11  1  1  0  0  0
 10  6  2  0  0  0
 30 25  1  0  0  0
 36 31  1  0  0  0
 35 33  1  0  0  0
 23 24  1  0  0  0
M  END
> <minimizedAffinity>
-8.03353

> <CNNscore>
0.5150560141

> <CNNaffinity>
6.6626801491

> <CNN_VS>
3.4316534996

> <CNNaffinity_variance>
0.0926347524

$$$$
[H]c1c(C([H])([H])n2c(=O)c3c(nc([H])n3C([H])([H])C(=O)N([H])c3nc(N4C([H])([H])C5([H])C([H])([H])C5([H])C4([H])[H])c([H])c([H])c3[H])n(C([H])([H])[H])c2=O)noc1C([H])([H])[H]


 36 41  0  0  0  0  0  0  0  0999 V2000
  158.5379  141.7277  182.8823 N   0  0  0  0  0  0  0  0  0  0  0  0
  158.4058  142.9891  182.3987 C   0  0  0  0  0  0  0  0  0  0  0  0
  159.4132  143.5713  181.9010 O   0  0  0  0  0  0  0  0  0  0  0  0
  157.2278  143.6361  182.4360 N   0  0  0  0  0  0  0  0  0  0  0  0
  157.0839  144.9816  181.9210 C   0  0  0  0  0  0  0  0  0  0  0  0
  156.1807  142.9839  182.9726 C   0  0  0  0  0  0  0  0  0  0  0  0
  154.8922  143.3519  183.1525 N   0  0  0  0  0  0  0  0  0  0  0  0
  154.2505  142.3260  183.7383 C   0  0  0  0  0  0  0  0  0  0  0  0
  155.0736  141.2996  183.9480 N   0  0  0  0  0  0  0  0  0  0  0  0
  156.2739  141.6949  183.4775 C   0  0  0  0  0  0  0  0  0  0  0  0
  157.5127  141.0723  183.4146 C   0  0  0  0  0  0  0  0  0  0  0  0
  157.5845  139.9038  183.8755 O   0  0  0  0  0  0  0  0  0  0  0  0
  159.8391  141.0548  182.8238 C   0  0  0  0  0  0  0  0  0  0  0  0
  161.6394  143.3929  186.9615 C   0  0  0  0  0  0  0  0  0  0  0  0
  161.5409  142.6155  185.6891 C   0  0  0  0  0  0  0  0  0  0  0  0
  160.3918  142.3334  184.9972 C   0  0  0  0  0  0  0  0  0  0  0  0
  160.7422  141.5914  183.8748 C   0  0  0  0  0  0  0  0  0  0  0  0
  162.0838  141.4717  183.9598 N   0  0  0  0  0  0  0  0  0  0  0  0
  162.5300  142.0717  185.0182 O   0  0  0  0  0  0  0  0  0  0  0  0
  154.7693  140.0396  184.5435 C   0  0  0  0  0  0  0  0  0  0  0  0
  154.0724  139.1283  183.5422 C   0  0  0  0  0  0  0  0  0  0  0  0
  154.0250  139.5376  182.3804 O   0  0  0  0  0  0  0  0  0  0  0  0
  153.5321  137.9089  183.9561 N   0  0  0  0  0  0  0  0  0  0  0  0
  153.6358  137.6606  184.9958 H   0  0  0  0  0  0  0  0  0  0  0  0
  152.8576  136.9498  183.1650 C   0  0  0  0  0  0  0  0  0  0  0  0
  151.5091  136.9316  182.9314 C   0  0  0  0  0  0  0  0  0  0  0  0
  150.9570  135.9310  182.1308 C   0  0  0  0  0  0  0  0  0  0  0  0
  151.7800  134.9729  181.5855 C   0  0  0  0  0  0  0  0  0  0  0  0
  153.1463  134.9840  181.8169 C   0  0  0  0  0  0  0  0  0  0  0  0
  153.6003  135.9673  182.5893 N   0  0  0  0  0  0  0  0  0  0  0  0
  153.9605  133.9880  181.2418 N   0  0  0  0  0  0  0  0  0  0  0  0
  154.5551  134.0128  179.9365 C   0  0  0  0  0  0  0  0  0  0  0  0
  155.9795  133.5259  180.2444 C   0  0  0  0  0  0  0  0  0  0  0  0
  156.2275  132.0863  180.1768 C   0  0  0  0  0  0  0  0  0  0  0  0
  155.7921  132.6085  181.4724 C   0  0  0  0  0  0  0  0  0  0  0  0
  154.3553  132.7419  181.8527 C   0  0  0  0  0  0  0  0  0  0  0  0
 14 15  1  0  0  0
 15 16  2  0  0  0
 16 17  1  0  0  0
 17 13  1  0  0  0
 13  1  1  0  0  0
  1  2  1  0  0  0
  2  3  2  0  0  0
  2  4  1  0  0  0
  4  5  1  0  0  0
  4  6  1  0  0  0
  6  7  1  0  0  0
  7  8  2  0  0  0
  8  9  1  0  0  0
  9 20  1  0  0  0
 20 21  1  0  0  0
 21 22  2  0  0  0
 21 23  1  0  0  0
 23 25  1  0  0  0
 25 26  2  0  0  0
 26 27  1  0  0  0
 27 28  2  0  0  0
 28 29  1  0  0  0
 29 30  2  0  0  0
 29 31  1  0  0  0
 31 32  1  0  0  0
 32 33  1  0  0  0
 33 34  1  0  0  0
 34 35  1  0  0  0
 35 36  1  0  0  0
  9 10  1  0  0  0
 10 11  1  0  0  0
 11 12  2  0  0  0
 17 18  2  0  0  0
 18 19  1  0  0  0
 19 15  1  0  0  0
 11  1  1  0  0  0
 10  6  2  0  0  0
 30 25  1  0  0  0
 36 31  1  0  0  0
 35 33  1  0  0  0
 23 24  1  0  0  0
M  END
> <minimizedAffinity>
-8.13537

> <CNNscore>
0.4908691049

> <CNNaffinity>
6.7490110397

> <CNN_VS>
3.3128809929

> <CNNaffinity_variance>
0.1199181527

$$$$
[H]c1c(C([H])([H])n2c(=O)c3c(nc([H])n3C([H])([H])C(=O)N([H])c3nc(N4C([H])([H])C5([H])C([H])([H])C5([H])C4([H])[H])c([H])c([H])c3[H])n(C([H])([H])[H])c2=O)noc1C([H])([H])[H]


 36 41  0  0  0  0  0  0  0  0999 V2000
  154.9504  140.3626  183.3663 N   0  0  0  0  0  0  0  0  0  0  0  0
  153.9923  140.7241  182.4754 C   0  0  0  0  0  0  0  0  0  0  0  0
  154.0688  141.8512  181.9053 O   0  0  0  0  0  0  0  0  0  0  0  0
  152.9617  139.9114  182.1835 N   0  0  0  0  0  0  0  0  0  0  0  0
  151.9382  140.2942  181.2336 C   0  0  0  0  0  0  0  0  0  0  0  0
  152.9155  138.7218  182.8100 C   0  0  0  0  0  0  0  0  0  0  0  0
  152.0290  137.7036  182.7358 N   0  0  0  0  0  0  0  0  0  0  0  0
  152.4445  136.7362  183.5718 C   0  0  0  0  0  0  0  0  0  0  0  0
  153.5716  137.0854  184.1904 N   0  0  0  0  0  0  0  0  0  0  0  0
  153.8743  138.3149  183.7267 C   0  0  0  0  0  0  0  0  0  0  0  0
  154.9171  139.1915  183.9919 C   0  0  0  0  0  0  0  0  0  0  0  0
  155.7801  138.8112  184.8247 O   0  0  0  0  0  0  0  0  0  0  0  0
  156.0592  141.2761  183.6584 C   0  0  0  0  0  0  0  0  0  0  0  0
  158.9817  142.9273  179.8425 C   0  0  0  0  0  0  0  0  0  0  0  0
  158.2798  142.0501  180.8280 C   0  0  0  0  0  0  0  0  0  0  0  0
  157.4243  142.4623  181.8163 C   0  0  0  0  0  0  0  0  0  0  0  0
  156.9944  141.3337  182.5050 C   0  0  0  0  0  0  0  0  0  0  0  0
  157.6188  140.3086  181.8879 N   0  0  0  0  0  0  0  0  0  0  0  0
  158.3601  140.7426  180.9177 O   0  0  0  0  0  0  0  0  0  0  0  0
  154.3168  136.3322  185.1456 C   0  0  0  0  0  0  0  0  0  0  0  0
  154.0553  136.8464  186.5549 C   0  0  0  0  0  0  0  0  0  0  0  0
  152.9139  137.2548  186.7784 O   0  0  0  0  0  0  0  0  0  0  0  0
  155.0754  136.8387  187.5085 N   0  0  0  0  0  0  0  0  0  0  0  0
  156.0294  136.4581  187.1949 H   0  0  0  0  0  0  0  0  0  0  0  0
  155.0055  137.2756  188.8520 C   0  0  0  0  0  0  0  0  0  0  0  0
  155.8502  138.1857  189.4276 C   0  0  0  0  0  0  0  0  0  0  0  0
  155.6811  138.5391  190.7669 C   0  0  0  0  0  0  0  0  0  0  0  0
  154.6632  137.9648  191.4924 C   0  0  0  0  0  0  0  0  0  0  0  0
  153.8035  137.0425  190.9174 C   0  0  0  0  0  0  0  0  0  0  0  0
  154.0257  136.7549  189.6378 N   0  0  0  0  0  0  0  0  0  0  0  0
  152.7704  136.4743  191.6891 N   0  0  0  0  0  0  0  0  0  0  0  0
  152.8683  136.0014  193.0401 C   0  0  0  0  0  0  0  0  0  0  0  0
  151.5880  136.5849  193.6575 C   0  0  0  0  0  0  0  0  0  0  0  0
  150.3805  135.7618  193.6051 C   0  0  0  0  0  0  0  0  0  0  0  0
  150.6080  136.6516  192.4661 C   0  0  0  0  0  0  0  0  0  0  0  0
  151.4074  136.2524  191.2709 C   0  0  0  0  0  0  0  0  0  0  0  0
 14 15  1  0  0  0
 15 16  2  0  0  0
 16 17  1  0  0  0
 17 13  1  0  0  0
 13  1  1  0  0  0
  1  2  1  0  0  0
  2  3  2  0  0  0
  2  4  1  0  0  0
  4  5  1  0  0  0
  4  6  1  0  0  0
  6  7  1  0  0  0
  7  8  2  0  0  0
  8  9  1  0  0  0
  9 20  1  0  0  0
 20 21  1  0  0  0
 21 22  2  0  0  0
 21 23  1  0  0  0
 23 25  1  0  0  0
 25 26  2  0  0  0
 26 27  1  0  0  0
 27 28  2  0  0  0
 28 29  1  0  0  0
 29 30  2  0  0  0
 29 31  1  0  0  0
 31 32  1  0  0  0
 32 33  1  0  0  0
 33 34  1  0  0  0
 34 35  1  0  0  0
 35 36  1  0  0  0
  9 10  1  0  0  0
 10 11  1  0  0  0
 11 12  2  0  0  0
 17 18  2  0  0  0
 18 19  1  0  0  0
 19 15  1  0  0  0
 11  1  1  0  0  0
 10  6  2  0  0  0
 30 25  1  0  0  0
 36 31  1  0  0  0
 35 33  1  0  0  0
 23 24  1  0  0  0
M  END
> <minimizedAffinity>
-8.75592

> <CNNscore>
0.4218706191

> <CNNaffinity>
5.9994487762

> <CNN_VS>
2.5309910774

> <CNNaffinity_variance>
0.2542532086

$$$$
[H]c1c(C([H])([H])n2c(=O)c3c(nc([H])n3C([H])([H])C(=O)N([H])c3nc(N4C([H])([H])C5([H])C([H])([H])C5([H])C4([H])[H])c([H])c([H])c3[H])n(C([H])([H])[H])c2=O)noc1C([H])([H])[H]


 36 41  0  0  0  0  0  0  0  0999 V2000
  151.0057  135.6943  189.1245 N   0  0  0  0  0  0  0  0  0  0  0  0
  150.9380  136.0020  190.4448 C   0  0  0  0  0  0  0  0  0  0  0  0
  149.9004  135.6947  191.1009 O   0  0  0  0  0  0  0  0  0  0  0  0
  151.9490  136.6267  191.0735 N   0  0  0  0  0  0  0  0  0  0  0  0
  151.8796  136.9562  192.4817 C   0  0  0  0  0  0  0  0  0  0  0  0
  153.0347  136.9366  190.3421 C   0  0  0  0  0  0  0  0  0  0  0  0
  154.1923  137.5520  190.6727 N   0  0  0  0  0  0  0  0  0  0  0  0
  154.9531  137.6168  189.5662 C   0  0  0  0  0  0  0  0  0  0  0  0
  154.3341  137.0656  188.5231 N   0  0  0  0  0  0  0  0  0  0  0  0
  153.1432  136.6398  188.9910 C   0  0  0  0  0  0  0  0  0  0  0  0
  152.0712  135.9945  188.3907 C   0  0  0  0  0  0  0  0  0  0  0  0
  152.1816  135.7307  187.1655 O   0  0  0  0  0  0  0  0  0  0  0  0
  149.8826  135.0125  188.4742 C   0  0  0  0  0  0  0  0  0  0  0  0
  147.4825  138.4274  185.5749 C   0  0  0  0  0  0  0  0  0  0  0  0
  147.8450  137.5076  186.6955 C   0  0  0  0  0  0  0  0  0  0  0  0
  148.9463  136.6937  186.7536 C   0  0  0  0  0  0  0  0  0  0  0  0
  148.9050  136.0075  187.9621 C   0  0  0  0  0  0  0  0  0  0  0  0
  147.7788  136.4511  188.5590 N   0  0  0  0  0  0  0  0  0  0  0  0
  147.1767  137.3206  187.8102 O   0  0  0  0  0  0  0  0  0  0  0  0
  154.8126  136.9420  187.1849 C   0  0  0  0  0  0  0  0  0  0  0  0
  154.2789  138.0748  186.3185 C   0  0  0  0  0  0  0  0  0  0  0  0
  153.4343  138.8042  186.8421 O   0  0  0  0  0  0  0  0  0  0  0  0
  154.7448  138.2433  185.0129 N   0  0  0  0  0  0  0  0  0  0  0  0
  155.4825  137.5435  184.6673 H   0  0  0  0  0  0  0  0  0  0  0  0
  154.3600  139.2337  184.0792 C   0  0  0  0  0  0  0  0  0  0  0  0
  154.8522  140.5101  184.0397 C   0  0  0  0  0  0  0  0  0  0  0  0
  154.3940  141.4006  183.0680 C   0  0  0  0  0  0  0  0  0  0  0  0
  153.4499  140.9806  182.1599 C   0  0  0  0  0  0  0  0  0  0  0  0
  152.9464  139.6899  182.1929 C   0  0  0  0  0  0  0  0  0  0  0  0
  153.4296  138.8982  183.1463 N   0  0  0  0  0  0  0  0  0  0  0  0
  151.9808  139.2922  181.2467 N   0  0  0  0  0  0  0  0  0  0  0  0
  150.6918  138.7253  181.5214 C   0  0  0  0  0  0  0  0  0  0  0  0
  149.8021  139.5127  180.5472 C   0  0  0  0  0  0  0  0  0  0  0  0
  149.6084  138.9524  179.2105 C   0  0  0  0  0  0  0  0  0  0  0  0
  150.7528  139.8486  179.3777 C   0  0  0  0  0  0  0  0  0  0  0  0
  152.0995  139.3738  179.8111 C   0  0  0  0  0  0  0  0  0  0  0  0
 14 15  1  0  0  0
 15 16  2  0  0  0
 16 17  1  0  0  0
 17 13  1  0  0  0
 13  1  1  0  0  0
  1  2  1  0  0  0
  2  3  2  0  0  0
  2  4  1  0  0  0
  4  5  1  0  0  0
  4  6  1  0  0  0
  6  7  1  0  0  0
  7  8  2  0  0  0
  8  9  1  0  0  0
  9 20  1  0  0  0
 20 21  1  0  0  0
 21 22  2  0  0  0
 21 23  1  0  0  0
 23 25  1  0  0  0
 25 26  2  0  0  0
 26 27  1  0  0  0
 27 28  2  0  0  0
 28 29  1  0  0  0
 29 30  2  0  0  0
 29 31  1  0  0  0
 31 32  1  0  0  0
 32 33  1  0  0  0
 33 34  1  0  0  0
 34 35  1  0  0  0
 35 36  1  0  0  0
  9 10  1  0  0  0
 10 11  1  0  0  0
 11 12  2  0  0  0
 17 18  2  0  0  0
 18 19  1  0  0  0
 19 15  1  0  0  0
 11  1  1  0  0  0
 10  6  2  0  0  0
 30 25  1  0  0  0
 36 31  1  0  0  0
 35 33  1  0  0  0
 23 24  1  0  0  0
M  END
> <minimizedAffinity>
-7.88315

> <CNNscore>
0.3935601115

> <CNNaffinity>
5.9872121811

> <CNN_VS>
2.3563280106

> <CNNaffinity_variance>
0.1684641689

$$$$
[H]c1c(C([H])([H])n2c(=O)c3c(nc([H])n3C([H])([H])C(=O)N([H])c3nc(N4C([H])([H])C5([H])C([H])([H])C5([H])C4([H])[H])c([H])c([H])c3[H])n(C([H])([H])[H])c2=O)noc1C([H])([H])[H]


 36 41  0  0  0  0  0  0  0  0999 V2000
  158.8652  141.6013  182.9779 N   0  0  0  0  0  0  0  0  0  0  0  0
  158.2229  142.7009  182.5081 C   0  0  0  0  0  0  0  0  0  0  0  0
  158.8746  143.5701  181.8590 O   0  0  0  0  0  0  0  0  0  0  0  0
  156.9080  142.8891  182.7163 N   0  0  0  0  0  0  0  0  0  0  0  0
  156.2201  144.0610  182.2164 C   0  0  0  0  0  0  0  0  0  0  0  0
  156.2501  141.9430  183.4104 C   0  0  0  0  0  0  0  0  0  0  0  0
  154.9533  141.8407  183.7790 N   0  0  0  0  0  0  0  0  0  0  0  0
  154.8108  140.6928  184.4641 C   0  0  0  0  0  0  0  0  0  0  0  0
  155.9687  140.0403  184.5569 N   0  0  0  0  0  0  0  0  0  0  0  0
  156.8695  140.8052  183.9074 C   0  0  0  0  0  0  0  0  0  0  0  0
  158.2282  140.6597  183.6645 C   0  0  0  0  0  0  0  0  0  0  0  0
  158.7783  139.6241  184.1201 O   0  0  0  0  0  0  0  0  0  0  0  0
  160.3002  141.4314  182.7304 C   0  0  0  0  0  0  0  0  0  0  0  0
  161.6673  143.5358  187.1497 C   0  0  0  0  0  0  0  0  0  0  0  0
  161.6895  142.7870  185.8567 C   0  0  0  0  0  0  0  0  0  0  0  0
  160.6362  142.6246  184.9947 C   0  0  0  0  0  0  0  0  0  0  0  0
  161.0809  141.8662  183.9175 C   0  0  0  0  0  0  0  0  0  0  0  0
  162.3776  141.6178  184.1975 N   0  0  0  0  0  0  0  0  0  0  0  0
  162.7134  142.1594  185.3258 O   0  0  0  0  0  0  0  0  0  0  0  0
  156.2232  138.7943  185.2031 C   0  0  0  0  0  0  0  0  0  0  0  0
  154.9168  138.0818  185.5262 C   0  0  0  0  0  0  0  0  0  0  0  0
  154.3417  137.5493  184.5748 O   0  0  0  0  0  0  0  0  0  0  0  0
  154.4331  138.0563  186.8359 N   0  0  0  0  0  0  0  0  0  0  0  0
  155.0235  138.5565  187.5806 H   0  0  0  0  0  0  0  0  0  0  0  0
  153.2477  137.4453  187.3074 C   0  0  0  0  0  0  0  0  0  0  0  0
  152.1831  137.0876  186.5253 C   0  0  0  0  0  0  0  0  0  0  0  0
  151.0646  136.4895  187.1070 C   0  0  0  0  0  0  0  0  0  0  0  0
  151.0483  136.2672  188.4645 C   0  0  0  0  0  0  0  0  0  0  0  0
  152.1220  136.6263  189.2637 C   0  0  0  0  0  0  0  0  0  0  0  0
  153.1520  137.1912  188.6396 N   0  0  0  0  0  0  0  0  0  0  0  0
  152.0728  136.3830  190.6508 N   0  0  0  0  0  0  0  0  0  0  0  0
  153.1028  136.6640  191.6090 C   0  0  0  0  0  0  0  0  0  0  0  0
  152.2899  137.2965  192.7492 C   0  0  0  0  0  0  0  0  0  0  0  0
  151.7686  136.4008  193.7809 C   0  0  0  0  0  0  0  0  0  0  0  0
  150.9043  136.6267  192.6221 C   0  0  0  0  0  0  0  0  0  0  0  0
  150.9750  135.7988  191.3826 C   0  0  0  0  0  0  0  0  0  0  0  0
 14 15  1  0  0  0
 15 16  2  0  0  0
 16 17  1  0  0  0
 17 13  1  0  0  0
 13  1  1  0  0  0
  1  2  1  0  0  0
  2  3  2  0  0  0
  2  4  1  0  0  0
  4  5  1  0  0  0
  4  6  1  0  0  0
  6  7  1  0  0  0
  7  8  2  0  0  0
  8  9  1  0  0  0
  9 20  1  0  0  0
 20 21  1  0  0  0
 21 22  2  0  0  0
 21 23  1  0  0  0
 23 25  1  0  0  0
 25 26  2  0  0  0
 26 27  1  0  0  0
 27 28  2  0  0  0
 28 29  1  0  0  0
 29 30  2  0  0  0
 29 31  1  0  0  0
 31 32  1  0  0  0
 32 33  1  0  0  0
 33 34  1  0  0  0
 34 35  1  0  0  0
 35 36  1  0  0  0
  9 10  1  0  0  0
 10 11  1  0  0  0
 11 12  2  0  0  0
 17 18  2  0  0  0
 18 19  1  0  0  0
 19 15  1  0  0  0
 11  1  1  0  0  0
 10  6  2  0  0  0
 30 25  1  0  0  0
 36 31  1  0  0  0
 35 33  1  0  0  0
 23 24  1  0  0  0
M  END
> <minimizedAffinity>
-8.74083

> <CNNscore>
0.3805313110

> <CNNaffinity>
6.3991284370

> <CNN_VS>
2.4350688457

> <CNNaffinity_variance>
0.1062911153

$$$$
[H]c1nc(-c2c([H])nc(N3C([H])([H])C4([H])C([H])([H])C4([H])C3([H])[H])c([H])c2[H])nc(N([H])C(=O)[C@@]([H])(n2c([H])nc3c2c(=O)n(C([H])([H])C(=O)C([H])([H])C([H])([H])[H])c(=O)n3C([H])([H])[H])C([H])([H])[H])c1[H]


 41 46  0  0  0  0  0  0  0  0999 V2000
  155.0276  138.4002  186.0254 C   0  0  0  0  0  0  0  0  0  0  0  0
  155.8997  137.7780  186.8248 O   0  0  0  0  0  0  0  0  0  0  0  0
  155.6312  139.1492  185.0468 N   0  0  0  0  0  0  0  0  0  0  0  0
  156.7487  139.1362  185.0633 H   0  0  0  0  0  0  0  0  0  0  0  0
  155.1347  139.9050  183.9955 C   0  0  0  0  0  0  0  0  0  0  0  0
  155.6083  141.0892  183.5174 C   0  0  0  0  0  0  0  0  0  0  0  0
  155.0293  141.7512  182.4236 C   0  0  0  0  0  0  0  0  0  0  0  0
  153.9716  141.1899  181.8348 N   0  0  0  0  0  0  0  0  0  0  0  0
  153.4706  140.0260  182.2711 C   0  0  0  0  0  0  0  0  0  0  0  0
  154.0353  139.4206  183.3055 N   0  0  0  0  0  0  0  0  0  0  0  0
  152.3026  139.4453  181.5896 C   0  0  0  0  0  0  0  0  0  0  0  0
  151.7468  140.0380  180.4811 C   0  0  0  0  0  0  0  0  0  0  0  0
  150.6534  139.4413  179.8899 C   0  0  0  0  0  0  0  0  0  0  0  0
  150.0874  138.2626  180.3680 C   0  0  0  0  0  0  0  0  0  0  0  0
  150.6699  137.7250  181.4544 N   0  0  0  0  0  0  0  0  0  0  0  0
  151.7370  138.2781  182.0577 C   0  0  0  0  0  0  0  0  0  0  0  0
  148.9594  137.6717  179.7350 N   0  0  0  0  0  0  0  0  0  0  0  0
  148.3056  136.4510  180.1638 C   0  0  0  0  0  0  0  0  0  0  0  0
  146.9577  136.4383  179.4762 C   0  0  0  0  0  0  0  0  0  0  0  0
  146.9866  136.0428  178.0323 C   0  0  0  0  0  0  0  0  0  0  0  0
  147.0025  137.4790  178.4196 C   0  0  0  0  0  0  0  0  0  0  0  0
  148.3084  138.2126  178.5719 C   0  0  0  0  0  0  0  0  0  0  0  0
  153.6175  138.1691  186.3480 C   0  0  0  0  0  0  0  0  0  0  0  0
  153.5861  137.6853  187.8149 C   0  0  0  0  0  0  0  0  0  0  0  0
  149.6251  136.3233  185.4431 N   0  0  0  0  0  0  0  0  0  0  0  0
  149.7059  135.2632  184.6264 C   0  0  0  0  0  0  0  0  0  0  0  0
  148.6687  134.6423  184.2834 O   0  0  0  0  0  0  0  0  0  0  0  0
  150.8718  134.8100  184.1362 N   0  0  0  0  0  0  0  0  0  0  0  0
  150.9602  133.6675  183.2561 C   0  0  0  0  0  0  0  0  0  0  0  0
  151.9967  135.4557  184.4871 C   0  0  0  0  0  0  0  0  0  0  0  0
  153.3059  135.2968  184.2020 N   0  0  0  0  0  0  0  0  0  0  0  0
  154.0217  136.2545  184.8409 C   0  0  0  0  0  0  0  0  0  0  0  0
  153.1807  137.0258  185.5335 N   0  0  0  0  0  0  0  0  0  0  0  0
  151.9597  136.5702  185.3397 C   0  0  0  0  0  0  0  0  0  0  0  0
  150.7436  136.9706  185.7960 C   0  0  0  0  0  0  0  0  0  0  0  0
  150.6745  137.9644  186.5604 O   0  0  0  0  0  0  0  0  0  0  0  0
  148.3345  136.7541  185.9321 C   0  0  0  0  0  0  0  0  0  0  0  0
  147.9041  137.9345  185.1678 C   0  0  0  0  0  0  0  0  0  0  0  0
  147.5527  138.9354  185.7476 O   0  0  0  0  0  0  0  0  0  0  0  0
  147.8745  139.3654  183.1275 C   0  0  0  0  0  0  0  0  0  0  0  0
  147.8728  137.9769  183.6763 C   0  0  0  0  0  0  0  0  0  0  0  0
 40 41  1  0  0  0
 41 38  1  0  0  0
 38 39  2  0  0  0
 38 37  1  0  0  0
 37 25  1  0  0  0
 25 26  1  0  0  0
 26 27  2  0  0  0
 26 28  1  0  0  0
 28 29  1  0  0  0
 28 30  1  0  0  0
 30 31  1  0  0  0
 31 32  2  0  0  0
 32 33  1  0  0  0
 33 23  1  0  0  0
 23 24  1  0  0  0
 23  1  1  0  0  0
  1  2  2  0  0  0
  1  3  1  0  0  0
  3  5  1  0  0  0
  5  6  2  0  0  0
  6  7  1  0  0  0
  7  8  2  0  0  0
  8  9  1  0  0  0
  9 10  2  0  0  0
  9 11  1  0  0  0
 11 12  2  0  0  0
 12 13  1  0  0  0
 13 14  2  0  0  0
 14 15  1  0  0  0
 15 16  2  0  0  0
 14 17  1  0  0  0
 17 18  1  0  0  0
 18 19  1  0  0  0
 19 20  1  0  0  0
 20 21  1  0  0  0
 21 22  1  0  0  0
 33 34  1  0  0  0
 34 35  1  0  0  0
 35 36  2  0  0  0
 35 25  1  0  0  0
 34 30  2  0  0  0
 10  5  1  0  0  0
 16 11  1  0  0  0
 22 17  1  0  0  0
 21 19  1  0  0  0
  3  4  1  0  0  0
M  END
> <minimizedAffinity>
-6.81697

> <CNNscore>
0.2952241302

> <CNNaffinity>
6.2746038437

> <CNN_VS>
1.8524144888

> <CNNaffinity_variance>
0.5733829737

$$$$
[H]c1nc(-c2c([H])nc(N3C([H])([H])C4([H])C([H])([H])C4([H])C3([H])[H])c([H])c2[H])nc(N([H])C(=O)[C@@]([H])(n2c([H])nc3c2c(=O)n(C([H])([H])C(=O)C([H])([H])C([H])([H])[H])c(=O)n3C([H])([H])[H])C([H])([H])[H])c1[H]


 41 46  0  0  0  0  0  0  0  0999 V2000
  150.6571  135.5951  192.4584 C   0  0  0  0  0  0  0  0  0  0  0  0
  150.0407  136.1227  193.5207 O   0  0  0  0  0  0  0  0  0  0  0  0
  149.8949  135.6324  191.3179 N   0  0  0  0  0  0  0  0  0  0  0  0
  148.8810  136.0860  191.4417 H   0  0  0  0  0  0  0  0  0  0  0  0
  150.1385  135.2514  190.0070 C   0  0  0  0  0  0  0  0  0  0  0  0
  149.5660  134.2303  189.3106 C   0  0  0  0  0  0  0  0  0  0  0  0
  149.8805  133.9567  187.9704 C   0  0  0  0  0  0  0  0  0  0  0  0
  150.7786  134.7338  187.3622 N   0  0  0  0  0  0  0  0  0  0  0  0
  151.3681  135.7496  188.0077 C   0  0  0  0  0  0  0  0  0  0  0  0
  151.0540  135.9876  189.2726 N   0  0  0  0  0  0  0  0  0  0  0  0
  152.3526  136.5797  187.2953 C   0  0  0  0  0  0  0  0  0  0  0  0
  152.4467  137.9333  187.5138 C   0  0  0  0  0  0  0  0  0  0  0  0
  153.3917  138.6526  186.8134 C   0  0  0  0  0  0  0  0  0  0  0  0
  154.2560  138.0661  185.8932 C   0  0  0  0  0  0  0  0  0  0  0  0
  154.1216  136.7394  185.7176 N   0  0  0  0  0  0  0  0  0  0  0  0
  153.2119  136.0053  186.3825 C   0  0  0  0  0  0  0  0  0  0  0  0
  155.2208  138.8359  185.1868 N   0  0  0  0  0  0  0  0  0  0  0  0
  154.9634  139.5891  183.9752 C   0  0  0  0  0  0  0  0  0  0  0  0
  156.1257  140.5467  183.8269 C   0  0  0  0  0  0  0  0  0  0  0  0
  157.3889  139.9342  183.3060 C   0  0  0  0  0  0  0  0  0  0  0  0
  157.1789  140.0962  184.7698 C   0  0  0  0  0  0  0  0  0  0  0  0
  156.5963  138.9724  185.5849 C   0  0  0  0  0  0  0  0  0  0  0  0
  152.0050  135.0824  192.7157 C   0  0  0  0  0  0  0  0  0  0  0  0
  152.2640  135.2928  194.2241 C   0  0  0  0  0  0  0  0  0  0  0  0
  154.9619  134.5214  189.3830 N   0  0  0  0  0  0  0  0  0  0  0  0
  155.6115  135.6480  189.0575 C   0  0  0  0  0  0  0  0  0  0  0  0
  156.4711  135.6462  188.1409 O   0  0  0  0  0  0  0  0  0  0  0  0
  155.3896  136.8199  189.6759 N   0  0  0  0  0  0  0  0  0  0  0  0
  156.0892  138.0348  189.3262 C   0  0  0  0  0  0  0  0  0  0  0  0
  154.4753  136.8501  190.6602 C   0  0  0  0  0  0  0  0  0  0  0  0
  153.9995  137.8111  191.4792 N   0  0  0  0  0  0  0  0  0  0  0  0
  153.0642  137.2748  192.3009 C   0  0  0  0  0  0  0  0  0  0  0  0
  152.9372  135.9772  192.0145 N   0  0  0  0  0  0  0  0  0  0  0  0
  153.7713  135.6949  191.0343 C   0  0  0  0  0  0  0  0  0  0  0  0
  154.0494  134.5460  190.3634 C   0  0  0  0  0  0  0  0  0  0  0  0
  153.4374  133.4941  190.6727 O   0  0  0  0  0  0  0  0  0  0  0  0
  155.2536  133.2959  188.6733 C   0  0  0  0  0  0  0  0  0  0  0  0
  156.2870  132.5523  189.4096 C   0  0  0  0  0  0  0  0  0  0  0  0
  155.9678  131.6968  190.2018 O   0  0  0  0  0  0  0  0  0  0  0  0
  158.3693  133.5061  190.3921 C   0  0  0  0  0  0  0  0  0  0  0  0
  157.7494  132.7939  189.2356 C   0  0  0  0  0  0  0  0  0  0  0  0
 40 41  1  0  0  0
 41 38  1  0  0  0
 38 39  2  0  0  0
 38 37  1  0  0  0
 37 25  1  0  0  0
 25 26  1  0  0  0
 26 27  2  0  0  0
 26 28  1  0  0  0
 28 29  1  0  0  0
 28 30  1  0  0  0
 30 31  1  0  0  0
 31 32  2  0  0  0
 32 33  1  0  0  0
 33 23  1  0  0  0
 23 24  1  0  0  0
 23  1  1  0  0  0
  1  2  2  0  0  0
  1  3  1  0  0  0
  3  5  1  0  0  0
  5  6  2  0  0  0
  6  7  1  0  0  0
  7  8  2  0  0  0
  8  9  1  0  0  0
  9 10  2  0  0  0
  9 11  1  0  0  0
 11 12  2  0  0  0
 12 13  1  0  0  0
 13 14  2  0  0  0
 14 15  1  0  0  0
 15 16  2  0  0  0
 14 17  1  0  0  0
 17 18  1  0  0  0
 18 19  1  0  0  0
 19 20  1  0  0  0
 20 21  1  0  0  0
 21 22  1  0  0  0
 33 34  1  0  0  0
 34 35  1  0  0  0
 35 36  2  0  0  0
 35 25  1  0  0  0
 34 30  2  0  0  0
 10  5  1  0  0  0
 16 11  1  0  0  0
 22 17  1  0  0  0
 21 19  1  0  0  0
  3  4  1  0  0  0
M  END
> <minimizedAffinity>
-6.32406

> <CNNscore>
0.2462921888

> <CNNaffinity>
6.0677690506

> <CNN_VS>
1.4944441319

> <CNNaffinity_variance>
0.7362419963

$$$$
[H]c1nc(-c2c([H])nc(N3C([H])([H])C4([H])C([H])([H])C4([H])C3([H])[H])c([H])c2[H])nc(N([H])C(=O)[C@@]([H])(n2c([H])nc3c2c(=O)n(C([H])([H])C(=O)C([H])([H])C([H])([H])[H])c(=O)n3C([H])([H])[H])C([H])([H])[H])c1[H]


 41 46  0  0  0  0  0  0  0  0999 V2000
  149.6550  138.7218  181.5965 C   0  0  0  0  0  0  0  0  0  0  0  0
  149.5764  139.9328  181.0362 O   0  0  0  0  0  0  0  0  0  0  0  0
  150.9294  138.3846  181.9775 N   0  0  0  0  0  0  0  0  0  0  0  0
  151.7074  139.1574  181.7614 H   0  0  0  0  0  0  0  0  0  0  0  0
  151.4600  137.2776  182.6227 C   0  0  0  0  0  0  0  0  0  0  0  0
  151.9554  136.1389  182.0631 C   0  0  0  0  0  0  0  0  0  0  0  0
  152.4912  135.0901  182.8266 C   0  0  0  0  0  0  0  0  0  0  0  0
  152.5112  135.2230  184.1542 N   0  0  0  0  0  0  0  0  0  0  0  0
  152.0341  136.3252  184.7487 C   0  0  0  0  0  0  0  0  0  0  0  0
  151.5337  137.3014  184.0059 N   0  0  0  0  0  0  0  0  0  0  0  0
  152.0775  136.4266  186.2163 C   0  0  0  0  0  0  0  0  0  0  0  0
  152.9197  137.3064  186.8532 C   0  0  0  0  0  0  0  0  0  0  0  0
  152.9103  137.3516  188.2312 C   0  0  0  0  0  0  0  0  0  0  0  0
  152.0831  136.5435  189.0064 C   0  0  0  0  0  0  0  0  0  0  0  0
  151.2794  135.7013  188.3330 N   0  0  0  0  0  0  0  0  0  0  0  0
  151.2610  135.6293  186.9903 C   0  0  0  0  0  0  0  0  0  0  0  0
  152.0967  136.6145  190.4267 N   0  0  0  0  0  0  0  0  0  0  0  0
  150.9413  136.4320  191.2829 C   0  0  0  0  0  0  0  0  0  0  0  0
  151.4888  136.1870  192.6722 C   0  0  0  0  0  0  0  0  0  0  0  0
  151.9628  137.4116  193.3916 C   0  0  0  0  0  0  0  0  0  0  0  0
  152.9246  136.5594  192.6421 C   0  0  0  0  0  0  0  0  0  0  0  0
  153.2722  136.8791  191.2125 C   0  0  0  0  0  0  0  0  0  0  0  0
  148.3845  137.9984  181.6888 C   0  0  0  0  0  0  0  0  0  0  0  0
  147.3095  138.9420  181.1054 C   0  0  0  0  0  0  0  0  0  0  0  0
  147.7901  134.5069  184.4495 N   0  0  0  0  0  0  0  0  0  0  0  0
  147.5199  134.8707  185.7111 C   0  0  0  0  0  0  0  0  0  0  0  0
  147.3293  134.0015  186.5983 O   0  0  0  0  0  0  0  0  0  0  0  0
  147.4381  136.1554  186.0959 N   0  0  0  0  0  0  0  0  0  0  0  0
  147.1468  136.5488  187.4553 C   0  0  0  0  0  0  0  0  0  0  0  0
  147.6376  137.1055  185.1669 C   0  0  0  0  0  0  0  0  0  0  0  0
  147.6364  138.4548  185.1795 N   0  0  0  0  0  0  0  0  0  0  0  0
  147.9042  138.9133  183.9322 C   0  0  0  0  0  0  0  0  0  0  0  0
  148.0770  137.8677  183.1205 N   0  0  0  0  0  0  0  0  0  0  0  0
  147.9231  136.7708  183.8340 C   0  0  0  0  0  0  0  0  0  0  0  0
  147.9899  135.4502  183.5195 C   0  0  0  0  0  0  0  0  0  0  0  0
  148.2436  135.1158  182.3361 O   0  0  0  0  0  0  0  0  0  0  0  0
  147.8622  133.1037  184.1084 C   0  0  0  0  0  0  0  0  0  0  0  0
  149.2745  132.6964  184.0593 C   0  0  0  0  0  0  0  0  0  0  0  0
  150.0619  133.1462  184.8587 O   0  0  0  0  0  0  0  0  0  0  0  0
  150.2209  132.3858  181.7748 C   0  0  0  0  0  0  0  0  0  0  0  0
  149.8141  131.7337  183.0547 C   0  0  0  0  0  0  0  0  0  0  0  0
 40 41  1  0  0  0
 41 38  1  0  0  0
 38 39  2  0  0  0
 38 37  1  0  0  0
 37 25  1  0  0  0
 25 26  1  0  0  0
 26 27  2  0  0  0
 26 28  1  0  0  0
 28 29  1  0  0  0
 28 30  1  0  0  0
 30 31  1  0  0  0
 31 32  2  0  0  0
 32 33  1  0  0  0
 33 23  1  0  0  0
 23 24  1  0  0  0
 23  1  1  0  0  0
  1  2  2  0  0  0
  1  3  1  0  0  0
  3  5  1  0  0  0
  5  6  2  0  0  0
  6  7  1  0  0  0
  7  8  2  0  0  0
  8  9  1  0  0  0
  9 10  2  0  0  0
  9 11  1  0  0  0
 11 12  2  0  0  0
 12 13  1  0  0  0
 13 14  2  0  0  0
 14 15  1  0  0  0
 15 16  2  0  0  0
 14 17  1  0  0  0
 17 18  1  0  0  0
 18 19  1  0  0  0
 19 20  1  0  0  0
 20 21  1  0  0  0
 21 22  1  0  0  0
 33 34  1  0  0  0
 34 35  1  0  0  0
 35 36  2  0  0  0
 35 25  1  0  0  0
 34 30  2  0  0  0
 10  5  1  0  0  0
 16 11  1  0  0  0
 22 17  1  0  0  0
 21 19  1  0  0  0
  3  4  1  0  0  0
M  END
> <minimizedAffinity>
-4.68088

> <CNNscore>
0.2261312157

> <CNNaffinity>
5.9210538864

> <CNN_VS>
1.3389351368

> <CNNaffinity_variance>
0.1814419925

$$$$
[H]c1nc(-c2c([H])nc(N3C([H])([H])C4([H])C([H])([H])C4([H])C3([H])[H])c([H])c2[H])nc(N([H])C(=O)[C@@]([H])(n2c([H])nc3c2c(=O)n(C([H])([H])C(=O)C([H])([H])C([H])([H])[H])c(=O)n3C([H])([H])[H])C([H])([H])[H])c1[H]


 41 46  0  0  0  0  0  0  0  0999 V2000
  155.1711  138.0303  186.2978 C   0  0  0  0  0  0  0  0  0  0  0  0
  155.9840  137.2849  187.0530 O   0  0  0  0  0  0  0  0  0  0  0  0
  155.8348  138.7432  185.3311 N   0  0  0  0  0  0  0  0  0  0  0  0
  156.9437  138.6047  185.3193 H   0  0  0  0  0  0  0  0  0  0  0  0
  155.4047  139.5887  184.3195 C   0  0  0  0  0  0  0  0  0  0  0  0
  155.9625  140.7638  183.9155 C   0  0  0  0  0  0  0  0  0  0  0  0
  155.4447  141.5237  182.8551 C   0  0  0  0  0  0  0  0  0  0  0  0
  154.3610  141.0685  182.2236 N   0  0  0  0  0  0  0  0  0  0  0  0
  153.7779  139.9179  182.5869 C   0  0  0  0  0  0  0  0  0  0  0  0
  154.2861  139.2186  183.5909 N   0  0  0  0  0  0  0  0  0  0  0  0
  152.5842  139.4559  181.8605 C   0  0  0  0  0  0  0  0  0  0  0  0
  152.2096  140.0136  180.6615 C   0  0  0  0  0  0  0  0  0  0  0  0
  151.0805  139.5335  180.0324 C   0  0  0  0  0  0  0  0  0  0  0  0
  150.3026  138.5067  180.5601 C   0  0  0  0  0  0  0  0  0  0  0  0
  150.7137  137.9968  181.7347 N   0  0  0  0  0  0  0  0  0  0  0  0
  151.8091  138.4392  182.3772 C   0  0  0  0  0  0  0  0  0  0  0  0
  149.1432  138.0334  179.8861 N   0  0  0  0  0  0  0  0  0  0  0  0
  148.1570  137.1342  180.4522 C   0  0  0  0  0  0  0  0  0  0  0  0
  146.9389  137.2396  179.5606 C   0  0  0  0  0  0  0  0  0  0  0  0
  147.0344  136.4928  178.2663 C   0  0  0  0  0  0  0  0  0  0  0  0
  147.3675  137.9414  178.3256 C   0  0  0  0  0  0  0  0  0  0  0  0
  148.7896  138.3881  178.5377 C   0  0  0  0  0  0  0  0  0  0  0  0
  153.7510  137.9465  186.6472 C   0  0  0  0  0  0  0  0  0  0  0  0
  153.1747  139.3657  186.4465 C   0  0  0  0  0  0  0  0  0  0  0  0
  151.4346  135.0650  189.1960 N   0  0  0  0  0  0  0  0  0  0  0  0
  151.7032  135.1825  190.5041 C   0  0  0  0  0  0  0  0  0  0  0  0
  151.1302  134.4415  191.3417 O   0  0  0  0  0  0  0  0  0  0  0  0
  152.5799  136.0779  190.9890 N   0  0  0  0  0  0  0  0  0  0  0  0
  152.8701  136.2056  192.3986 C   0  0  0  0  0  0  0  0  0  0  0  0
  153.2069  136.8831  190.1150 C   0  0  0  0  0  0  0  0  0  0  0  0
  154.1213  137.8691  190.2262 N   0  0  0  0  0  0  0  0  0  0  0  0
  154.4100  138.3518  188.9928 C   0  0  0  0  0  0  0  0  0  0  0  0
  153.6873  137.6824  188.0920 N   0  0  0  0  0  0  0  0  0  0  0  0
  152.9567  136.7953  188.7366 C   0  0  0  0  0  0  0  0  0  0  0  0
  152.0570  135.8653  188.3204 C   0  0  0  0  0  0  0  0  0  0  0  0
  151.8100  135.7600  187.0939 O   0  0  0  0  0  0  0  0  0  0  0  0
  150.4783  134.0779  188.7470 C   0  0  0  0  0  0  0  0  0  0  0  0
  149.2273  134.7581  188.3792 C   0  0  0  0  0  0  0  0  0  0  0  0
  148.8596  134.7670  187.2276 O   0  0  0  0  0  0  0  0  0  0  0  0
  147.4866  136.5032  188.7477 C   0  0  0  0  0  0  0  0  0  0  0  0
  148.3561  135.4595  189.3672 C   0  0  0  0  0  0  0  0  0  0  0  0
 40 41  1  0  0  0
 41 38  1  0  0  0
 38 39  2  0  0  0
 38 37  1  0  0  0
 37 25  1  0  0  0
 25 26  1  0  0  0
 26 27  2  0  0  0
 26 28  1  0  0  0
 28 29  1  0  0  0
 28 30  1  0  0  0
 30 31  1  0  0  0
 31 32  2  0  0  0
 32 33  1  0  0  0
 33 23  1  0  0  0
 23 24  1  0  0  0
 23  1  1  0  0  0
  1  2  2  0  0  0
  1  3  1  0  0  0
  3  5  1  0  0  0
  5  6  2  0  0  0
  6  7  1  0  0  0
  7  8  2  0  0  0
  8  9  1  0  0  0
  9 10  2  0  0  0
  9 11  1  0  0  0
 11 12  2  0  0  0
 12 13  1  0  0  0
 13 14  2  0  0  0
 14 15  1  0  0  0
 15 16  2  0  0  0
 14 17  1  0  0  0
 17 18  1  0  0  0
 18 19  1  0  0  0
 19 20  1  0  0  0
 20 21  1  0  0  0
 21 22  1  0  0  0
 33 34  1  0  0  0
 34 35  1  0  0  0
 35 36  2  0  0  0
 35 25  1  0  0  0
 34 30  2  0  0  0
 10  5  1  0  0  0
 16 11  1  0  0  0
 22 17  1  0  0  0
 21 19  1  0  0  0
  3  4  1  0  0  0
M  END
> <minimizedAffinity>
-6.95996

> <CNNscore>
0.2085642666

> <CNNaffinity>
6.2301530838

> <CNN_VS>
1.2993873358

> <CNNaffinity_variance>
0.0974524096

$$$$
[H]c1nc(-c2c([H])nc(N3C([H])([H])C4([H])C([H])([H])C4([H])C3([H])[H])c([H])c2[H])nc(N([H])C(=O)[C@@]([H])(n2c([H])nc3c2c(=O)n(C([H])([H])C(=O)C([H])([H])C([H])([H])[H])c(=O)n3C([H])([H])[H])C([H])([H])[H])c1[H]


 41 46  0  0  0  0  0  0  0  0999 V2000
  151.1247  139.4508  179.8244 C   0  0  0  0  0  0  0  0  0  0  0  0
  150.9728  140.2552  178.7677 O   0  0  0  0  0  0  0  0  0  0  0  0
  152.2007  139.7853  180.6077 N   0  0  0  0  0  0  0  0  0  0  0  0
  152.7899  140.6652  180.2505 H   0  0  0  0  0  0  0  0  0  0  0  0
  152.6989  139.2725  181.7959 C   0  0  0  0  0  0  0  0  0  0  0  0
  152.1946  138.2534  182.5458 C   0  0  0  0  0  0  0  0  0  0  0  0
  152.8071  137.8061  183.7267 C   0  0  0  0  0  0  0  0  0  0  0  0
  153.9287  138.4105  184.1233 N   0  0  0  0  0  0  0  0  0  0  0  0
  154.4610  139.4180  183.4179 C   0  0  0  0  0  0  0  0  0  0  0  0
  153.8639  139.8217  182.3062 N   0  0  0  0  0  0  0  0  0  0  0  0
  155.6996  140.0539  183.8947 C   0  0  0  0  0  0  0  0  0  0  0  0
  156.4732  139.4799  184.8750 C   0  0  0  0  0  0  0  0  0  0  0  0
  157.6223  140.1280  185.2755 C   0  0  0  0  0  0  0  0  0  0  0  0
  158.0335  141.3405  184.7288 C   0  0  0  0  0  0  0  0  0  0  0  0
  157.2404  141.8580  183.7738 N   0  0  0  0  0  0  0  0  0  0  0  0
  156.1129  141.2549  183.3576 C   0  0  0  0  0  0  0  0  0  0  0  0
  159.2249  141.9839  185.1635 N   0  0  0  0  0  0  0  0  0  0  0  0
  160.2127  142.5891  184.2920 C   0  0  0  0  0  0  0  0  0  0  0  0
  161.0559  143.4814  185.1769 C   0  0  0  0  0  0  0  0  0  0  0  0
  162.0730  142.7669  186.0117 C   0  0  0  0  0  0  0  0  0  0  0  0
  160.7436  143.1162  186.5806 C   0  0  0  0  0  0  0  0  0  0  0  0
  159.6133  142.1224  186.5416 C   0  0  0  0  0  0  0  0  0  0  0  0
  150.1304  138.3809  179.9364 C   0  0  0  0  0  0  0  0  0  0  0  0
  149.2183  138.5105  178.6963 C   0  0  0  0  0  0  0  0  0  0  0  0
  148.7583  136.0876  183.5452 N   0  0  0  0  0  0  0  0  0  0  0  0
  147.9796  136.8081  184.3647 C   0  0  0  0  0  0  0  0  0  0  0  0
  147.5193  136.2994  185.4174 O   0  0  0  0  0  0  0  0  0  0  0  0
  147.6509  138.0872  184.1174 N   0  0  0  0  0  0  0  0  0  0  0  0
  146.8116  138.8648  184.9997 C   0  0  0  0  0  0  0  0  0  0  0  0
  148.1297  138.6560  182.9982 C   0  0  0  0  0  0  0  0  0  0  0  0
  148.0182  139.8778  182.4366 N   0  0  0  0  0  0  0  0  0  0  0  0
  148.7248  139.9040  181.2800 C   0  0  0  0  0  0  0  0  0  0  0  0
  149.2883  138.7079  181.0963 N   0  0  0  0  0  0  0  0  0  0  0  0
  148.9486  137.9395  182.1113 C   0  0  0  0  0  0  0  0  0  0  0  0
  149.2383  136.6499  182.4280 C   0  0  0  0  0  0  0  0  0  0  0  0
  149.9685  135.9803  181.6566 O   0  0  0  0  0  0  0  0  0  0  0  0
  149.0699  134.7151  183.8763 C   0  0  0  0  0  0  0  0  0  0  0  0
  150.3283  134.6814  184.6367 C   0  0  0  0  0  0  0  0  0  0  0  0
  151.3792  134.5229  184.0605 O   0  0  0  0  0  0  0  0  0  0  0  0
  150.8878  136.1761  186.5509 C   0  0  0  0  0  0  0  0  0  0  0  0
  150.3927  134.8352  186.1197 C   0  0  0  0  0  0  0  0  0  0  0  0
 40 41  1  0  0  0
 41 38  1  0  0  0
 38 39  2  0  0  0
 38 37  1  0  0  0
 37 25  1  0  0  0
 25 26  1  0  0  0
 26 27  2  0  0  0
 26 28  1  0  0  0
 28 29  1  0  0  0
 28 30  1  0  0  0
 30 31  1  0  0  0
 31 32  2  0  0  0
 32 33  1  0  0  0
 33 23  1  0  0  0
 23 24  1  0  0  0
 23  1  1  0  0  0
  1  2  2  0  0  0
  1  3  1  0  0  0
  3  5  1  0  0  0
  5  6  2  0  0  0
  6  7  1  0  0  0
  7  8  2  0  0  0
  8  9  1  0  0  0
  9 10  2  0  0  0
  9 11  1  0  0  0
 11 12  2  0  0  0
 12 13  1  0  0  0
 13 14  2  0  0  0
 14 15  1  0  0  0
 15 16  2  0  0  0
 14 17  1  0  0  0
 17 18  1  0  0  0
 18 19  1  0  0  0
 19 20  1  0  0  0
 20 21  1  0  0  0
 21 22  1  0  0  0
 33 34  1  0  0  0
 34 35  1  0  0  0
 35 36  2  0  0  0
 35 25  1  0  0  0
 34 30  2  0  0  0
 10  5  1  0  0  0
 16 11  1  0  0  0
 22 17  1  0  0  0
 21 19  1  0  0  0
  3  4  1  0  0  0
M  END
> <minimizedAffinity>
-8.52754

> <CNNscore>
0.2083227038

> <CNNaffinity>
6.5375199318

> <CNN_VS>
1.3619138002

> <CNNaffinity_variance>
0.1233774871

$$$$
[H]c1nc(-c2c([H])nc(N3C([H])([H])C4([H])C([H])([H])C4([H])C3([H])[H])c([H])c2[H])nc(N([H])C(=O)[C@@]([H])(n2c([H])nc3c2c(=O)n(C([H])([H])C(=O)C([H])([H])C([H])([H])[H])c(=O)n3C([H])([H])[H])C([H])([H])[H])c1[H]


 41 46  0  0  0  0  0  0  0  0999 V2000
  150.8679  135.6112  191.9576 C   0  0  0  0  0  0  0  0  0  0  0  0
  150.1347  136.3647  192.7829 O   0  0  0  0  0  0  0  0  0  0  0  0
  150.2658  135.3973  190.7431 N   0  0  0  0  0  0  0  0  0  0  0  0
  149.2609  135.8716  190.6238 H   0  0  0  0  0  0  0  0  0  0  0  0
  150.6680  134.7331  189.5942 C   0  0  0  0  0  0  0  0  0  0  0  0
  150.9062  133.4014  189.4358 C   0  0  0  0  0  0  0  0  0  0  0  0
  151.2887  132.8406  188.2073 C   0  0  0  0  0  0  0  0  0  0  0  0
  151.4223  133.6533  187.1575 N   0  0  0  0  0  0  0  0  0  0  0  0
  151.1990  134.9702  187.2664 C   0  0  0  0  0  0  0  0  0  0  0  0
  150.8387  135.4754  188.4370 N   0  0  0  0  0  0  0  0  0  0  0  0
  151.3589  135.8271  186.0806 C   0  0  0  0  0  0  0  0  0  0  0  0
  152.6001  136.2016  185.6241 C   0  0  0  0  0  0  0  0  0  0  0  0
  152.6794  137.0054  184.5068 C   0  0  0  0  0  0  0  0  0  0  0  0
  151.5549  137.4548  183.8199 C   0  0  0  0  0  0  0  0  0  0  0  0
  150.3660  137.0592  184.3087 N   0  0  0  0  0  0  0  0  0  0  0  0
  150.2495  136.2758  185.3954 C   0  0  0  0  0  0  0  0  0  0  0  0
  151.6704  138.2830  182.6697 N   0  0  0  0  0  0  0  0  0  0  0  0
  150.6471  138.4529  181.6570 C   0  0  0  0  0  0  0  0  0  0  0  0
  151.0308  139.6958  180.8836 C   0  0  0  0  0  0  0  0  0  0  0  0
  152.1349  139.5079  179.8898 C   0  0  0  0  0  0  0  0  0  0  0  0
  152.4302  140.0201  181.2549 C   0  0  0  0  0  0  0  0  0  0  0  0
  152.8307  139.0725  182.3541 C   0  0  0  0  0  0  0  0  0  0  0  0
  152.1509  135.1625  192.5038 C   0  0  0  0  0  0  0  0  0  0  0  0
  152.1198  135.5048  194.0100 C   0  0  0  0  0  0  0  0  0  0  0  0
  155.6857  134.4171  189.8365 N   0  0  0  0  0  0  0  0  0  0  0  0
  156.3689  135.5319  189.5406 C   0  0  0  0  0  0  0  0  0  0  0  0
  157.3845  135.4802  188.8024 O   0  0  0  0  0  0  0  0  0  0  0  0
  156.0192  136.7437  190.0037 N   0  0  0  0  0  0  0  0  0  0  0  0
  156.7548  137.9459  189.6857 C   0  0  0  0  0  0  0  0  0  0  0  0
  154.9369  136.8276  190.7955 C   0  0  0  0  0  0  0  0  0  0  0  0
  154.3032  137.8382  191.4263 N   0  0  0  0  0  0  0  0  0  0  0  0
  153.2384  137.3438  192.1042 C   0  0  0  0  0  0  0  0  0  0  0  0
  153.1852  136.0238  191.9125 N   0  0  0  0  0  0  0  0  0  0  0  0
  154.1914  135.6867  191.1315 C   0  0  0  0  0  0  0  0  0  0  0  0
  154.6059  134.4952  190.6255 C   0  0  0  0  0  0  0  0  0  0  0  0
  153.9616  133.4547  190.9060 O   0  0  0  0  0  0  0  0  0  0  0  0
  156.1217  133.1466  189.3016 C   0  0  0  0  0  0  0  0  0  0  0  0
  156.8983  132.4371  190.3295 C   0  0  0  0  0  0  0  0  0  0  0  0
  156.4883  131.3954  190.7857 O   0  0  0  0  0  0  0  0  0  0  0  0
  159.3378  132.7351  189.9161 C   0  0  0  0  0  0  0  0  0  0  0  0
  158.2001  132.9365  190.8616 C   0  0  0  0  0  0  0  0  0  0  0  0
 40 41  1  0  0  0
 41 38  1  0  0  0
 38 39  2  0  0  0
 38 37  1  0  0  0
 37 25  1  0  0  0
 25 26  1  0  0  0
 26 27  2  0  0  0
 26 28  1  0  0  0
 28 29  1  0  0  0
 28 30  1  0  0  0
 30 31  1  0  0  0
 31 32  2  0  0  0
 32 33  1  0  0  0
 33 23  1  0  0  0
 23 24  1  0  0  0
 23  1  1  0  0  0
  1  2  2  0  0  0
  1  3  1  0  0  0
  3  5  1  0  0  0
  5  6  2  0  0  0
  6  7  1  0  0  0
  7  8  2  0  0  0
  8  9  1  0  0  0
  9 10  2  0  0  0
  9 11  1  0  0  0
 11 12  2  0  0  0
 12 13  1  0  0  0
 13 14  2  0  0  0
 14 15  1  0  0  0
 15 16  2  0  0  0
 14 17  1  0  0  0
 17 18  1  0  0  0
 18 19  1  0  0  0
 19 20  1  0  0  0
 20 21  1  0  0  0
 21 22  1  0  0  0
 33 34  1  0  0  0
 34 35  1  0  0  0
 35 36  2  0  0  0
 35 25  1  0  0  0
 34 30  2  0  0  0
 10  5  1  0  0  0
 16 11  1  0  0  0
 22 17  1  0  0  0
 21 19  1  0  0  0
  3  4  1  0  0  0
M  END
> <minimizedAffinity>
-6.12383

> <CNNscore>
0.2076765299

> <CNNaffinity>
6.0187230110

> <CNN_VS>
1.2499475479

> <CNNaffinity_variance>
0.1559737623

$$$$
[H]c1nc(-c2c([H])nc(N3C([H])([H])C4([H])C([H])([H])C4([H])C3([H])[H])c([H])c2[H])nc(N([H])C(=O)[C@@]([H])(n2c([H])nc3c2c(=O)n(C([H])([H])C(=O)C([H])([H])C([H])([H])[H])c(=O)n3C([H])([H])[H])C([H])([H])[H])c1[H]


 41 46  0  0  0  0  0  0  0  0999 V2000
  152.3896  136.5107  184.8295 C   0  0  0  0  0  0  0  0  0  0  0  0
  151.4375  135.7238  185.3405 O   0  0  0  0  0  0  0  0  0  0  0  0
  151.9141  137.3977  183.8967 N   0  0  0  0  0  0  0  0  0  0  0  0
  150.8165  137.3306  183.6971 H   0  0  0  0  0  0  0  0  0  0  0  0
  152.5164  138.4074  183.1614 C   0  0  0  0  0  0  0  0  0  0  0  0
  152.0775  138.9785  182.0053 C   0  0  0  0  0  0  0  0  0  0  0  0
  152.7688  140.0174  181.3629 C   0  0  0  0  0  0  0  0  0  0  0  0
  153.9017  140.4565  181.9145 N   0  0  0  0  0  0  0  0  0  0  0  0
  154.3722  139.9243  183.0509 C   0  0  0  0  0  0  0  0  0  0  0  0
  153.7010  138.9446  183.6383 N   0  0  0  0  0  0  0  0  0  0  0  0
  155.6261  140.4416  183.6220 C   0  0  0  0  0  0  0  0  0  0  0  0
  156.3926  139.6881  184.4785 C   0  0  0  0  0  0  0  0  0  0  0  0
  157.5568  140.2327  184.9775 C   0  0  0  0  0  0  0  0  0  0  0  0
  157.9901  141.5146  184.6506 C   0  0  0  0  0  0  0  0  0  0  0  0
  157.2030  142.2084  183.8090 N   0  0  0  0  0  0  0  0  0  0  0  0
  156.0612  141.7104  183.3025 C   0  0  0  0  0  0  0  0  0  0  0  0
  159.1967  142.0477  185.1820 N   0  0  0  0  0  0  0  0  0  0  0  0
  160.2518  142.6644  184.4023 C   0  0  0  0  0  0  0  0  0  0  0  0
  161.1064  143.4277  185.3907 C   0  0  0  0  0  0  0  0  0  0  0  0
  162.0467  142.5868  186.1972 C   0  0  0  0  0  0  0  0  0  0  0  0
  160.7166  142.9652  186.7455 C   0  0  0  0  0  0  0  0  0  0  0  0
  159.5351  142.0469  186.5801 C   0  0  0  0  0  0  0  0  0  0  0  0
  153.7368  136.2731  185.3533 C   0  0  0  0  0  0  0  0  0  0  0  0
  153.7943  134.7753  185.7274 C   0  0  0  0  0  0  0  0  0  0  0  0
  156.6079  136.1942  188.8052 N   0  0  0  0  0  0  0  0  0  0  0  0
  156.2959  137.0687  189.7722 C   0  0  0  0  0  0  0  0  0  0  0  0
  157.0092  137.1610  190.8026 O   0  0  0  0  0  0  0  0  0  0  0  0
  155.2277  137.8805  189.7016 N   0  0  0  0  0  0  0  0  0  0  0  0
  154.8903  138.8233  190.7432 C   0  0  0  0  0  0  0  0  0  0  0  0
  154.4477  137.8024  188.6103 C   0  0  0  0  0  0  0  0  0  0  0  0
  153.3295  138.4366  188.2003 N   0  0  0  0  0  0  0  0  0  0  0  0
  152.9598  137.9524  186.9893 C   0  0  0  0  0  0  0  0  0  0  0  0
  153.8329  137.0125  186.6203 N   0  0  0  0  0  0  0  0  0  0  0  0
  154.7362  136.9017  187.5731 C   0  0  0  0  0  0  0  0  0  0  0  0
  155.8336  136.1124  187.7150 C   0  0  0  0  0  0  0  0  0  0  0  0
  156.1207  135.2956  186.8057 O   0  0  0  0  0  0  0  0  0  0  0  0
  157.7739  135.3516  188.9503 C   0  0  0  0  0  0  0  0  0  0  0  0
  157.3952  134.1351  189.6849 C   0  0  0  0  0  0  0  0  0  0  0  0
  156.7786  133.2583  189.1260 O   0  0  0  0  0  0  0  0  0  0  0  0
  157.4922  132.5027  191.5656 C   0  0  0  0  0  0  0  0  0  0  0  0
  157.7341  133.9071  191.1203 C   0  0  0  0  0  0  0  0  0  0  0  0
 40 41  1  0  0  0
 41 38  1  0  0  0
 38 39  2  0  0  0
 38 37  1  0  0  0
 37 25  1  0  0  0
 25 26  1  0  0  0
 26 27  2  0  0  0
 26 28  1  0  0  0
 28 29  1  0  0  0
 28 30  1  0  0  0
 30 31  1  0  0  0
 31 32  2  0  0  0
 32 33  1  0  0  0
 33 23  1  0  0  0
 23 24  1  0  0  0
 23  1  1  0  0  0
  1  2  2  0  0  0
  1  3  1  0  0  0
  3  5  1  0  0  0
  5  6  2  0  0  0
  6  7  1  0  0  0
  7  8  2  0  0  0
  8  9  1  0  0  0
  9 10  2  0  0  0
  9 11  1  0  0  0
 11 12  2  0  0  0
 12 13  1  0  0  0
 13 14  2  0  0  0
 14 15  1  0  0  0
 15 16  2  0  0  0
 14 17  1  0  0  0
 17 18  1  0  0  0
 18 19  1  0  0  0
 19 20  1  0  0  0
 20 21  1  0  0  0
 21 22  1  0  0  0
 33 34  1  0  0  0
 34 35  1  0  0  0
 35 36  2  0  0  0
 35 25  1  0  0  0
 34 30  2  0  0  0
 10  5  1  0  0  0
 16 11  1  0  0  0
 22 17  1  0  0  0
 21 19  1  0  0  0
  3  4  1  0  0  0
M  END
> <minimizedAffinity>
-8.90570

> <CNNscore>
0.2025878876

> <CNNaffinity>
6.7756614685

> <CNN_VS>
1.3726669550

> <CNNaffinity_variance>
0.3561411500

$$$$
[H]c1nc(-c2c([H])nc(N3C([H])([H])C4([H])C([H])([H])C4([H])C3([H])[H])c([H])c2[H])nc(N([H])C(=O)[C@@]([H])(n2c([H])nc3c2c(=O)n(C([H])([H])C(=O)C([H])([H])C([H])([H])[H])c(=O)n3C([H])([H])[H])C([H])([H])[H])c1[H]


 41 46  0  0  0  0  0  0  0  0999 V2000
  151.2446  136.9587  185.5957 C   0  0  0  0  0  0  0  0  0  0  0  0
  149.9373  136.9900  185.8727 O   0  0  0  0  0  0  0  0  0  0  0  0
  152.0069  137.6410  186.5104 N   0  0  0  0  0  0  0  0  0  0  0  0
  151.4323  138.1228  187.3391 H   0  0  0  0  0  0  0  0  0  0  0  0
  153.3740  137.8303  186.6458 C   0  0  0  0  0  0  0  0  0  0  0  0
  154.1955  137.3431  187.6169 C   0  0  0  0  0  0  0  0  0  0  0  0
  155.5777  137.5863  187.6329 C   0  0  0  0  0  0  0  0  0  0  0  0
  156.0990  138.3268  186.6528 N   0  0  0  0  0  0  0  0  0  0  0  0
  155.3293  138.8276  185.6768 C   0  0  0  0  0  0  0  0  0  0  0  0
  154.0271  138.5835  185.6839 N   0  0  0  0  0  0  0  0  0  0  0  0
  155.9493  139.6386  184.6167 C   0  0  0  0  0  0  0  0  0  0  0  0
  155.1943  140.4012  183.7581 C   0  0  0  0  0  0  0  0  0  0  0  0
  155.8384  141.1384  182.7872 C   0  0  0  0  0  0  0  0  0  0  0  0
  157.2226  141.1437  182.6389 C   0  0  0  0  0  0  0  0  0  0  0  0
  157.9131  140.3806  183.5048 N   0  0  0  0  0  0  0  0  0  0  0  0
  157.3197  139.6486  184.4642 C   0  0  0  0  0  0  0  0  0  0  0  0
  157.8571  141.9156  181.6270 N   0  0  0  0  0  0  0  0  0  0  0  0
  158.5240  141.3747  180.4591 C   0  0  0  0  0  0  0  0  0  0  0  0
  158.6721  142.5303  179.4933 C   0  0  0  0  0  0  0  0  0  0  0  0
  159.7783  143.4869  179.8147 C   0  0  0  0  0  0  0  0  0  0  0  0
  158.3863  143.7700  180.2567 C   0  0  0  0  0  0  0  0  0  0  0  0
  157.9222  143.3526  181.6268 C   0  0  0  0  0  0  0  0  0  0  0  0
  151.6037  136.2173  184.3845 C   0  0  0  0  0  0  0  0  0  0  0  0
  153.0651  135.7562  184.5804 C   0  0  0  0  0  0  0  0  0  0  0  0
  148.7124  137.3385  181.1366 N   0  0  0  0  0  0  0  0  0  0  0  0
  149.1692  138.3110  180.3350 C   0  0  0  0  0  0  0  0  0  0  0  0
  148.4694  138.7308  179.3794 O   0  0  0  0  0  0  0  0  0  0  0  0
  150.3739  138.8829  180.4991 N   0  0  0  0  0  0  0  0  0  0  0  0
  150.8674  139.9310  179.6357 C   0  0  0  0  0  0  0  0  0  0  0  0
  151.1429  138.4527  181.5135 C   0  0  0  0  0  0  0  0  0  0  0  0
  152.3684  138.7785  181.9746 N   0  0  0  0  0  0  0  0  0  0  0  0
  152.6593  138.0093  183.0523 C   0  0  0  0  0  0  0  0  0  0  0  0
  151.6291  137.1929  183.2850 N   0  0  0  0  0  0  0  0  0  0  0  0
  150.7053  137.4369  182.3777 C   0  0  0  0  0  0  0  0  0  0  0  0
  149.4751  136.9060  182.1495 C   0  0  0  0  0  0  0  0  0  0  0  0
  149.0528  135.9955  182.9040 O   0  0  0  0  0  0  0  0  0  0  0  0
  147.4047  136.7693  180.8989 C   0  0  0  0  0  0  0  0  0  0  0  0
  147.5584  135.5247  180.1306 C   0  0  0  0  0  0  0  0  0  0  0  0
  148.1700  135.5293  179.0878 O   0  0  0  0  0  0  0  0  0  0  0  0
  146.8117  133.2470  179.4482 C   0  0  0  0  0  0  0  0  0  0  0  0
  146.9901  134.2165  180.5695 C   0  0  0  0  0  0  0  0  0  0  0  0
 40 41  1  0  0  0
 41 38  1  0  0  0
 38 39  2  0  0  0
 38 37  1  0  0  0
 37 25  1  0  0  0
 25 26  1  0  0  0
 26 27  2  0  0  0
 26 28  1  0  0  0
 28 29  1  0  0  0
 28 30  1  0  0  0
 30 31  1  0  0  0
 31 32  2  0  0  0
 32 33  1  0  0  0
 33 23  1  0  0  0
 23 24  1  0  0  0
 23  1  1  0  0  0
  1  2  2  0  0  0
  1  3  1  0  0  0
  3  5  1  0  0  0
  5  6  2  0  0  0
  6  7  1  0  0  0
  7  8  2  0  0  0
  8  9  1  0  0  0
  9 10  2  0  0  0
  9 11  1  0  0  0
 11 12  2  0  0  0
 12 13  1  0  0  0
 13 14  2  0  0  0
 14 15  1  0  0  0
 15 16  2  0  0  0
 14 17  1  0  0  0
 17 18  1  0  0  0
 18 19  1  0  0  0
 19 20  1  0  0  0
 20 21  1  0  0  0
 21 22  1  0  0  0
 33 34  1  0  0  0
 34 35  1  0  0  0
 35 36  2  0  0  0
 35 25  1  0  0  0
 34 30  2  0  0  0
 10  5  1  0  0  0
 16 11  1  0  0  0
 22 17  1  0  0  0
 21 19  1  0  0  0
  3  4  1  0  0  0
M  END
> <minimizedAffinity>
-6.99106

> <CNNscore>
0.1842644960

> <CNNaffinity>
6.6274743080

> <CNN_VS>
1.2212082148

> <CNNaffinity_variance>
0.0604569428

$$$$
[H]c1nc(-c2c([H])nc(N3C([H])([H])C4([H])C([H])([H])C4([H])C3([H])[H])c([H])c2[H])nc(N([H])C(=O)[C@@]([H])(n2c([H])nc3c2c(=O)n(C([H])([H])C(=O)C([H])([H])C([H])([H])[H])c(=O)n3C([H])([H])[H])C([H])([H])[H])c1[H]


 41 46  0  0  0  0  0  0  0  0999 V2000
  151.8210  137.6954  182.8082 C   0  0  0  0  0  0  0  0  0  0  0  0
  152.5327  137.3951  181.7173 O   0  0  0  0  0  0  0  0  0  0  0  0
  150.4656  137.6446  182.5997 N   0  0  0  0  0  0  0  0  0  0  0  0
  150.1570  137.3699  181.5612 H   0  0  0  0  0  0  0  0  0  0  0  0
  149.3745  137.8297  183.4353 C   0  0  0  0  0  0  0  0  0  0  0  0
  148.2043  138.4688  183.1569 C   0  0  0  0  0  0  0  0  0  0  0  0
  147.1567  138.5709  184.0854 C   0  0  0  0  0  0  0  0  0  0  0  0
  147.3236  138.0166  185.2876 N   0  0  0  0  0  0  0  0  0  0  0  0
  148.4581  137.3784  185.6064 C   0  0  0  0  0  0  0  0  0  0  0  0
  149.4322  137.2954  184.7123 N   0  0  0  0  0  0  0  0  0  0  0  0
  148.5962  136.7825  186.9450 C   0  0  0  0  0  0  0  0  0  0  0  0
  147.5548  136.7763  187.8419 C   0  0  0  0  0  0  0  0  0  0  0  0
  147.7509  136.2009  189.0795 C   0  0  0  0  0  0  0  0  0  0  0  0
  148.9598  135.6251  189.4601 C   0  0  0  0  0  0  0  0  0  0  0  0
  149.9449  135.6582  188.5451 N   0  0  0  0  0  0  0  0  0  0  0  0
  149.7907  136.2104  187.3287 C   0  0  0  0  0  0  0  0  0  0  0  0
  149.1300  135.0389  190.7446 N   0  0  0  0  0  0  0  0  0  0  0  0
  149.9899  135.5558  191.7910 C   0  0  0  0  0  0  0  0  0  0  0  0
  149.5464  134.8741  193.0672 C   0  0  0  0  0  0  0  0  0  0  0  0
  150.0184  133.4623  193.2284 C   0  0  0  0  0  0  0  0  0  0  0  0
  148.6686  133.7456  192.6710 C   0  0  0  0  0  0  0  0  0  0  0  0
  148.4638  133.8416  191.1825 C   0  0  0  0  0  0  0  0  0  0  0  0
  152.6148  138.0205  183.9956 C   0  0  0  0  0  0  0  0  0  0  0  0
  154.0092  138.4391  183.4788 C   0  0  0  0  0  0  0  0  0  0  0  0
  153.6125  137.0077  188.2552 N   0  0  0  0  0  0  0  0  0  0  0  0
  153.6964  135.6886  188.4790 C   0  0  0  0  0  0  0  0  0  0  0  0
  153.9688  135.2527  189.6257 O   0  0  0  0  0  0  0  0  0  0  0  0
  153.4995  134.7734  187.5153 N   0  0  0  0  0  0  0  0  0  0  0  0
  153.5898  133.3515  187.7553 C   0  0  0  0  0  0  0  0  0  0  0  0
  153.2067  135.2124  186.2795 C   0  0  0  0  0  0  0  0  0  0  0  0
  152.9517  134.6113  185.0987 N   0  0  0  0  0  0  0  0  0  0  0  0
  152.7133  135.5579  184.1580 C   0  0  0  0  0  0  0  0  0  0  0  0
  152.8137  136.7611  184.7274 N   0  0  0  0  0  0  0  0  0  0  0  0
  153.1086  136.5843  185.9994 C   0  0  0  0  0  0  0  0  0  0  0  0
  153.3208  137.4506  187.0250 C   0  0  0  0  0  0  0  0  0  0  0  0
  153.2405  138.6849  186.8089 O   0  0  0  0  0  0  0  0  0  0  0  0
  153.8374  137.9345  189.3419 C   0  0  0  0  0  0  0  0  0  0  0  0
  155.2853  138.1294  189.5110 C   0  0  0  0  0  0  0  0  0  0  0  0
  156.0116  138.1363  188.5447 O   0  0  0  0  0  0  0  0  0  0  0  0
  156.3622  137.0460  191.4802 C   0  0  0  0  0  0  0  0  0  0  0  0
  155.9349  138.3254  190.8401 C   0  0  0  0  0  0  0  0  0  0  0  0
 40 41  1  0  0  0
 41 38  1  0  0  0
 38 39  2  0  0  0
 38 37  1  0  0  0
 37 25  1  0  0  0
 25 26  1  0  0  0
 26 27  2  0  0  0
 26 28  1  0  0  0
 28 29  1  0  0  0
 28 30  1  0  0  0
 30 31  1  0  0  0
 31 32  2  0  0  0
 32 33  1  0  0  0
 33 23  1  0  0  0
 23 24  1  0  0  0
 23  1  1  0  0  0
  1  2  2  0  0  0
  1  3  1  0  0  0
  3  5  1  0  0  0
  5  6  2  0  0  0
  6  7  1  0  0  0
  7  8  2  0  0  0
  8  9  1  0  0  0
  9 10  2  0  0  0
  9 11  1  0  0  0
 11 12  2  0  0  0
 12 13  1  0  0  0
 13 14  2  0  0  0
 14 15  1  0  0  0
 15 16  2  0  0  0
 14 17  1  0  0  0
 17 18  1  0  0  0
 18 19  1  0  0  0
 19 20  1  0  0  0
 20 21  1  0  0  0
 21 22  1  0  0  0
 33 34  1  0  0  0
 34 35  1  0  0  0
 35 36  2  0  0  0
 35 25  1  0  0  0
 34 30  2  0  0  0
 10  5  1  0  0  0
 16 11  1  0  0  0
 22 17  1  0  0  0
 21 19  1  0  0  0
  3  4  1  0  0  0
M  END
> <minimizedAffinity>
-5.85484

> <CNNscore>
0.1580802649

> <CNNaffinity>
5.8539757729

> <CNN_VS>
0.9253980517

> <CNNaffinity_variance>
0.3346926868

$$$$
[H]c1nc([H])c(N([H])C(=O)[C@@]([H])(n2c([H])nc3c2c(=O)n(C([H])([H])c2nc(C([H])([H])[H])no2)c(=O)n3C([H])([H])[H])C([H])([H])[H])nc1-c1c([H])nc(C(F)(F)F)c(C([H])([H])[H])c1[H]


 42 46  0  0  0  0  0  0  0  0999 V2000
  155.3504  138.4402  189.7289 C   0  0  0  0  0  0  0  0  0  0  0  0
  154.3904  137.4164  189.2469 C   0  0  0  0  0  0  0  0  0  0  0  0
  153.4187  136.9960  190.2500 N   0  0  0  0  0  0  0  0  0  0  0  0
  153.5425  137.1002  191.6113 C   0  0  0  0  0  0  0  0  0  0  0  0
  152.4768  136.6237  192.2299 N   0  0  0  0  0  0  0  0  0  0  0  0
  151.6321  136.1968  191.2743 C   0  0  0  0  0  0  0  0  0  0  0  0
  150.4272  135.6366  191.3273 N   0  0  0  0  0  0  0  0  0  0  0  0
  149.8370  135.4058  192.6428 C   0  0  0  0  0  0  0  0  0  0  0  0
  149.7390  135.2787  190.2284 C   0  0  0  0  0  0  0  0  0  0  0  0
  148.5945  134.7486  190.3382 O   0  0  0  0  0  0  0  0  0  0  0  0
  150.2741  135.4874  189.0157 N   0  0  0  0  0  0  0  0  0  0  0  0
  151.5072  136.0600  188.9427 C   0  0  0  0  0  0  0  0  0  0  0  0
  151.9212  136.2135  187.7617 O   0  0  0  0  0  0  0  0  0  0  0  0
  152.2423  136.4394  190.0320 C   0  0  0  0  0  0  0  0  0  0  0  0
  149.5706  135.1184  187.7941 C   0  0  0  0  0  0  0  0  0  0  0  0
  148.7074  136.2277  187.3147 C   0  0  0  0  0  0  0  0  0  0  0  0
  148.8331  136.9157  186.1469 N   0  0  0  0  0  0  0  0  0  0  0  0
  147.8597  137.8443  186.0758 C   0  0  0  0  0  0  0  0  0  0  0  0
  147.6027  138.8242  184.9871 C   0  0  0  0  0  0  0  0  0  0  0  0
  147.1472  137.7084  187.2121 N   0  0  0  0  0  0  0  0  0  0  0  0
  147.6632  136.7514  187.9267 O   0  0  0  0  0  0  0  0  0  0  0  0
  154.8966  136.3078  188.4467 C   0  0  0  0  0  0  0  0  0  0  0  0
  155.0714  135.1636  189.0773 O   0  0  0  0  0  0  0  0  0  0  0  0
  155.2154  136.3146  187.1177 N   0  0  0  0  0  0  0  0  0  0  0  0
  155.5947  135.3777  186.7215 H   0  0  0  0  0  0  0  0  0  0  0  0
  155.0514  137.3243  186.1572 C   0  0  0  0  0  0  0  0  0  0  0  0
  156.0274  138.3442  186.0468 C   0  0  0  0  0  0  0  0  0  0  0  0
  155.9305  139.2900  185.1236 N   0  0  0  0  0  0  0  0  0  0  0  0
  154.8995  139.3248  184.2475 C   0  0  0  0  0  0  0  0  0  0  0  0
  153.9241  138.3515  184.3162 C   0  0  0  0  0  0  0  0  0  0  0  0
  154.0610  137.4182  185.2618 N   0  0  0  0  0  0  0  0  0  0  0  0
  152.8086  138.3411  183.3797 C   0  0  0  0  0  0  0  0  0  0  0  0
  151.6930  137.5760  183.6440 C   0  0  0  0  0  0  0  0  0  0  0  0
  150.6480  137.5483  182.8066 N   0  0  0  0  0  0  0  0  0  0  0  0
  150.6171  138.2672  181.6480 C   0  0  0  0  0  0  0  0  0  0  0  0
  151.7128  139.0464  181.3450 C   0  0  0  0  0  0  0  0  0  0  0  0
  151.7518  139.8538  180.1216 C   0  0  0  0  0  0  0  0  0  0  0  0
  152.8106  139.0760  182.2239 C   0  0  0  0  0  0  0  0  0  0  0  0
  149.4292  138.1641  180.7919 C   0  0  0  0  0  0  0  0  0  0  0  0
  148.7405  139.3735  180.8892 F   0  0  0  0  0  0  0  0  0  0  0  0
  148.5733  137.1819  181.3221 F   0  0  0  0  0  0  0  0  0  0  0  0
  149.6664  137.7843  179.5046 F   0  0  0  0  0  0  0  0  0  0  0  0
  1  2  1  0  0  0
  2 22  1  0  0  0
 22 23  2  0  0  0
 22 24  1  0  0  0
 24 26  1  0  0  0
 26 27  2  0  0  0
 27 28  1  0  0  0
 28 29  2  0  0  0
 29 30  1  0  0  0
 30 31  2  0  0  0
 30 32  1  0  0  0
 32 33  2  0  0  0
 33 34  1  0  0  0
 34 35  2  0  0  0
 35 36  1  0  0  0
 36 37  1  0  0  0
 36 38  2  0  0  0
 35 39  1  0  0  0
 39 40  1  0  0  0
 39 41  1  0  0  0
 39 42  1  0  0  0
  2  3  1  0  0  0
  3  4  1  0  0  0
  4  5  2  0  0  0
  5  6  1  0  0  0
  6  7  1  0  0  0
  7  8  1  0  0  0
  7  9  1  0  0  0
  9 10  2  0  0  0
  9 11  1  0  0  0
 11 15  1  0  0  0
 15 16  1  0  0  0
 16 17  2  0  0  0
 17 18  1  0  0  0
 18 19  1  0  0  0
 18 20  2  0  0  0
 20 21  1  0  0  0
 11 12  1  0  0  0
 12 13  2  0  0  0
 12 14  1  0  0  0
 31 26  1  0  0  0
 38 32  1  0  0  0
 14  3  1  0  0  0
 14  6  2  0  0  0
 21 16  1  0  0  0
 24 25  1  0  0  0
M  END
> <minimizedAffinity>
-7.37057

> <CNNscore>
0.5838905573

> <CNNaffinity>
6.8622817993

> <CNN_VS>
4.0068216324

> <CNNaffinity_variance>
0.3280114532

$$$$
[H]c1nc([H])c(N([H])C(=O)[C@@]([H])(n2c([H])nc3c2c(=O)n(C([H])([H])c2nc(C([H])([H])[H])no2)c(=O)n3C([H])([H])[H])C([H])([H])[H])nc1-c1c([H])nc(C(F)(F)F)c(C([H])([H])[H])c1[H]


 42 46  0  0  0  0  0  0  0  0999 V2000
  153.9703  139.8816  185.0200 C   0  0  0  0  0  0  0  0  0  0  0  0
  154.3266  139.9798  183.5828 C   0  0  0  0  0  0  0  0  0  0  0  0
  154.8321  141.2888  183.1854 N   0  0  0  0  0  0  0  0  0  0  0  0
  154.0937  142.4183  182.9435 C   0  0  0  0  0  0  0  0  0  0  0  0
  154.8658  143.4350  182.6031 N   0  0  0  0  0  0  0  0  0  0  0  0
  156.1321  142.9820  182.6173 C   0  0  0  0  0  0  0  0  0  0  0  0
  157.2974  143.5688  182.3599 N   0  0  0  0  0  0  0  0  0  0  0  0
  157.2847  144.9787  181.9802 C   0  0  0  0  0  0  0  0  0  0  0  0
  158.4739  142.9211  182.4351 C   0  0  0  0  0  0  0  0  0  0  0  0
  159.5539  143.5302  182.1789 O   0  0  0  0  0  0  0  0  0  0  0  0
  158.4944  141.6254  182.7834 N   0  0  0  0  0  0  0  0  0  0  0  0
  157.3104  141.0085  183.0505 C   0  0  0  0  0  0  0  0  0  0  0  0
  157.4361  139.7948  183.3678 O   0  0  0  0  0  0  0  0  0  0  0  0
  156.0921  141.6269  182.9867 C   0  0  0  0  0  0  0  0  0  0  0  0
  159.7415  140.8778  182.8798 C   0  0  0  0  0  0  0  0  0  0  0  0
  160.6431  141.4655  183.9031 C   0  0  0  0  0  0  0  0  0  0  0  0
  160.2763  142.0631  185.0699 N   0  0  0  0  0  0  0  0  0  0  0  0
  161.3824  142.4668  185.7246 C   0  0  0  0  0  0  0  0  0  0  0  0
  161.4710  143.1641  187.0351 C   0  0  0  0  0  0  0  0  0  0  0  0
  162.4181  142.1063  184.9405 N   0  0  0  0  0  0  0  0  0  0  0  0
  161.9604  141.5186  183.8737 O   0  0  0  0  0  0  0  0  0  0  0  0
  153.4220  139.3975  182.5989 C   0  0  0  0  0  0  0  0  0  0  0  0
  153.2772  140.0644  181.4712 O   0  0  0  0  0  0  0  0  0  0  0  0
  152.7018  138.2411  182.7081 N   0  0  0  0  0  0  0  0  0  0  0  0
  152.0719  137.9986  181.8578 H   0  0  0  0  0  0  0  0  0  0  0  0
  152.7102  137.2667  183.7179 C   0  0  0  0  0  0  0  0  0  0  0  0
  152.4162  135.9213  183.3884 C   0  0  0  0  0  0  0  0  0  0  0  0
  152.4567  134.9654  184.3053 N   0  0  0  0  0  0  0  0  0  0  0  0
  152.7796  135.2292  185.5929 C   0  0  0  0  0  0  0  0  0  0  0  0
  153.0744  136.5256  185.9614 C   0  0  0  0  0  0  0  0  0  0  0  0
  153.0209  137.4572  185.0058 N   0  0  0  0  0  0  0  0  0  0  0  0
  153.4459  136.8490  187.3321 C   0  0  0  0  0  0  0  0  0  0  0  0
  152.5240  136.7117  188.3476 C   0  0  0  0  0  0  0  0  0  0  0  0
  152.8349  136.9952  189.6192 N   0  0  0  0  0  0  0  0  0  0  0  0
  154.0711  137.4346  189.9916 C   0  0  0  0  0  0  0  0  0  0  0  0
  155.0237  137.5860  189.0071 C   0  0  0  0  0  0  0  0  0  0  0  0
  156.3780  138.0465  189.3294 C   0  0  0  0  0  0  0  0  0  0  0  0
  154.6980  137.2883  187.6716 C   0  0  0  0  0  0  0  0  0  0  0  0
  154.3120  137.7267  191.4098 C   0  0  0  0  0  0  0  0  0  0  0  0
  154.7852  139.0367  191.4898 F   0  0  0  0  0  0  0  0  0  0  0  0
  155.3559  136.9041  191.8702 F   0  0  0  0  0  0  0  0  0  0  0  0
  153.2619  137.4841  192.2443 F   0  0  0  0  0  0  0  0  0  0  0  0
  1  2  1  0  0  0
  2 22  1  0  0  0
 22 23  2  0  0  0
 22 24  1  0  0  0
 24 26  1  0  0  0
 26 27  2  0  0  0
 27 28  1  0  0  0
 28 29  2  0  0  0
 29 30  1  0  0  0
 30 31  2  0  0  0
 30 32  1  0  0  0
 32 33  2  0  0  0
 33 34  1  0  0  0
 34 35  2  0  0  0
 35 36  1  0  0  0
 36 37  1  0  0  0
 36 38  2  0  0  0
 35 39  1  0  0  0
 39 40  1  0  0  0
 39 41  1  0  0  0
 39 42  1  0  0  0
  2  3  1  0  0  0
  3  4  1  0  0  0
  4  5  2  0  0  0
  5  6  1  0  0  0
  6  7  1  0  0  0
  7  8  1  0  0  0
  7  9  1  0  0  0
  9 10  2  0  0  0
  9 11  1  0  0  0
 11 15  1  0  0  0
 15 16  1  0  0  0
 16 17  2  0  0  0
 17 18  1  0  0  0
 18 19  1  0  0  0
 18 20  2  0  0  0
 20 21  1  0  0  0
 11 12  1  0  0  0
 12 13  2  0  0  0
 12 14  1  0  0  0
 31 26  1  0  0  0
 38 32  1  0  0  0
 14  3  1  0  0  0
 14  6  2  0  0  0
 21 16  1  0  0  0
 24 25  1  0  0  0
M  END
> <minimizedAffinity>
-9.72623

> <CNNscore>
0.5303455591

> <CNNaffinity>
7.5352234840

> <CNN_VS>
3.9962723255

> <CNNaffinity_variance>
0.3223077059

$$$$
[H]c1nc([H])c(N([H])C(=O)[C@@]([H])(n2c([H])nc3c2c(=O)n(C([H])([H])c2nc(C([H])([H])[H])no2)c(=O)n3C([H])([H])[H])C([H])([H])[H])nc1-c1c([H])nc(C(F)(F)F)c(C([H])([H])[H])c1[H]


 42 46  0  0  0  0  0  0  0  0999 V2000
  153.6336  139.2857  185.2973 C   0  0  0  0  0  0  0  0  0  0  0  0
  154.0685  139.2338  183.8795 C   0  0  0  0  0  0  0  0  0  0  0  0
  154.4341  140.5316  183.3236 N   0  0  0  0  0  0  0  0  0  0  0  0
  153.5850  141.4728  182.8014 C   0  0  0  0  0  0  0  0  0  0  0  0
  154.2450  142.5387  182.3843 N   0  0  0  0  0  0  0  0  0  0  0  0
  155.5473  142.3089  182.6296 C   0  0  0  0  0  0  0  0  0  0  0  0
  156.6416  143.0337  182.4161 N   0  0  0  0  0  0  0  0  0  0  0  0
  156.4829  144.3469  181.7975 C   0  0  0  0  0  0  0  0  0  0  0  0
  157.8749  142.6088  182.7443 C   0  0  0  0  0  0  0  0  0  0  0  0
  158.8824  143.3415  182.5177 O   0  0  0  0  0  0  0  0  0  0  0  0
  158.0295  141.4034  183.3130 N   0  0  0  0  0  0  0  0  0  0  0  0
  156.9198  140.6477  183.5391 C   0  0  0  0  0  0  0  0  0  0  0  0
  157.1702  139.5347  184.0761 O   0  0  0  0  0  0  0  0  0  0  0  0
  155.6481  141.0388  183.2222 C   0  0  0  0  0  0  0  0  0  0  0  0
  159.3432  140.8961  183.6878 C   0  0  0  0  0  0  0  0  0  0  0  0
  159.8439  141.5579  184.9194 C   0  0  0  0  0  0  0  0  0  0  0  0
  161.0905  142.0641  185.1266 N   0  0  0  0  0  0  0  0  0  0  0  0
  161.1547  142.5818  186.3687 C   0  0  0  0  0  0  0  0  0  0  0  0
  162.3124  143.2393  187.0312 C   0  0  0  0  0  0  0  0  0  0  0  0
  159.9348  142.3822  186.9067 N   0  0  0  0  0  0  0  0  0  0  0  0
  159.1791  141.7782  186.0367 O   0  0  0  0  0  0  0  0  0  0  0  0
  153.3089  138.4100  182.9469 C   0  0  0  0  0  0  0  0  0  0  0  0
  152.7056  139.0460  181.9625 O   0  0  0  0  0  0  0  0  0  0  0  0
  153.1446  137.0534  182.9737 N   0  0  0  0  0  0  0  0  0  0  0  0
  152.5202  136.6409  182.1872 H   0  0  0  0  0  0  0  0  0  0  0  0
  153.7266  136.0920  183.8139 C   0  0  0  0  0  0  0  0  0  0  0  0
  154.0533  134.8175  183.2905 C   0  0  0  0  0  0  0  0  0  0  0  0
  154.6437  133.8982  184.0405 N   0  0  0  0  0  0  0  0  0  0  0  0
  154.9607  134.1337  185.3350 C   0  0  0  0  0  0  0  0  0  0  0  0
  154.6622  135.3614  185.8890 C   0  0  0  0  0  0  0  0  0  0  0  0
  154.0670  136.2578  185.0977 N   0  0  0  0  0  0  0  0  0  0  0  0
  155.0042  135.6624  187.2724 C   0  0  0  0  0  0  0  0  0  0  0  0
  155.6959  134.7406  188.0285 C   0  0  0  0  0  0  0  0  0  0  0  0
  156.0306  134.9881  189.3015 N   0  0  0  0  0  0  0  0  0  0  0  0
  155.7132  136.1564  189.9295 C   0  0  0  0  0  0  0  0  0  0  0  0
  155.0214  137.1065  189.2096 C   0  0  0  0  0  0  0  0  0  0  0  0
  154.6505  138.3906  189.8126 C   0  0  0  0  0  0  0  0  0  0  0  0
  154.6696  136.8472  187.8727 C   0  0  0  0  0  0  0  0  0  0  0  0
  156.1172  136.3303  191.3299 C   0  0  0  0  0  0  0  0  0  0  0  0
  156.8928  137.4880  191.3981 F   0  0  0  0  0  0  0  0  0  0  0  0
  156.9658  135.2683  191.6912 F   0  0  0  0  0  0  0  0  0  0  0  0
  155.1019  136.3109  192.2391 F   0  0  0  0  0  0  0  0  0  0  0  0
  1  2  1  0  0  0
  2 22  1  0  0  0
 22 23  2  0  0  0
 22 24  1  0  0  0
 24 26  1  0  0  0
 26 27  2  0  0  0
 27 28  1  0  0  0
 28 29  2  0  0  0
 29 30  1  0  0  0
 30 31  2  0  0  0
 30 32  1  0  0  0
 32 33  2  0  0  0
 33 34  1  0  0  0
 34 35  2  0  0  0
 35 36  1  0  0  0
 36 37  1  0  0  0
 36 38  2  0  0  0
 35 39  1  0  0  0
 39 40  1  0  0  0
 39 41  1  0  0  0
 39 42  1  0  0  0
  2  3  1  0  0  0
  3  4  1  0  0  0
  4  5  2  0  0  0
  5  6  1  0  0  0
  6  7  1  0  0  0
  7  8  1  0  0  0
  7  9  1  0  0  0
  9 10  2  0  0  0
  9 11  1  0  0  0
 11 15  1  0  0  0
 15 16  1  0  0  0
 16 17  2  0  0  0
 17 18  1  0  0  0
 18 19  1  0  0  0
 18 20  2  0  0  0
 20 21  1  0  0  0
 11 12  1  0  0  0
 12 13  2  0  0  0
 12 14  1  0  0  0
 31 26  1  0  0  0
 38 32  1  0  0  0
 14  3  1  0  0  0
 14  6  2  0  0  0
 21 16  1  0  0  0
 24 25  1  0  0  0
M  END
> <minimizedAffinity>
-9.10505

> <CNNscore>
0.4851633608

> <CNNaffinity>
7.3813390732

> <CNN_VS>
3.5811553001

> <CNNaffinity_variance>
0.5848644376

$$$$
[H]c1nc([H])c(N([H])C(=O)[C@@]([H])(n2c([H])nc3c2c(=O)n(C([H])([H])c2nc(C([H])([H])[H])no2)c(=O)n3C([H])([H])[H])C([H])([H])[H])nc1-c1c([H])nc(C(F)(F)F)c(C([H])([H])[H])c1[H]


 42 46  0  0  0  0  0  0  0  0999 V2000
  153.9621  139.1757  185.1869 C   0  0  0  0  0  0  0  0  0  0  0  0
  154.0938  139.2444  183.7104 C   0  0  0  0  0  0  0  0  0  0  0  0
  154.4568  140.5647  183.2083 N   0  0  0  0  0  0  0  0  0  0  0  0
  153.6072  141.5197  182.7128 C   0  0  0  0  0  0  0  0  0  0  0  0
  154.2646  142.6048  182.3439 N   0  0  0  0  0  0  0  0  0  0  0  0
  155.5657  142.3741  182.5948 C   0  0  0  0  0  0  0  0  0  0  0  0
  156.6574  143.1133  182.4211 N   0  0  0  0  0  0  0  0  0  0  0  0
  156.4967  144.4480  181.8511 C   0  0  0  0  0  0  0  0  0  0  0  0
  157.8898  142.6839  182.7465 C   0  0  0  0  0  0  0  0  0  0  0  0
  158.8948  143.4309  182.5591 O   0  0  0  0  0  0  0  0  0  0  0  0
  158.0463  141.4587  183.2708 N   0  0  0  0  0  0  0  0  0  0  0  0
  156.9393  140.6880  183.4556 C   0  0  0  0  0  0  0  0  0  0  0  0
  157.1912  139.5570  183.9527 O   0  0  0  0  0  0  0  0  0  0  0  0
  155.6684  141.0830  183.1397 C   0  0  0  0  0  0  0  0  0  0  0  0
  159.3591  140.9456  183.6406 C   0  0  0  0  0  0  0  0  0  0  0  0
  159.8561  141.5866  184.8846 C   0  0  0  0  0  0  0  0  0  0  0  0
  161.1032  142.0855  185.1056 N   0  0  0  0  0  0  0  0  0  0  0  0
  161.1631  142.5836  186.3560 C   0  0  0  0  0  0  0  0  0  0  0  0
  162.3196  143.2270  187.0340 C   0  0  0  0  0  0  0  0  0  0  0  0
  159.9400  142.3796  186.8850 N   0  0  0  0  0  0  0  0  0  0  0  0
  159.1866  141.7917  186.0021 O   0  0  0  0  0  0  0  0  0  0  0  0
  153.0885  138.5810  182.8891 C   0  0  0  0  0  0  0  0  0  0  0  0
  153.1780  138.7716  181.5879 O   0  0  0  0  0  0  0  0  0  0  0  0
  152.0595  137.7855  183.3090 N   0  0  0  0  0  0  0  0  0  0  0  0
  151.4118  137.4038  182.5257 H   0  0  0  0  0  0  0  0  0  0  0  0
  151.7533  137.3123  184.5940 C   0  0  0  0  0  0  0  0  0  0  0  0
  150.4593  136.8008  184.8566 C   0  0  0  0  0  0  0  0  0  0  0  0
  150.1453  136.3046  186.0446 N   0  0  0  0  0  0  0  0  0  0  0  0
  151.0425  136.2637  187.0571 C   0  0  0  0  0  0  0  0  0  0  0  0
  152.3164  136.7504  186.8484 C   0  0  0  0  0  0  0  0  0  0  0  0
  152.5895  137.2415  185.6367 N   0  0  0  0  0  0  0  0  0  0  0  0
  153.3177  136.7069  187.9053 C   0  0  0  0  0  0  0  0  0  0  0  0
  154.0841  135.5751  188.0836 C   0  0  0  0  0  0  0  0  0  0  0  0
  155.0168  135.5044  189.0422 N   0  0  0  0  0  0  0  0  0  0  0  0
  155.2690  136.5361  189.8978 C   0  0  0  0  0  0  0  0  0  0  0  0
  154.5250  137.6873  189.7544 C   0  0  0  0  0  0  0  0  0  0  0  0
  154.7424  138.8425  190.6310 C   0  0  0  0  0  0  0  0  0  0  0  0
  153.5453  137.7624  188.7480 C   0  0  0  0  0  0  0  0  0  0  0  0
  156.3064  136.3589  190.9210 C   0  0  0  0  0  0  0  0  0  0  0  0
  155.6667  136.3281  192.1605 F   0  0  0  0  0  0  0  0  0  0  0  0
  157.1296  137.4994  190.9330 F   0  0  0  0  0  0  0  0  0  0  0  0
  157.1477  135.3044  190.7256 F   0  0  0  0  0  0  0  0  0  0  0  0
  1  2  1  0  0  0
  2 22  1  0  0  0
 22 23  2  0  0  0
 22 24  1  0  0  0
 24 26  1  0  0  0
 26 27  2  0  0  0
 27 28  1  0  0  0
 28 29  2  0  0  0
 29 30  1  0  0  0
 30 31  2  0  0  0
 30 32  1  0  0  0
 32 33  2  0  0  0
 33 34  1  0  0  0
 34 35  2  0  0  0
 35 36  1  0  0  0
 36 37  1  0  0  0
 36 38  2  0  0  0
 35 39  1  0  0  0
 39 40  1  0  0  0
 39 41  1  0  0  0
 39 42  1  0  0  0
  2  3  1  0  0  0
  3  4  1  0  0  0
  4  5  2  0  0  0
  5  6  1  0  0  0
  6  7  1  0  0  0
  7  8  1  0  0  0
  7  9  1  0  0  0
  9 10  2  0  0  0
  9 11  1  0  0  0
 11 15  1  0  0  0
 15 16  1  0  0  0
 16 17  2  0  0  0
 17 18  1  0  0  0
 18 19  1  0  0  0
 18 20  2  0  0  0
 20 21  1  0  0  0
 11 12  1  0  0  0
 12 13  2  0  0  0
 12 14  1  0  0  0
 31 26  1  0  0  0
 38 32  1  0  0  0
 14  3  1  0  0  0
 14  6  2  0  0  0
 21 16  1  0  0  0
 24 25  1  0  0  0
M  END
> <minimizedAffinity>
-9.60808

> <CNNscore>
0.4353923202

> <CNNaffinity>
7.3018813133

> <CNN_VS>
3.1791830063

> <CNNaffinity_variance>
0.5446232557

$$$$
[H]c1nc([H])c(N([H])C(=O)[C@@]([H])(n2c([H])nc3c2c(=O)n(C([H])([H])c2nc(C([H])([H])[H])no2)c(=O)n3C([H])([H])[H])C([H])([H])[H])nc1-c1c([H])nc(C(F)(F)F)c(C([H])([H])[H])c1[H]


 42 46  0  0  0  0  0  0  0  0999 V2000
  155.2125  139.1471  185.2233 C   0  0  0  0  0  0  0  0  0  0  0  0
  154.8114  139.3805  183.8138 C   0  0  0  0  0  0  0  0  0  0  0  0
  155.0367  140.7453  183.3515 N   0  0  0  0  0  0  0  0  0  0  0  0
  154.0823  141.6611  182.9913 C   0  0  0  0  0  0  0  0  0  0  0  0
  154.6284  142.8057  182.6207 N   0  0  0  0  0  0  0  0  0  0  0  0
  155.9601  142.6547  182.7339 C   0  0  0  0  0  0  0  0  0  0  0  0
  156.9790  143.4757  182.4973 N   0  0  0  0  0  0  0  0  0  0  0  0
  156.6767  144.8216  182.0182 C   0  0  0  0  0  0  0  0  0  0  0  0
  158.2628  143.1184  182.6805 C   0  0  0  0  0  0  0  0  0  0  0  0
  159.1939  143.9418  182.4389 O   0  0  0  0  0  0  0  0  0  0  0  0
  158.5493  141.8837  183.1205 N   0  0  0  0  0  0  0  0  0  0  0  0
  157.5182  141.0297  183.3679 C   0  0  0  0  0  0  0  0  0  0  0  0
  157.8907  139.8967  183.7770 O   0  0  0  0  0  0  0  0  0  0  0  0
  156.1995  141.3495  183.1961 C   0  0  0  0  0  0  0  0  0  0  0  0
  159.9227  141.4465  183.3356 C   0  0  0  0  0  0  0  0  0  0  0  0
  160.4285  141.8937  184.6583 C   0  0  0  0  0  0  0  0  0  0  0  0
  161.7252  142.1239  185.0028 N   0  0  0  0  0  0  0  0  0  0  0  0
  161.7757  142.5161  186.2907 C   0  0  0  0  0  0  0  0  0  0  0  0
  162.9737  142.8748  187.0954 C   0  0  0  0  0  0  0  0  0  0  0  0
  160.4970  142.5196  186.7177 N   0  0  0  0  0  0  0  0  0  0  0  0
  159.7207  142.1502  185.7410 O   0  0  0  0  0  0  0  0  0  0  0  0
  153.5472  138.8242  183.3473 C   0  0  0  0  0  0  0  0  0  0  0  0
  152.9836  139.4322  182.3226 O   0  0  0  0  0  0  0  0  0  0  0  0
  152.8732  137.7465  183.8495 N   0  0  0  0  0  0  0  0  0  0  0  0
  151.9332  137.5112  183.3599 H   0  0  0  0  0  0  0  0  0  0  0  0
  153.2461  136.8381  184.8519 C   0  0  0  0  0  0  0  0  0  0  0  0
  153.9479  135.6605  184.4971 C   0  0  0  0  0  0  0  0  0  0  0  0
  154.3555  134.8002  185.4190 N   0  0  0  0  0  0  0  0  0  0  0  0
  154.1214  135.0061  186.7360 C   0  0  0  0  0  0  0  0  0  0  0  0
  153.4414  136.1400  187.1300 C   0  0  0  0  0  0  0  0  0  0  0  0
  153.0487  136.9794  186.1682 N   0  0  0  0  0  0  0  0  0  0  0  0
  153.1861  136.4093  188.5385 C   0  0  0  0  0  0  0  0  0  0  0  0
  152.0430  135.9252  189.1375 C   0  0  0  0  0  0  0  0  0  0  0  0
  151.7809  136.1502  190.4315 N   0  0  0  0  0  0  0  0  0  0  0  0
  152.6181  136.8659  191.2358 C   0  0  0  0  0  0  0  0  0  0  0  0
  153.7733  137.3686  190.6770 C   0  0  0  0  0  0  0  0  0  0  0  0
  154.7272  138.1417  191.4787 C   0  0  0  0  0  0  0  0  0  0  0  0
  154.0492  137.1327  189.3181 C   0  0  0  0  0  0  0  0  0  0  0  0
  152.2388  137.0652  192.6398 C   0  0  0  0  0  0  0  0  0  0  0  0
  152.8649  136.0659  193.3854 F   0  0  0  0  0  0  0  0  0  0  0  0
  150.8560  136.8438  192.7708 F   0  0  0  0  0  0  0  0  0  0  0  0
  152.4556  138.3173  193.1329 F   0  0  0  0  0  0  0  0  0  0  0  0
  1  2  1  0  0  0
  2 22  1  0  0  0
 22 23  2  0  0  0
 22 24  1  0  0  0
 24 26  1  0  0  0
 26 27  2  0  0  0
 27 28  1  0  0  0
 28 29  2  0  0  0
 29 30  1  0  0  0
 30 31  2  0  0  0
 30 32  1  0  0  0
 32 33  2  0  0  0
 33 34  1  0  0  0
 34 35  2  0  0  0
 35 36  1  0  0  0
 36 37  1  0  0  0
 36 38  2  0  0  0
 35 39  1  0  0  0
 39 40  1  0  0  0
 39 41  1  0  0  0
 39 42  1  0  0  0
  2  3  1  0  0  0
  3  4  1  0  0  0
  4  5  2  0  0  0
  5  6  1  0  0  0
  6  7  1  0  0  0
  7  8  1  0  0  0
  7  9  1  0  0  0
  9 10  2  0  0  0
  9 11  1  0  0  0
 11 15  1  0  0  0
 15 16  1  0  0  0
 16 17  2  0  0  0
 17 18  1  0  0  0
 18 19  1  0  0  0
 18 20  2  0  0  0
 20 21  1  0  0  0
 11 12  1  0  0  0
 12 13  2  0  0  0
 12 14  1  0  0  0
 31 26  1  0  0  0
 38 32  1  0  0  0
 14  3  1  0  0  0
 14  6  2  0  0  0
 21 16  1  0  0  0
 24 25  1  0  0  0
M  END
> <minimizedAffinity>
-9.80073

> <CNNscore>
0.3942218125

> <CNNaffinity>
7.1867995262

> <CNN_VS>
2.8331930637

> <CNNaffinity_variance>
0.3017938733

$$$$
[H]c1nc([H])c(N([H])C(=O)[C@@]([H])(n2c([H])nc3c2c(=O)n(C([H])([H])c2nc(C([H])([H])[H])no2)c(=O)n3C([H])([H])[H])C([H])([H])[H])nc1-c1c([H])nc(C(F)(F)F)c(C([H])([H])[H])c1[H]


 42 46  0  0  0  0  0  0  0  0999 V2000
  154.7890  138.6529  190.5170 C   0  0  0  0  0  0  0  0  0  0  0  0
  154.2064  137.3427  190.1349 C   0  0  0  0  0  0  0  0  0  0  0  0
  153.2028  136.8452  191.0689 N   0  0  0  0  0  0  0  0  0  0  0  0
  153.2556  136.8938  192.4379 C   0  0  0  0  0  0  0  0  0  0  0  0
  152.1791  136.3538  192.9812 N   0  0  0  0  0  0  0  0  0  0  0  0
  151.3987  135.9402  191.9668 C   0  0  0  0  0  0  0  0  0  0  0  0
  150.2142  135.3367  191.9350 N   0  0  0  0  0  0  0  0  0  0  0  0
  149.5689  135.0279  193.2080 C   0  0  0  0  0  0  0  0  0  0  0  0
  149.5944  135.0037  190.7886 C   0  0  0  0  0  0  0  0  0  0  0  0
  148.4662  134.4298  190.8178 O   0  0  0  0  0  0  0  0  0  0  0  0
  150.1804  135.2840  189.6145 N   0  0  0  0  0  0  0  0  0  0  0  0
  151.3936  135.9017  189.6282 C   0  0  0  0  0  0  0  0  0  0  0  0
  151.8591  136.1212  188.4772 O   0  0  0  0  0  0  0  0  0  0  0  0
  152.0598  136.2582  190.7683 C   0  0  0  0  0  0  0  0  0  0  0  0
  149.5518  134.9448  188.3443 C   0  0  0  0  0  0  0  0  0  0  0  0
  148.7034  136.0588  187.8497 C   0  0  0  0  0  0  0  0  0  0  0  0
  148.8992  136.7982  186.7237 N   0  0  0  0  0  0  0  0  0  0  0  0
  147.9151  137.7125  186.6205 C   0  0  0  0  0  0  0  0  0  0  0  0
  147.7177  138.7336  185.5576 C   0  0  0  0  0  0  0  0  0  0  0  0
  147.1253  137.5159  187.6952 N   0  0  0  0  0  0  0  0  0  0  0  0
  147.6075  136.5380  188.4051 O   0  0  0  0  0  0  0  0  0  0  0  0
  155.0994  136.2971  189.6505 C   0  0  0  0  0  0  0  0  0  0  0  0
  155.5225  135.4281  190.5467 O   0  0  0  0  0  0  0  0  0  0  0  0
  155.5540  136.1122  188.3750 N   0  0  0  0  0  0  0  0  0  0  0  0
  156.2303  135.2745  188.2348 H   0  0  0  0  0  0  0  0  0  0  0  0
  155.2180  136.7881  187.1920 C   0  0  0  0  0  0  0  0  0  0  0  0
  155.8497  138.0192  186.8912 C   0  0  0  0  0  0  0  0  0  0  0  0
  155.5916  138.6656  185.7635 N   0  0  0  0  0  0  0  0  0  0  0  0
  154.7169  138.1814  184.8512 C   0  0  0  0  0  0  0  0  0  0  0  0
  154.0772  136.9847  185.1004 C   0  0  0  0  0  0  0  0  0  0  0  0
  154.3665  136.3674  186.2490 N   0  0  0  0  0  0  0  0  0  0  0  0
  153.1437  136.4190  184.1360 C   0  0  0  0  0  0  0  0  0  0  0  0
  153.5989  135.5659  183.1537 C   0  0  0  0  0  0  0  0  0  0  0  0
  152.7664  135.0244  182.2550 N   0  0  0  0  0  0  0  0  0  0  0  0
  151.4263  135.2776  182.2507 C   0  0  0  0  0  0  0  0  0  0  0  0
  150.9287  136.1258  183.2163 C   0  0  0  0  0  0  0  0  0  0  0  0
  149.4981  136.4411  183.2818 C   0  0  0  0  0  0  0  0  0  0  0  0
  151.8023  136.6948  184.1604 C   0  0  0  0  0  0  0  0  0  0  0  0
  150.5975  134.6424  181.2191 C   0  0  0  0  0  0  0  0  0  0  0  0
  149.9198  135.6593  180.5459 F   0  0  0  0  0  0  0  0  0  0  0  0
  149.6100  133.8632  181.8485 F   0  0  0  0  0  0  0  0  0  0  0  0
  151.2548  133.7909  180.3820 F   0  0  0  0  0  0  0  0  0  0  0  0
  1  2  1  0  0  0
  2 22  1  0  0  0
 22 23  2  0  0  0
 22 24  1  0  0  0
 24 26  1  0  0  0
 26 27  2  0  0  0
 27 28  1  0  0  0
 28 29  2  0  0  0
 29 30  1  0  0  0
 30 31  2  0  0  0
 30 32  1  0  0  0
 32 33  2  0  0  0
 33 34  1  0  0  0
 34 35  2  0  0  0
 35 36  1  0  0  0
 36 37  1  0  0  0
 36 38  2  0  0  0
 35 39  1  0  0  0
 39 40  1  0  0  0
 39 41  1  0  0  0
 39 42  1  0  0  0
  2  3  1  0  0  0
  3  4  1  0  0  0
  4  5  2  0  0  0
  5  6  1  0  0  0
  6  7  1  0  0  0
  7  8  1  0  0  0
  7  9  1  0  0  0
  9 10  2  0  0  0
  9 11  1  0  0  0
 11 15  1  0  0  0
 15 16  1  0  0  0
 16 17  2  0  0  0
 17 18  1  0  0  0
 18 19  1  0  0  0
 18 20  2  0  0  0
 20 21  1  0  0  0
 11 12  1  0  0  0
 12 13  2  0  0  0
 12 14  1  0  0  0
 31 26  1  0  0  0
 38 32  1  0  0  0
 14  3  1  0  0  0
 14  6  2  0  0  0
 21 16  1  0  0  0
 24 25  1  0  0  0
M  END
> <minimizedAffinity>
-6.07857

> <CNNscore>
0.3596337140

> <CNNaffinity>
6.5700249672

> <CNN_VS>
2.3628025055

> <CNNaffinity_variance>
0.1662300676

$$$$
[H]c1nc([H])c(N([H])C(=O)[C@@]([H])(n2c([H])nc3c2c(=O)n(C([H])([H])c2nc(C([H])([H])[H])no2)c(=O)n3C([H])([H])[H])C([H])([H])[H])nc1-c1c([H])nc(C(F)(F)F)c(C([H])([H])[H])c1[H]


 42 46  0  0  0  0  0  0  0  0999 V2000
  153.9280  139.5522  185.5471 C   0  0  0  0  0  0  0  0  0  0  0  0
  154.3494  139.4802  184.1261 C   0  0  0  0  0  0  0  0  0  0  0  0
  154.6648  140.7756  183.5348 N   0  0  0  0  0  0  0  0  0  0  0  0
  153.7739  141.7045  183.0629 C   0  0  0  0  0  0  0  0  0  0  0  0
  154.3946  142.7717  182.5923 N   0  0  0  0  0  0  0  0  0  0  0  0
  155.7126  142.5552  182.7506 C   0  0  0  0  0  0  0  0  0  0  0  0
  156.7833  143.2869  182.4566 N   0  0  0  0  0  0  0  0  0  0  0  0
  156.5713  144.5927  181.8383 C   0  0  0  0  0  0  0  0  0  0  0  0
  158.0398  142.8754  182.7040 C   0  0  0  0  0  0  0  0  0  0  0  0
  159.0230  143.6141  182.4028 O   0  0  0  0  0  0  0  0  0  0  0  0
  158.2434  141.6769  183.2720 N   0  0  0  0  0  0  0  0  0  0  0  0
  157.1584  140.9142  183.5798 C   0  0  0  0  0  0  0  0  0  0  0  0
  157.4545  139.8087  184.1086 O   0  0  0  0  0  0  0  0  0  0  0  0
  155.8646  141.2917  183.3465 C   0  0  0  0  0  0  0  0  0  0  0  0
  159.5839  141.1841  183.5612 C   0  0  0  0  0  0  0  0  0  0  0  0
  160.1048  141.7552  184.8292 C   0  0  0  0  0  0  0  0  0  0  0  0
  161.4050  142.0197  185.1337 N   0  0  0  0  0  0  0  0  0  0  0  0
  161.4705  142.5319  186.3781 C   0  0  0  0  0  0  0  0  0  0  0  0
  162.6773  142.9676  187.1298 C   0  0  0  0  0  0  0  0  0  0  0  0
  160.1972  142.5729  186.8192 N   0  0  0  0  0  0  0  0  0  0  0  0
  159.4099  142.1113  185.8919 O   0  0  0  0  0  0  0  0  0  0  0  0
  153.6085  138.6086  183.2224 C   0  0  0  0  0  0  0  0  0  0  0  0
  153.4116  139.0642  182.0013 O   0  0  0  0  0  0  0  0  0  0  0  0
  153.0893  137.3734  183.4922 N   0  0  0  0  0  0  0  0  0  0  0  0
  152.5543  136.9005  182.6745 H   0  0  0  0  0  0  0  0  0  0  0  0
  153.2098  136.5771  184.6413 C   0  0  0  0  0  0  0  0  0  0  0  0
  152.0409  136.1491  185.3164 C   0  0  0  0  0  0  0  0  0  0  0  0
  152.1118  135.3605  186.3790 N   0  0  0  0  0  0  0  0  0  0  0  0
  153.2988  134.9293  186.8659 C   0  0  0  0  0  0  0  0  0  0  0  0
  154.4651  135.3200  186.2410 C   0  0  0  0  0  0  0  0  0  0  0  0
  154.3473  136.1151  185.1743 N   0  0  0  0  0  0  0  0  0  0  0  0
  155.7619  134.8625  186.7210 C   0  0  0  0  0  0  0  0  0  0  0  0
  156.5270  135.6789  187.5260 C   0  0  0  0  0  0  0  0  0  0  0  0
  157.7212  135.2867  187.9886 N   0  0  0  0  0  0  0  0  0  0  0  0
  158.2556  134.0661  187.6977 C   0  0  0  0  0  0  0  0  0  0  0  0
  157.5234  133.2178  186.8954 C   0  0  0  0  0  0  0  0  0  0  0  0
  158.0271  131.8862  186.5442 C   0  0  0  0  0  0  0  0  0  0  0  0
  156.2692  133.6290  186.4093 C   0  0  0  0  0  0  0  0  0  0  0  0
  159.5755  133.7315  188.2459 C   0  0  0  0  0  0  0  0  0  0  0  0
  160.1579  134.9216  188.6831 F   0  0  0  0  0  0  0  0  0  0  0  0
  160.3912  133.2559  187.2034 F   0  0  0  0  0  0  0  0  0  0  0  0
  159.5850  132.7507  189.1924 F   0  0  0  0  0  0  0  0  0  0  0  0
  1  2  1  0  0  0
  2 22  1  0  0  0
 22 23  2  0  0  0
 22 24  1  0  0  0
 24 26  1  0  0  0
 26 27  2  0  0  0
 27 28  1  0  0  0
 28 29  2  0  0  0
 29 30  1  0  0  0
 30 31  2  0  0  0
 30 32  1  0  0  0
 32 33  2  0  0  0
 33 34  1  0  0  0
 34 35  2  0  0  0
 35 36  1  0  0  0
 36 37  1  0  0  0
 36 38  2  0  0  0
 35 39  1  0  0  0
 39 40  1  0  0  0
 39 41  1  0  0  0
 39 42  1  0  0  0
  2  3  1  0  0  0
  3  4  1  0  0  0
  4  5  2  0  0  0
  5  6  1  0  0  0
  6  7  1  0  0  0
  7  8  1  0  0  0
  7  9  1  0  0  0
  9 10  2  0  0  0
  9 11  1  0  0  0
 11 15  1  0  0  0
 15 16  1  0  0  0
 16 17  2  0  0  0
 17 18  1  0  0  0
 18 19  1  0  0  0
 18 20  2  0  0  0
 20 21  1  0  0  0
 11 12  1  0  0  0
 12 13  2  0  0  0
 12 14  1  0  0  0
 31 26  1  0  0  0
 38 32  1  0  0  0
 14  3  1  0  0  0
 14  6  2  0  0  0
 21 16  1  0  0  0
 24 25  1  0  0  0
M  END
> <minimizedAffinity>
-8.59460

> <CNNscore>
0.3564798236

> <CNNaffinity>
7.1213378906

> <CNN_VS>
2.5386133194

> <CNNaffinity_variance>
0.3815352321

$$$$
[H]c1nc([H])c(N([H])C(=O)[C@@]([H])(n2c([H])nc3c2c(=O)n(C([H])([H])c2nc(C([H])([H])[H])no2)c(=O)n3C([H])([H])[H])C([H])([H])[H])nc1-c1c([H])nc(C(F)(F)F)c(C([H])([H])[H])c1[H]


 42 46  0  0  0  0  0  0  0  0999 V2000
  154.4147  138.6605  189.5395 C   0  0  0  0  0  0  0  0  0  0  0  0
  153.7816  137.3557  189.2257 C   0  0  0  0  0  0  0  0  0  0  0  0
  152.9449  136.8295  190.2982 N   0  0  0  0  0  0  0  0  0  0  0  0
  153.2081  136.8687  191.6430 C   0  0  0  0  0  0  0  0  0  0  0  0
  152.2397  136.3016  192.3402 N   0  0  0  0  0  0  0  0  0  0  0  0
  151.3202  135.8791  191.4543 C   0  0  0  0  0  0  0  0  0  0  0  0
  150.1573  135.2505  191.5995 N   0  0  0  0  0  0  0  0  0  0  0  0
  149.7233  134.9182  192.9536 C   0  0  0  0  0  0  0  0  0  0  0  0
  149.3743  134.9131  190.5592 C   0  0  0  0  0  0  0  0  0  0  0  0
  148.2760  134.3148  190.7562 O   0  0  0  0  0  0  0  0  0  0  0  0
  149.7657  135.2148  189.3117 N   0  0  0  0  0  0  0  0  0  0  0  0
  150.9538  135.8584  189.1443 C   0  0  0  0  0  0  0  0  0  0  0  0
  151.2310  136.0967  187.9377 O   0  0  0  0  0  0  0  0  0  0  0  0
  151.7812  136.2204  190.1716 C   0  0  0  0  0  0  0  0  0  0  0  0
  148.9549  134.8719  188.1504 C   0  0  0  0  0  0  0  0  0  0  0  0
  149.5009  133.6846  187.4451 C   0  0  0  0  0  0  0  0  0  0  0  0
  149.6235  133.5174  186.0997 N   0  0  0  0  0  0  0  0  0  0  0  0
  150.1625  132.3074  185.8536 C   0  0  0  0  0  0  0  0  0  0  0  0
  150.4794  131.6936  184.5367 C   0  0  0  0  0  0  0  0  0  0  0  0
  150.3630  131.7484  187.0638 N   0  0  0  0  0  0  0  0  0  0  0  0
  149.9668  132.5760  187.9863 O   0  0  0  0  0  0  0  0  0  0  0  0
  154.5870  136.3278  188.5773 C   0  0  0  0  0  0  0  0  0  0  0  0
  154.7838  135.2199  189.2637 O   0  0  0  0  0  0  0  0  0  0  0  0
  155.1667  136.3778  187.3406 N   0  0  0  0  0  0  0  0  0  0  0  0
  155.7431  135.5027  187.0570 H   0  0  0  0  0  0  0  0  0  0  0  0
  155.0660  137.3538  186.3374 C   0  0  0  0  0  0  0  0  0  0  0  0
  156.0982  138.3125  186.1940 C   0  0  0  0  0  0  0  0  0  0  0  0
  156.0608  139.2226  185.2314 N   0  0  0  0  0  0  0  0  0  0  0  0
  155.0396  139.2775  184.3449 C   0  0  0  0  0  0  0  0  0  0  0  0
  154.0110  138.3636  184.4447 C   0  0  0  0  0  0  0  0  0  0  0  0
  154.0888  137.4647  185.4296 N   0  0  0  0  0  0  0  0  0  0  0  0
  152.9033  138.3757  183.4990 C   0  0  0  0  0  0  0  0  0  0  0  0
  151.8230  137.5414  183.6909 C   0  0  0  0  0  0  0  0  0  0  0  0
  150.7860  137.5317  182.8433 N   0  0  0  0  0  0  0  0  0  0  0  0
  150.7291  138.3377  181.7446 C   0  0  0  0  0  0  0  0  0  0  0  0
  151.7890  139.1881  181.5149 C   0  0  0  0  0  0  0  0  0  0  0  0
  151.7981  140.0905  180.3592 C   0  0  0  0  0  0  0  0  0  0  0  0
  152.8784  139.1989  182.4046 C   0  0  0  0  0  0  0  0  0  0  0  0
  149.5529  138.2478  180.8709 C   0  0  0  0  0  0  0  0  0  0  0  0
  148.7612  137.2019  181.3461 F   0  0  0  0  0  0  0  0  0  0  0  0
  149.9735  137.8674  179.5838 F   0  0  0  0  0  0  0  0  0  0  0  0
  148.8605  139.4092  180.6996 F   0  0  0  0  0  0  0  0  0  0  0  0
  1  2  1  0  0  0
  2 22  1  0  0  0
 22 23  2  0  0  0
 22 24  1  0  0  0
 24 26  1  0  0  0
 26 27  2  0  0  0
 27 28  1  0  0  0
 28 29  2  0  0  0
 29 30  1  0  0  0
 30 31  2  0  0  0
 30 32  1  0  0  0
 32 33  2  0  0  0
 33 34  1  0  0  0
 34 35  2  0  0  0
 35 36  1  0  0  0
 36 37  1  0  0  0
 36 38  2  0  0  0
 35 39  1  0  0  0
 39 40  1  0  0  0
 39 41  1  0  0  0
 39 42  1  0  0  0
  2  3  1  0  0  0
  3  4  1  0  0  0
  4  5  2  0  0  0
  5  6  1  0  0  0
  6  7  1  0  0  0
  7  8  1  0  0  0
  7  9  1  0  0  0
  9 10  2  0  0  0
  9 11  1  0  0  0
 11 15  1  0  0  0
 15 16  1  0  0  0
 16 17  2  0  0  0
 17 18  1  0  0  0
 18 19  1  0  0  0
 18 20  2  0  0  0
 20 21  1  0  0  0
 11 12  1  0  0  0
 12 13  2  0  0  0
 12 14  1  0  0  0
 31 26  1  0  0  0
 38 32  1  0  0  0
 14  3  1  0  0  0
 14  6  2  0  0  0
 21 16  1  0  0  0
 24 25  1  0  0  0
M  END
> <minimizedAffinity>
-6.24527

> <CNNscore>
0.3398776054

> <CNNaffinity>
6.5013780594

> <CNN_VS>
2.2096726894

> <CNNaffinity_variance>
0.2000925988

$$$$
[H]c1nc([H])c(N([H])C(=O)[C@@]([H])(n2c([H])nc3c2c(=O)n(C([H])([H])c2nc(C([H])([H])[H])no2)c(=O)n3C([H])([H])[H])C([H])([H])[H])nc1-c1c([H])nc(C(F)(F)F)c(C([H])([H])[H])c1[H]


 42 46  0  0  0  0  0  0  0  0999 V2000
  152.8613  138.8823  186.9969 C   0  0  0  0  0  0  0  0  0  0  0  0
  153.6208  137.8701  186.2219 C   0  0  0  0  0  0  0  0  0  0  0  0
  153.3260  136.4921  186.5976 N   0  0  0  0  0  0  0  0  0  0  0  0
  152.9464  136.0387  187.8344 C   0  0  0  0  0  0  0  0  0  0  0  0
  152.7571  134.7310  187.8310 N   0  0  0  0  0  0  0  0  0  0  0  0
  153.0123  134.3055  186.5809 C   0  0  0  0  0  0  0  0  0  0  0  0
  152.9790  133.1005  186.0194 N   0  0  0  0  0  0  0  0  0  0  0  0
  152.6017  131.9653  186.8568 C   0  0  0  0  0  0  0  0  0  0  0  0
  153.2758  132.8894  184.7245 C   0  0  0  0  0  0  0  0  0  0  0  0
  153.2276  131.7197  184.2424 O   0  0  0  0  0  0  0  0  0  0  0  0
  153.6234  133.9271  183.9481 N   0  0  0  0  0  0  0  0  0  0  0  0
  153.6629  135.1682  184.5065 C   0  0  0  0  0  0  0  0  0  0  0  0
  153.9996  136.0736  183.6962 O   0  0  0  0  0  0  0  0  0  0  0  0
  153.3694  135.4293  185.8166 C   0  0  0  0  0  0  0  0  0  0  0  0
  153.9543  133.7529  182.5396 C   0  0  0  0  0  0  0  0  0  0  0  0
  155.3240  133.2038  182.3729 C   0  0  0  0  0  0  0  0  0  0  0  0
  155.9802  132.9850  181.2005 N   0  0  0  0  0  0  0  0  0  0  0  0
  157.2002  132.4791  181.4664 C   0  0  0  0  0  0  0  0  0  0  0  0
  158.2622  132.0870  180.5022 C   0  0  0  0  0  0  0  0  0  0  0  0
  157.2715  132.3956  182.8101 N   0  0  0  0  0  0  0  0  0  0  0  0
  156.1567  132.8273  183.3236 O   0  0  0  0  0  0  0  0  0  0  0  0
  155.0391  138.1008  185.9756 C   0  0  0  0  0  0  0  0  0  0  0  0
  155.8812  137.4133  186.7209 O   0  0  0  0  0  0  0  0  0  0  0  0
  155.6010  138.9498  185.0638 N   0  0  0  0  0  0  0  0  0  0  0  0
  156.6862  138.9807  185.0581 H   0  0  0  0  0  0  0  0  0  0  0  0
  154.9952  139.7326  184.0692 C   0  0  0  0  0  0  0  0  0  0  0  0
  155.5503  140.9937  183.7427 C   0  0  0  0  0  0  0  0  0  0  0  0
  155.0331  141.7428  182.7795 N   0  0  0  0  0  0  0  0  0  0  0  0
  153.9560  141.3391  182.0664 C   0  0  0  0  0  0  0  0  0  0  0  0
  153.3808  140.1172  182.3484 C   0  0  0  0  0  0  0  0  0  0  0  0
  153.9337  139.3955  183.3269 N   0  0  0  0  0  0  0  0  0  0  0  0
  152.2329  139.6368  181.5916 C   0  0  0  0  0  0  0  0  0  0  0  0
  152.1024  139.9581  180.2576 C   0  0  0  0  0  0  0  0  0  0  0  0
  151.0620  139.5281  179.5318 N   0  0  0  0  0  0  0  0  0  0  0  0
  150.0717  138.7518  180.0577 C   0  0  0  0  0  0  0  0  0  0  0  0
  150.1630  138.4068  181.3889 C   0  0  0  0  0  0  0  0  0  0  0  0
  149.1416  137.5686  182.0249 C   0  0  0  0  0  0  0  0  0  0  0  0
  151.2552  138.8579  182.1517 C   0  0  0  0  0  0  0  0  0  0  0  0
  148.9682  138.3375  179.1828 C   0  0  0  0  0  0  0  0  0  0  0  0
  149.2020  138.8964  177.9260 F   0  0  0  0  0  0  0  0  0  0  0  0
  147.7759  138.9163  179.6535 F   0  0  0  0  0  0  0  0  0  0  0  0
  148.7290  136.9964  179.1370 F   0  0  0  0  0  0  0  0  0  0  0  0
  1  2  1  0  0  0
  2 22  1  0  0  0
 22 23  2  0  0  0
 22 24  1  0  0  0
 24 26  1  0  0  0
 26 27  2  0  0  0
 27 28  1  0  0  0
 28 29  2  0  0  0
 29 30  1  0  0  0
 30 31  2  0  0  0
 30 32  1  0  0  0
 32 33  2  0  0  0
 33 34  1  0  0  0
 34 35  2  0  0  0
 35 36  1  0  0  0
 36 37  1  0  0  0
 36 38  2  0  0  0
 35 39  1  0  0  0
 39 40  1  0  0  0
 39 41  1  0  0  0
 39 42  1  0  0  0
  2  3  1  0  0  0
  3  4  1  0  0  0
  4  5  2  0  0  0
  5  6  1  0  0  0
  6  7  1  0  0  0
  7  8  1  0  0  0
  7  9  1  0  0  0
  9 10  2  0  0  0
  9 11  1  0  0  0
 11 15  1  0  0  0
 15 16  1  0  0  0
 16 17  2  0  0  0
 17 18  1  0  0  0
 18 19  1  0  0  0
 18 20  2  0  0  0
 20 21  1  0  0  0
 11 12  1  0  0  0
 12 13  2  0  0  0
 12 14  1  0  0  0
 31 26  1  0  0  0
 38 32  1  0  0  0
 14  3  1  0  0  0
 14  6  2  0  0  0
 21 16  1  0  0  0
 24 25  1  0  0  0
M  END
> <minimizedAffinity>
-7.12964

> <CNNscore>
0.3116065264

> <CNNaffinity>
6.4036393166

> <CNN_VS>
1.9954158068

> <CNNaffinity_variance>
0.5139400363

$$$$
[H]c1nc(C([H])([H])[H])c(C(F)(F)F)c([H])c1-c1nc(N([H])C(=O)C([H])([H])n2c([H])nc3c2c(=O)n(C([H])([H])c2noc(C([H])([H])[H])n2)c(=O)n3C([H])([H])[H])c([H])c([H])c1[H]


 41 45  0  0  0  0  0  0  0  0999 V2000
  155.0472  138.4309  185.9534 C   0  0  0  0  0  0  0  0  0  0  0  0
  153.9070  138.8170  186.2334 O   0  0  0  0  0  0  0  0  0  0  0  0
  155.9644  137.9961  186.9147 N   0  0  0  0  0  0  0  0  0  0  0  0
  156.9324  137.6883  186.5379 H   0  0  0  0  0  0  0  0  0  0  0  0
  155.8052  137.8719  188.3108 C   0  0  0  0  0  0  0  0  0  0  0  0
  156.7443  138.2251  189.2453 C   0  0  0  0  0  0  0  0  0  0  0  0
  156.5372  138.0672  190.6248 C   0  0  0  0  0  0  0  0  0  0  0  0
  155.3297  137.5324  191.0098 C   0  0  0  0  0  0  0  0  0  0  0  0
  154.3698  137.1680  190.0966 C   0  0  0  0  0  0  0  0  0  0  0  0
  154.6493  137.3524  188.8161 N   0  0  0  0  0  0  0  0  0  0  0  0
  153.0763  136.5753  190.4479 C   0  0  0  0  0  0  0  0  0  0  0  0
  152.1846  136.1910  189.4625 C   0  0  0  0  0  0  0  0  0  0  0  0
  150.9934  135.6420  189.7525 N   0  0  0  0  0  0  0  0  0  0  0  0
  150.5704  135.4212  191.0115 C   0  0  0  0  0  0  0  0  0  0  0  0
  149.2382  134.8051  191.2638 C   0  0  0  0  0  0  0  0  0  0  0  0
  151.4269  135.7893  192.0258 C   0  0  0  0  0  0  0  0  0  0  0  0
  152.6737  136.3637  191.7430 C   0  0  0  0  0  0  0  0  0  0  0  0
  151.0139  135.5696  193.4212 C   0  0  0  0  0  0  0  0  0  0  0  0
  151.9728  136.1329  194.2628 F   0  0  0  0  0  0  0  0  0  0  0  0
  150.9839  134.2263  193.7656 F   0  0  0  0  0  0  0  0  0  0  0  0
  149.8124  136.1919  193.7133 F   0  0  0  0  0  0  0  0  0  0  0  0
  155.4020  138.4542  184.4881 C   0  0  0  0  0  0  0  0  0  0  0  0
  158.4880  141.5606  183.2896 N   0  0  0  0  0  0  0  0  0  0  0  0
  157.9305  142.6968  182.8472 C   0  0  0  0  0  0  0  0  0  0  0  0
  158.6660  143.6549  182.4761 O   0  0  0  0  0  0  0  0  0  0  0  0
  156.5876  142.8415  182.7885 N   0  0  0  0  0  0  0  0  0  0  0  0
  156.0564  144.0933  182.3004 C   0  0  0  0  0  0  0  0  0  0  0  0
  155.7921  141.8342  183.1787 C   0  0  0  0  0  0  0  0  0  0  0  0
  154.4497  141.6803  183.2452 N   0  0  0  0  0  0  0  0  0  0  0  0
  154.1708  140.4655  183.7218 C   0  0  0  0  0  0  0  0  0  0  0  0
  155.3327  139.7964  183.9780 N   0  0  0  0  0  0  0  0  0  0  0  0
  156.3145  140.6346  183.6456 C   0  0  0  0  0  0  0  0  0  0  0  0
  157.6969  140.5560  183.6785 C   0  0  0  0  0  0  0  0  0  0  0  0
  158.2228  139.5135  184.0856 O   0  0  0  0  0  0  0  0  0  0  0  0
  159.9432  141.4359  183.3550 C   0  0  0  0  0  0  0  0  0  0  0  0
  162.8352  142.9419  187.1754 C   0  0  0  0  0  0  0  0  0  0  0  0
  161.6627  142.5667  186.3522 C   0  0  0  0  0  0  0  0  0  0  0  0
  161.6778  142.1588  185.0740 N   0  0  0  0  0  0  0  0  0  0  0  0
  160.3891  141.9106  184.6832 C   0  0  0  0  0  0  0  0  0  0  0  0
  159.6393  142.1825  185.7541 N   0  0  0  0  0  0  0  0  0  0  0  0
  160.4210  142.5700  186.7317 O   0  0  0  0  0  0  0  0  0  0  0  0
 36 37  1  0  0  0
 37 38  2  0  0  0
 38 39  1  0  0  0
 39 35  1  0  0  0
 35 23  1  0  0  0
 23 24  1  0  0  0
 24 25  2  0  0  0
 24 26  1  0  0  0
 26 27  1  0  0  0
 26 28  1  0  0  0
 28 29  1  0  0  0
 29 30  2  0  0  0
 30 31  1  0  0  0
 31 22  1  0  0  0
 22  1  1  0  0  0
  1  2  2  0  0  0
  1  3  1  0  0  0
  3  5  1  0  0  0
  5  6  2  0  0  0
  6  7  1  0  0  0
  7  8  2  0  0  0
  8  9  1  0  0  0
  9 10  2  0  0  0
  9 11  1  0  0  0
 11 12  2  0  0  0
 12 13  1  0  0  0
 13 14  2  0  0  0
 14 15  1  0  0  0
 14 16  1  0  0  0
 16 17  2  0  0  0
 16 18  1  0  0  0
 18 19  1  0  0  0
 18 20  1  0  0  0
 18 21  1  0  0  0
 31 32  1  0  0  0
 32 33  1  0  0  0
 33 34  2  0  0  0
 39 40  2  0  0  0
 40 41  1  0  0  0
 41 37  1  0  0  0
 33 23  1  0  0  0
 32 28  2  0  0  0
 10  5  1  0  0  0
 17 11  1  0  0  0
  3  4  1  0  0  0
M  END
> <minimizedAffinity>
-9.96486

> <CNNscore>
0.6144110560

> <CNNaffinity>
7.0102987289

> <CNN_VS>
4.3072052002

> <CNNaffinity_variance>
0.2120558023

$$$$
[H]c1nc(C([H])([H])[H])c(C(F)(F)F)c([H])c1-c1nc(N([H])C(=O)C([H])([H])n2c([H])nc3c2c(=O)n(C([H])([H])c2noc(C([H])([H])[H])n2)c(=O)n3C([H])([H])[H])c([H])c([H])c1[H]


 41 45  0  0  0  0  0  0  0  0999 V2000
  154.2028  138.4926  185.0689 C   0  0  0  0  0  0  0  0  0  0  0  0
  153.1274  138.8621  185.5535 O   0  0  0  0  0  0  0  0  0  0  0  0
  155.2589  137.9984  185.8403 N   0  0  0  0  0  0  0  0  0  0  0  0
  156.1494  137.7133  185.2932 H   0  0  0  0  0  0  0  0  0  0  0  0
  155.3269  137.7888  187.2336 C   0  0  0  0  0  0  0  0  0  0  0  0
  154.6902  138.5530  188.1772 C   0  0  0  0  0  0  0  0  0  0  0  0
  154.8038  138.3064  189.5546 C   0  0  0  0  0  0  0  0  0  0  0  0
  155.5962  137.2457  189.9277 C   0  0  0  0  0  0  0  0  0  0  0  0
  156.2475  136.4628  189.0054 C   0  0  0  0  0  0  0  0  0  0  0  0
  156.0838  136.7668  187.7277 N   0  0  0  0  0  0  0  0  0  0  0  0
  157.1195  135.3351  189.3458 C   0  0  0  0  0  0  0  0  0  0  0  0
  157.1051  134.7900  190.6173 C   0  0  0  0  0  0  0  0  0  0  0  0
  157.8896  133.7544  190.9588 N   0  0  0  0  0  0  0  0  0  0  0  0
  158.7465  133.1654  190.1036 C   0  0  0  0  0  0  0  0  0  0  0  0
  159.5862  132.0177  190.5460 C   0  0  0  0  0  0  0  0  0  0  0  0
  158.7945  133.6764  188.8250 C   0  0  0  0  0  0  0  0  0  0  0  0
  157.9838  134.7565  188.4501 C   0  0  0  0  0  0  0  0  0  0  0  0
  159.7141  133.0690  187.8496 C   0  0  0  0  0  0  0  0  0  0  0  0
  158.9732  132.6344  186.7509 F   0  0  0  0  0  0  0  0  0  0  0  0
  160.3321  131.9264  188.3358 F   0  0  0  0  0  0  0  0  0  0  0  0
  160.6411  133.9787  187.3706 F   0  0  0  0  0  0  0  0  0  0  0  0
  154.3154  138.6056  183.5696 C   0  0  0  0  0  0  0  0  0  0  0  0
  157.9934  141.2450  183.2310 N   0  0  0  0  0  0  0  0  0  0  0  0
  157.7017  142.4838  182.8095 C   0  0  0  0  0  0  0  0  0  0  0  0
  158.6263  143.3331  182.6660 O   0  0  0  0  0  0  0  0  0  0  0  0
  156.4296  142.8478  182.5319 N   0  0  0  0  0  0  0  0  0  0  0  0
  156.1888  144.1992  182.0813 C   0  0  0  0  0  0  0  0  0  0  0  0
  155.4359  141.9586  182.6790 C   0  0  0  0  0  0  0  0  0  0  0  0
  154.0970  142.0200  182.4955 N   0  0  0  0  0  0  0  0  0  0  0  0
  153.5584  140.8370  182.7973 C   0  0  0  0  0  0  0  0  0  0  0  0
  154.5408  139.9727  183.1866 N   0  0  0  0  0  0  0  0  0  0  0  0
  155.6797  140.6614  183.1124 C   0  0  0  0  0  0  0  0  0  0  0  0
  157.0048  140.3579  183.3779 C   0  0  0  0  0  0  0  0  0  0  0  0
  157.2862  139.2188  183.7683 O   0  0  0  0  0  0  0  0  0  0  0  0
  159.3763  140.8821  183.5367 C   0  0  0  0  0  0  0  0  0  0  0  0
  161.9266  143.4056  187.0517 C   0  0  0  0  0  0  0  0  0  0  0  0
  160.8777  142.6333  186.3470 C   0  0  0  0  0  0  0  0  0  0  0  0
  160.9160  142.2029  185.0767 N   0  0  0  0  0  0  0  0  0  0  0  0
  159.7534  141.5293  184.8123 C   0  0  0  0  0  0  0  0  0  0  0  0
  159.0520  141.5815  185.9474 N   0  0  0  0  0  0  0  0  0  0  0  0
  159.7430  142.2429  186.8428 O   0  0  0  0  0  0  0  0  0  0  0  0
 36 37  1  0  0  0
 37 38  2  0  0  0
 38 39  1  0  0  0
 39 35  1  0  0  0
 35 23  1  0  0  0
 23 24  1  0  0  0
 24 25  2  0  0  0
 24 26  1  0  0  0
 26 27  1  0  0  0
 26 28  1  0  0  0
 28 29  1  0  0  0
 29 30  2  0  0  0
 30 31  1  0  0  0
 31 22  1  0  0  0
 22  1  1  0  0  0
  1  2  2  0  0  0
  1  3  1  0  0  0
  3  5  1  0  0  0
  5  6  2  0  0  0
  6  7  1  0  0  0
  7  8  2  0  0  0
  8  9  1  0  0  0
  9 10  2  0  0  0
  9 11  1  0  0  0
 11 12  2  0  0  0
 12 13  1  0  0  0
 13 14  2  0  0  0
 14 15  1  0  0  0
 14 16  1  0  0  0
 16 17  2  0  0  0
 16 18  1  0  0  0
 18 19  1  0  0  0
 18 20  1  0  0  0
 18 21  1  0  0  0
 31 32  1  0  0  0
 32 33  1  0  0  0
 33 34  2  0  0  0
 39 40  2  0  0  0
 40 41  1  0  0  0
 41 37  1  0  0  0
 33 23  1  0  0  0
 32 28  2  0  0  0
 10  5  1  0  0  0
 17 11  1  0  0  0
  3  4  1  0  0  0
M  END
> <minimizedAffinity>
-9.78198

> <CNNscore>
0.4990115464

> <CNNaffinity>
7.1402559280

> <CNN_VS>
3.5630700588

> <CNNaffinity_variance>
0.3070047498

$$$$
[H]c1nc(C([H])([H])[H])c(C(F)(F)F)c([H])c1-c1nc(N([H])C(=O)C([H])([H])n2c([H])nc3c2c(=O)n(C([H])([H])c2noc(C([H])([H])[H])n2)c(=O)n3C([H])([H])[H])c([H])c([H])c1[H]


 41 45  0  0  0  0  0  0  0  0999 V2000
  155.2793  138.4715  185.7129 C   0  0  0  0  0  0  0  0  0  0  0  0
  156.4129  138.7782  186.0983 O   0  0  0  0  0  0  0  0  0  0  0  0
  154.2598  138.0690  186.5809 N   0  0  0  0  0  0  0  0  0  0  0  0
  153.3134  137.8226  186.1147 H   0  0  0  0  0  0  0  0  0  0  0  0
  154.2733  137.9619  187.9873 C   0  0  0  0  0  0  0  0  0  0  0  0
  155.2342  138.4929  188.8086 C   0  0  0  0  0  0  0  0  0  0  0  0
  155.2047  138.3442  190.2043 C   0  0  0  0  0  0  0  0  0  0  0  0
  154.1517  137.6291  190.7260 C   0  0  0  0  0  0  0  0  0  0  0  0
  153.1745  137.0844  189.9283 C   0  0  0  0  0  0  0  0  0  0  0  0
  153.2811  137.2741  188.6228 N   0  0  0  0  0  0  0  0  0  0  0  0
  152.0433  136.2970  190.4267 C   0  0  0  0  0  0  0  0  0  0  0  0
  151.5566  136.4921  191.7070 C   0  0  0  0  0  0  0  0  0  0  0  0
  150.5195  135.7889  192.1911 N   0  0  0  0  0  0  0  0  0  0  0  0
  149.8725  134.8459  191.4807 C   0  0  0  0  0  0  0  0  0  0  0  0
  148.7266  134.1044  192.0766 C   0  0  0  0  0  0  0  0  0  0  0  0
  150.3240  134.6177  190.1992 C   0  0  0  0  0  0  0  0  0  0  0  0
  151.4047  135.3411  189.6767 C   0  0  0  0  0  0  0  0  0  0  0  0
  149.6518  133.5974  189.3787 C   0  0  0  0  0  0  0  0  0  0  0  0
  149.8450  132.3507  189.9733 F   0  0  0  0  0  0  0  0  0  0  0  0
  150.2064  133.4772  188.1131 F   0  0  0  0  0  0  0  0  0  0  0  0
  148.2840  133.7998  189.3128 F   0  0  0  0  0  0  0  0  0  0  0  0
  155.0511  138.5575  184.2249 C   0  0  0  0  0  0  0  0  0  0  0  0
  158.3169  141.3418  182.7447 N   0  0  0  0  0  0  0  0  0  0  0  0
  157.8540  142.5622  182.4386 C   0  0  0  0  0  0  0  0  0  0  0  0
  158.6486  143.4470  182.0114 O   0  0  0  0  0  0  0  0  0  0  0  0
  156.5450  142.8701  182.5779 N   0  0  0  0  0  0  0  0  0  0  0  0
  156.1164  144.2048  182.2283 C   0  0  0  0  0  0  0  0  0  0  0  0
  155.6878  141.9426  183.0304 C   0  0  0  0  0  0  0  0  0  0  0  0
  154.3581  141.9465  183.2796 N   0  0  0  0  0  0  0  0  0  0  0  0
  153.9938  140.7462  183.7346 C   0  0  0  0  0  0  0  0  0  0  0  0
  155.0850  139.9279  183.7922 N   0  0  0  0  0  0  0  0  0  0  0  0
  156.1115  140.6620  183.3627 C   0  0  0  0  0  0  0  0  0  0  0  0
  157.4643  140.4166  183.1953 C   0  0  0  0  0  0  0  0  0  0  0  0
  157.9033  139.2949  183.4753 O   0  0  0  0  0  0  0  0  0  0  0  0
  159.7398  141.0399  182.5970 C   0  0  0  0  0  0  0  0  0  0  0  0
  160.6986  143.0094  187.1169 C   0  0  0  0  0  0  0  0  0  0  0  0
  160.8615  142.4313  185.7632 C   0  0  0  0  0  0  0  0  0  0  0  0
  159.8808  142.0433  184.9337 N   0  0  0  0  0  0  0  0  0  0  0  0
  160.4500  141.5659  183.7833 C   0  0  0  0  0  0  0  0  0  0  0  0
  161.7670  141.6861  183.9676 N   0  0  0  0  0  0  0  0  0  0  0  0
  161.9840  142.2031  185.1519 O   0  0  0  0  0  0  0  0  0  0  0  0
 36 37  1  0  0  0
 37 38  2  0  0  0
 38 39  1  0  0  0
 39 35  1  0  0  0
 35 23  1  0  0  0
 23 24  1  0  0  0
 24 25  2  0  0  0
 24 26  1  0  0  0
 26 27  1  0  0  0
 26 28  1  0  0  0
 28 29  1  0  0  0
 29 30  2  0  0  0
 30 31  1  0  0  0
 31 22  1  0  0  0
 22  1  1  0  0  0
  1  2  2  0  0  0
  1  3  1  0  0  0
  3  5  1  0  0  0
  5  6  2  0  0  0
  6  7  1  0  0  0
  7  8  2  0  0  0
  8  9  1  0  0  0
  9 10  2  0  0  0
  9 11  1  0  0  0
 11 12  2  0  0  0
 12 13  1  0  0  0
 13 14  2  0  0  0
 14 15  1  0  0  0
 14 16  1  0  0  0
 16 17  2  0  0  0
 16 18  1  0  0  0
 18 19  1  0  0  0
 18 20  1  0  0  0
 18 21  1  0  0  0
 31 32  1  0  0  0
 32 33  1  0  0  0
 33 34  2  0  0  0
 39 40  2  0  0  0
 40 41  1  0  0  0
 41 37  1  0  0  0
 33 23  1  0  0  0
 32 28  2  0  0  0
 10  5  1  0  0  0
 17 11  1  0  0  0
  3  4  1  0  0  0
M  END
> <minimizedAffinity>
-8.65460

> <CNNscore>
0.4536710978

> <CNNaffinity>
6.7946105003

> <CNN_VS>
3.0825183392

> <CNNaffinity_variance>
0.1340498179

$$$$
[H]c1nc(C([H])([H])[H])c(C(F)(F)F)c([H])c1-c1nc(N([H])C(=O)C([H])([H])n2c([H])nc3c2c(=O)n(C([H])([H])c2noc(C([H])([H])[H])n2)c(=O)n3C([H])([H])[H])c([H])c([H])c1[H]


 41 45  0  0  0  0  0  0  0  0999 V2000
  151.7072  135.0615  185.4921 C   0  0  0  0  0  0  0  0  0  0  0  0
  151.5014  133.8470  185.5943 O   0  0  0  0  0  0  0  0  0  0  0  0
  150.9500  136.0243  186.1661 N   0  0  0  0  0  0  0  0  0  0  0  0
  151.2301  137.0553  185.9862 H   0  0  0  0  0  0  0  0  0  0  0  0
  149.8847  135.8493  187.0740 C   0  0  0  0  0  0  0  0  0  0  0  0
  148.5588  135.7886  186.7304 C   0  0  0  0  0  0  0  0  0  0  0  0
  147.5369  135.6259  187.6791 C   0  0  0  0  0  0  0  0  0  0  0  0
  147.9268  135.5284  188.9947 C   0  0  0  0  0  0  0  0  0  0  0  0
  149.2473  135.5868  189.3696 C   0  0  0  0  0  0  0  0  0  0  0  0
  150.1446  135.7413  188.4090 N   0  0  0  0  0  0  0  0  0  0  0  0
  149.7182  135.5095  190.7553 C   0  0  0  0  0  0  0  0  0  0  0  0
  149.0471  134.7380  191.6872 C   0  0  0  0  0  0  0  0  0  0  0  0
  149.4558  134.6441  192.9634 N   0  0  0  0  0  0  0  0  0  0  0  0
  150.5403  135.2847  193.4391 C   0  0  0  0  0  0  0  0  0  0  0  0
  150.9410  135.1348  194.8656 C   0  0  0  0  0  0  0  0  0  0  0  0
  151.2397  136.0657  192.5452 C   0  0  0  0  0  0  0  0  0  0  0  0
  150.8286  136.1761  191.2098 C   0  0  0  0  0  0  0  0  0  0  0  0
  152.4338  136.7876  193.0131 C   0  0  0  0  0  0  0  0  0  0  0  0
  153.0443  137.3952  191.9162 F   0  0  0  0  0  0  0  0  0  0  0  0
  153.4012  135.9413  193.5345 F   0  0  0  0  0  0  0  0  0  0  0  0
  152.1159  137.7990  193.9031 F   0  0  0  0  0  0  0  0  0  0  0  0
  152.8434  135.4559  184.5827 C   0  0  0  0  0  0  0  0  0  0  0  0
  153.7902  139.6861  183.2345 N   0  0  0  0  0  0  0  0  0  0  0  0
  153.0787  140.0560  182.1600 C   0  0  0  0  0  0  0  0  0  0  0  0
  153.2355  141.2096  181.6689 O   0  0  0  0  0  0  0  0  0  0  0  0
  152.1897  139.2150  181.5853 N   0  0  0  0  0  0  0  0  0  0  0  0
  151.4583  139.6802  180.4295 C   0  0  0  0  0  0  0  0  0  0  0  0
  152.0108  137.9866  182.0941 C   0  0  0  0  0  0  0  0  0  0  0  0
  151.2121  136.9475  181.7591 N   0  0  0  0  0  0  0  0  0  0  0  0
  151.4207  135.9417  182.6109 C   0  0  0  0  0  0  0  0  0  0  0  0
  152.3663  136.3054  183.5258 N   0  0  0  0  0  0  0  0  0  0  0  0
  152.7205  137.5500  183.2057 C   0  0  0  0  0  0  0  0  0  0  0  0
  153.6133  138.4628  183.7425 C   0  0  0  0  0  0  0  0  0  0  0  0
  154.2746  138.1335  184.7342 O   0  0  0  0  0  0  0  0  0  0  0  0
  154.7352  140.6204  183.8440 C   0  0  0  0  0  0  0  0  0  0  0  0
  158.5546  141.0731  180.6137 C   0  0  0  0  0  0  0  0  0  0  0  0
  157.7130  140.6547  181.7582 C   0  0  0  0  0  0  0  0  0  0  0  0
  156.4719  141.0807  182.0388 N   0  0  0  0  0  0  0  0  0  0  0  0
  156.0458  140.4529  183.1788 C   0  0  0  0  0  0  0  0  0  0  0  0
  157.0594  139.6643  183.5447 N   0  0  0  0  0  0  0  0  0  0  0  0
  158.0371  139.8034  182.6834 O   0  0  0  0  0  0  0  0  0  0  0  0
 36 37  1  0  0  0
 37 38  2  0  0  0
 38 39  1  0  0  0
 39 35  1  0  0  0
 35 23  1  0  0  0
 23 24  1  0  0  0
 24 25  2  0  0  0
 24 26  1  0  0  0
 26 27  1  0  0  0
 26 28  1  0  0  0
 28 29  1  0  0  0
 29 30  2  0  0  0
 30 31  1  0  0  0
 31 22  1  0  0  0
 22  1  1  0  0  0
  1  2  2  0  0  0
  1  3  1  0  0  0
  3  5  1  0  0  0
  5  6  2  0  0  0
  6  7  1  0  0  0
  7  8  2  0  0  0
  8  9  1  0  0  0
  9 10  2  0  0  0
  9 11  1  0  0  0
 11 12  2  0  0  0
 12 13  1  0  0  0
 13 14  2  0  0  0
 14 15  1  0  0  0
 14 16  1  0  0  0
 16 17  2  0  0  0
 16 18  1  0  0  0
 18 19  1  0  0  0
 18 20  1  0  0  0
 18 21  1  0  0  0
 31 32  1  0  0  0
 32 33  1  0  0  0
 33 34  2  0  0  0
 39 40  2  0  0  0
 40 41  1  0  0  0
 41 37  1  0  0  0
 33 23  1  0  0  0
 32 28  2  0  0  0
 10  5  1  0  0  0
 17 11  1  0  0  0
  3  4  1  0  0  0
M  END
> <minimizedAffinity>
-7.81956

> <CNNscore>
0.4298684001

> <CNNaffinity>
6.3175907135

> <CNN_VS>
2.7157325745

> <CNNaffinity_variance>
0.1586174369

$$$$
[H]c1nc(C([H])([H])[H])c(C(F)(F)F)c([H])c1-c1nc(N([H])C(=O)C([H])([H])n2c([H])nc3c2c(=O)n(C([H])([H])c2noc(C([H])([H])[H])n2)c(=O)n3C([H])([H])[H])c([H])c([H])c1[H]


 41 45  0  0  0  0  0  0  0  0999 V2000
  154.9632  137.7514  187.4363 C   0  0  0  0  0  0  0  0  0  0  0  0
  153.7985  138.1457  187.5615 O   0  0  0  0  0  0  0  0  0  0  0  0
  155.7532  138.0436  186.3204 N   0  0  0  0  0  0  0  0  0  0  0  0
  156.7558  137.6333  186.3319 H   0  0  0  0  0  0  0  0  0  0  0  0
  155.4447  138.8226  185.1857 C   0  0  0  0  0  0  0  0  0  0  0  0
  156.1289  139.9427  184.7893 C   0  0  0  0  0  0  0  0  0  0  0  0
  155.7691  140.6889  183.6559 C   0  0  0  0  0  0  0  0  0  0  0  0
  154.6796  140.2428  182.9444 C   0  0  0  0  0  0  0  0  0  0  0  0
  153.9736  139.1247  183.3176 C   0  0  0  0  0  0  0  0  0  0  0  0
  154.3831  138.4815  184.3994 N   0  0  0  0  0  0  0  0  0  0  0  0
  152.7947  138.6164  182.6106 C   0  0  0  0  0  0  0  0  0  0  0  0
  152.3425  137.3271  182.8277 C   0  0  0  0  0  0  0  0  0  0  0  0
  151.2634  136.8338  182.1979 N   0  0  0  0  0  0  0  0  0  0  0  0
  150.5384  137.5429  181.3124 C   0  0  0  0  0  0  0  0  0  0  0  0
  149.3497  136.9364  180.6512 C   0  0  0  0  0  0  0  0  0  0  0  0
  150.9532  138.8332  181.0648 C   0  0  0  0  0  0  0  0  0  0  0  0
  152.0766  139.3654  181.7121 C   0  0  0  0  0  0  0  0  0  0  0  0
  150.1956  139.6527  180.1053 C   0  0  0  0  0  0  0  0  0  0  0  0
  148.9472  139.9417  180.6559 F   0  0  0  0  0  0  0  0  0  0  0  0
  149.9163  138.9765  178.9270 F   0  0  0  0  0  0  0  0  0  0  0  0
  150.8121  140.8668  179.8561 F   0  0  0  0  0  0  0  0  0  0  0  0
  155.4966  136.9216  188.5766 C   0  0  0  0  0  0  0  0  0  0  0  0
  151.8563  135.2898  190.7432 N   0  0  0  0  0  0  0  0  0  0  0  0
  151.6062  135.9371  191.8904 C   0  0  0  0  0  0  0  0  0  0  0  0
  150.6225  135.5930  192.6048 O   0  0  0  0  0  0  0  0  0  0  0  0
  152.3898  136.9585  192.3034 N   0  0  0  0  0  0  0  0  0  0  0  0
  152.0615  137.6101  193.5504 C   0  0  0  0  0  0  0  0  0  0  0  0
  153.4383  137.3368  191.5568 C   0  0  0  0  0  0  0  0  0  0  0  0
  154.3779  138.3006  191.6920 N   0  0  0  0  0  0  0  0  0  0  0  0
  155.2043  138.2571  190.6452 C   0  0  0  0  0  0  0  0  0  0  0  0
  154.8192  137.2574  189.7992 N   0  0  0  0  0  0  0  0  0  0  0  0
  153.7448  136.7022  190.3597 C   0  0  0  0  0  0  0  0  0  0  0  0
  152.9005  135.6653  189.9985 C   0  0  0  0  0  0  0  0  0  0  0  0
  153.1204  135.0613  188.9420 O   0  0  0  0  0  0  0  0  0  0  0  0
  150.9848  134.1973  190.3138 C   0  0  0  0  0  0  0  0  0  0  0  0
  147.1848  136.7930  188.3015 C   0  0  0  0  0  0  0  0  0  0  0  0
  148.3364  135.8783  188.4756 C   0  0  0  0  0  0  0  0  0  0  0  0
  149.0145  135.6500  189.6107 N   0  0  0  0  0  0  0  0  0  0  0  0
  150.0037  134.7400  189.3488 C   0  0  0  0  0  0  0  0  0  0  0  0
  149.8813  134.4528  188.0505 N   0  0  0  0  0  0  0  0  0  0  0  0
  148.8831  135.1426  187.5560 O   0  0  0  0  0  0  0  0  0  0  0  0
 36 37  1  0  0  0
 37 38  2  0  0  0
 38 39  1  0  0  0
 39 35  1  0  0  0
 35 23  1  0  0  0
 23 24  1  0  0  0
 24 25  2  0  0  0
 24 26  1  0  0  0
 26 27  1  0  0  0
 26 28  1  0  0  0
 28 29  1  0  0  0
 29 30  2  0  0  0
 30 31  1  0  0  0
 31 22  1  0  0  0
 22  1  1  0  0  0
  1  2  2  0  0  0
  1  3  1  0  0  0
  3  5  1  0  0  0
  5  6  2  0  0  0
  6  7  1  0  0  0
  7  8  2  0  0  0
  8  9  1  0  0  0
  9 10  2  0  0  0
  9 11  1  0  0  0
 11 12  2  0  0  0
 12 13  1  0  0  0
 13 14  2  0  0  0
 14 15  1  0  0  0
 14 16  1  0  0  0
 16 17  2  0  0  0
 16 18  1  0  0  0
 18 19  1  0  0  0
 18 20  1  0  0  0
 18 21  1  0  0  0
 31 32  1  0  0  0
 32 33  1  0  0  0
 33 34  2  0  0  0
 39 40  2  0  0  0
 40 41  1  0  0  0
 41 37  1  0  0  0
 33 23  1  0  0  0
 32 28  2  0  0  0
 10  5  1  0  0  0
 17 11  1  0  0  0
  3  4  1  0  0  0
M  END
> <minimizedAffinity>
-7.45644

> <CNNscore>
0.4073601365

> <CNNaffinity>
6.4352698326

> <CNN_VS>
2.6214723587

> <CNNaffinity_variance>
0.2277321815

$$$$
[H]c1nc(C([H])([H])[H])c(C(F)(F)F)c([H])c1-c1nc(N([H])C(=O)C([H])([H])n2c([H])nc3c2c(=O)n(C([H])([H])c2noc(C([H])([H])[H])n2)c(=O)n3C([H])([H])[H])c([H])c([H])c1[H]


 41 45  0  0  0  0  0  0  0  0999 V2000
  154.3352  138.1622  185.3715 C   0  0  0  0  0  0  0  0  0  0  0  0
  154.3867  138.7920  186.4338 O   0  0  0  0  0  0  0  0  0  0  0  0
  153.3142  137.2563  185.0689 N   0  0  0  0  0  0  0  0  0  0  0  0
  153.3889  136.7660  184.1057 H   0  0  0  0  0  0  0  0  0  0  0  0
  152.1778  136.9040  185.8267 C   0  0  0  0  0  0  0  0  0  0  0  0
  150.8797  137.0222  185.4014 C   0  0  0  0  0  0  0  0  0  0  0  0
  149.7841  136.6678  186.2044 C   0  0  0  0  0  0  0  0  0  0  0  0
  150.0705  136.1877  187.4612 C   0  0  0  0  0  0  0  0  0  0  0  0
  151.3608  136.0590  187.9155 C   0  0  0  0  0  0  0  0  0  0  0  0
  152.3328  136.4165  187.0915 N   0  0  0  0  0  0  0  0  0  0  0  0
  151.7235  135.5739  189.2502 C   0  0  0  0  0  0  0  0  0  0  0  0
  152.5006  134.4395  189.4022 C   0  0  0  0  0  0  0  0  0  0  0  0
  152.8524  133.9722  190.6115 N   0  0  0  0  0  0  0  0  0  0  0  0
  152.4838  134.5606  191.7649 C   0  0  0  0  0  0  0  0  0  0  0  0
  152.9114  133.9922  193.0734 C   0  0  0  0  0  0  0  0  0  0  0  0
  151.7079  135.6944  191.6612 C   0  0  0  0  0  0  0  0  0  0  0  0
  151.3306  136.1969  190.4084 C   0  0  0  0  0  0  0  0  0  0  0  0
  151.2774  136.3774  192.8917 C   0  0  0  0  0  0  0  0  0  0  0  0
  150.9366  137.6920  192.5746 F   0  0  0  0  0  0  0  0  0  0  0  0
  152.2963  136.4900  193.8262 F   0  0  0  0  0  0  0  0  0  0  0  0
  150.1492  135.7952  193.4435 F   0  0  0  0  0  0  0  0  0  0  0  0
  155.4562  138.4305  184.3995 C   0  0  0  0  0  0  0  0  0  0  0  0
  158.5281  141.5735  183.2616 N   0  0  0  0  0  0  0  0  0  0  0  0
  157.9655  142.7127  182.8336 C   0  0  0  0  0  0  0  0  0  0  0  0
  158.6967  143.6808  182.4803 O   0  0  0  0  0  0  0  0  0  0  0  0
  156.6220  142.8500  182.7710 N   0  0  0  0  0  0  0  0  0  0  0  0
  156.0851  144.1056  182.2992 C   0  0  0  0  0  0  0  0  0  0  0  0
  155.8310  141.8320  183.1425 C   0  0  0  0  0  0  0  0  0  0  0  0
  154.4894  141.6689  183.2005 N   0  0  0  0  0  0  0  0  0  0  0  0
  154.2159  140.4454  183.6577 C   0  0  0  0  0  0  0  0  0  0  0  0
  155.3809  139.7798  183.9092 N   0  0  0  0  0  0  0  0  0  0  0  0
  156.3588  140.6289  183.5938 C   0  0  0  0  0  0  0  0  0  0  0  0
  157.7416  140.5584  183.6319 C   0  0  0  0  0  0  0  0  0  0  0  0
  158.2721  139.5131  184.0258 O   0  0  0  0  0  0  0  0  0  0  0  0
  159.9837  141.4568  183.3319 C   0  0  0  0  0  0  0  0  0  0  0  0
  162.8493  142.9425  187.1801 C   0  0  0  0  0  0  0  0  0  0  0  0
  161.6831  142.5653  186.3489 C   0  0  0  0  0  0  0  0  0  0  0  0
  161.7059  142.1757  185.0651 N   0  0  0  0  0  0  0  0  0  0  0  0
  160.4210  141.9179  184.6677 C   0  0  0  0  0  0  0  0  0  0  0  0
  159.6657  142.1659  185.7405 N   0  0  0  0  0  0  0  0  0  0  0  0
  160.4406  142.5487  186.7254 O   0  0  0  0  0  0  0  0  0  0  0  0
 36 37  1  0  0  0
 37 38  2  0  0  0
 38 39  1  0  0  0
 39 35  1  0  0  0
 35 23  1  0  0  0
 23 24  1  0  0  0
 24 25  2  0  0  0
 24 26  1  0  0  0
 26 27  1  0  0  0
 26 28  1  0  0  0
 28 29  1  0  0  0
 29 30  2  0  0  0
 30 31  1  0  0  0
 31 22  1  0  0  0
 22  1  1  0  0  0
  1  2  2  0  0  0
  1  3  1  0  0  0
  3  5  1  0  0  0
  5  6  2  0  0  0
  6  7  1  0  0  0
  7  8  2  0  0  0
  8  9  1  0  0  0
  9 10  2  0  0  0
  9 11  1  0  0  0
 11 12  2  0  0  0
 12 13  1  0  0  0
 13 14  2  0  0  0
 14 15  1  0  0  0
 14 16  1  0  0  0
 16 17  2  0  0  0
 16 18  1  0  0  0
 18 19  1  0  0  0
 18 20  1  0  0  0
 18 21  1  0  0  0
 31 32  1  0  0  0
 32 33  1  0  0  0
 33 34  2  0  0  0
 39 40  2  0  0  0
 40 41  1  0  0  0
 41 37  1  0  0  0
 33 23  1  0  0  0
 32 28  2  0  0  0
 10  5  1  0  0  0
 17 11  1  0  0  0
  3  4  1  0  0  0
M  END
> <minimizedAffinity>
-8.72159

> <CNNscore>
0.3937070370

> <CNNaffinity>
6.6823372841

> <CNN_VS>
2.6308832169

> <CNNaffinity_variance>
0.1625069380

$$$$
[H]c1nc(C([H])([H])[H])c(C(F)(F)F)c([H])c1-c1nc(N([H])C(=O)C([H])([H])n2c([H])nc3c2c(=O)n(C([H])([H])c2noc(C([H])([H])[H])n2)c(=O)n3C([H])([H])[H])c([H])c([H])c1[H]


 41 45  0  0  0  0  0  0  0  0999 V2000
  153.3806  138.2481  184.2015 C   0  0  0  0  0  0  0  0  0  0  0  0
  153.1837  138.0176  183.0033 O   0  0  0  0  0  0  0  0  0  0  0  0
  154.1088  139.3508  184.6580 N   0  0  0  0  0  0  0  0  0  0  0  0
  154.2127  139.4350  185.7331 H   0  0  0  0  0  0  0  0  0  0  0  0
  154.7095  140.3929  183.9211 C   0  0  0  0  0  0  0  0  0  0  0  0
  154.0550  141.2116  183.0374 C   0  0  0  0  0  0  0  0  0  0  0  0
  154.7069  142.2268  182.3195 C   0  0  0  0  0  0  0  0  0  0  0  0
  156.0567  142.3701  182.5423 C   0  0  0  0  0  0  0  0  0  0  0  0
  156.7399  141.5643  183.4208 C   0  0  0  0  0  0  0  0  0  0  0  0
  156.0459  140.6329  184.0553 N   0  0  0  0  0  0  0  0  0  0  0  0
  158.1791  141.6579  183.6815 C   0  0  0  0  0  0  0  0  0  0  0  0
  159.0952  141.1558  182.7746 C   0  0  0  0  0  0  0  0  0  0  0  0
  160.4202  141.2297  182.9835 N   0  0  0  0  0  0  0  0  0  0  0  0
  160.9634  141.7919  184.0795 C   0  0  0  0  0  0  0  0  0  0  0  0
  162.4423  141.8441  184.2478 C   0  0  0  0  0  0  0  0  0  0  0  0
  160.0874  142.3053  185.0108 C   0  0  0  0  0  0  0  0  0  0  0  0
  158.7019  142.2375  184.8106 C   0  0  0  0  0  0  0  0  0  0  0  0
  160.6286  142.9317  186.2276 C   0  0  0  0  0  0  0  0  0  0  0  0
  161.6025  142.0905  186.7652 F   0  0  0  0  0  0  0  0  0  0  0  0
  159.6792  143.0623  187.2303 F   0  0  0  0  0  0  0  0  0  0  0  0
  161.2491  144.1399  185.9602 F   0  0  0  0  0  0  0  0  0  0  0  0
  152.7796  137.2550  185.1637 C   0  0  0  0  0  0  0  0  0  0  0  0
  156.0567  136.8984  188.2850 N   0  0  0  0  0  0  0  0  0  0  0  0
  156.7040  135.7261  188.2209 C   0  0  0  0  0  0  0  0  0  0  0  0
  157.6438  135.4819  189.0296 O   0  0  0  0  0  0  0  0  0  0  0  0
  156.3709  134.7913  187.3027 N   0  0  0  0  0  0  0  0  0  0  0  0
  157.1109  133.5505  187.2920 C   0  0  0  0  0  0  0  0  0  0  0  0
  155.3757  135.0344  186.4366 C   0  0  0  0  0  0  0  0  0  0  0  0
  154.8280  134.3233  185.4245 N   0  0  0  0  0  0  0  0  0  0  0  0
  153.8520  135.0396  184.8634 C   0  0  0  0  0  0  0  0  0  0  0  0
  153.7410  136.2411  185.5016 N   0  0  0  0  0  0  0  0  0  0  0  0
  154.6706  136.2312  186.4570 C   0  0  0  0  0  0  0  0  0  0  0  0
  155.0649  137.1421  187.4230 C   0  0  0  0  0  0  0  0  0  0  0  0
  154.4760  138.2273  187.4913 O   0  0  0  0  0  0  0  0  0  0  0  0
  156.4464  137.8968  189.2795 C   0  0  0  0  0  0  0  0  0  0  0  0
  152.8760  136.4229  192.4899 C   0  0  0  0  0  0  0  0  0  0  0  0
  153.8681  137.2436  191.7583 C   0  0  0  0  0  0  0  0  0  0  0  0
  154.6664  136.8355  190.7600 N   0  0  0  0  0  0  0  0  0  0  0  0
  155.4334  137.8961  190.3574 C   0  0  0  0  0  0  0  0  0  0  0  0
  155.0627  138.9135  191.1388 N   0  0  0  0  0  0  0  0  0  0  0  0
  154.1314  138.4986  191.9619 O   0  0  0  0  0  0  0  0  0  0  0  0
 36 37  1  0  0  0
 37 38  2  0  0  0
 38 39  1  0  0  0
 39 35  1  0  0  0
 35 23  1  0  0  0
 23 24  1  0  0  0
 24 25  2  0  0  0
 24 26  1  0  0  0
 26 27  1  0  0  0
 26 28  1  0  0  0
 28 29  1  0  0  0
 29 30  2  0  0  0
 30 31  1  0  0  0
 31 22  1  0  0  0
 22  1  1  0  0  0
  1  2  2  0  0  0
  1  3  1  0  0  0
  3  5  1  0  0  0
  5  6  2  0  0  0
  6  7  1  0  0  0
  7  8  2  0  0  0
  8  9  1  0  0  0
  9 10  2  0  0  0
  9 11  1  0  0  0
 11 12  2  0  0  0
 12 13  1  0  0  0
 13 14  2  0  0  0
 14 15  1  0  0  0
 14 16  1  0  0  0
 16 17  2  0  0  0
 16 18  1  0  0  0
 18 19  1  0  0  0
 18 20  1  0  0  0
 18 21  1  0  0  0
 31 32  1  0  0  0
 32 33  1  0  0  0
 33 34  2  0  0  0
 39 40  2  0  0  0
 40 41  1  0  0  0
 41 37  1  0  0  0
 33 23  1  0  0  0
 32 28  2  0  0  0
 10  5  1  0  0  0
 17 11  1  0  0  0
  3  4  1  0  0  0
M  END
> <minimizedAffinity>
-9.25624

> <CNNscore>
0.3654062152

> <CNNaffinity>
7.0374326706

> <CNN_VS>
2.5715215206

> <CNNaffinity_variance>
0.4544709623

$$$$
[H]c1nc(C([H])([H])[H])c(C(F)(F)F)c([H])c1-c1nc(N([H])C(=O)C([H])([H])n2c([H])nc3c2c(=O)n(C([H])([H])c2noc(C([H])([H])[H])n2)c(=O)n3C([H])([H])[H])c([H])c([H])c1[H]


 41 45  0  0  0  0  0  0  0  0999 V2000
  154.0244  136.6347  186.4496 C   0  0  0  0  0  0  0  0  0  0  0  0
  152.8529  136.8465  186.7820 O   0  0  0  0  0  0  0  0  0  0  0  0
  155.1108  136.8417  187.3049 N   0  0  0  0  0  0  0  0  0  0  0  0
  156.0869  136.6225  186.8891 H   0  0  0  0  0  0  0  0  0  0  0  0
  155.1219  137.2709  188.6486 C   0  0  0  0  0  0  0  0  0  0  0  0
  156.0968  138.0477  189.2195 C   0  0  0  0  0  0  0  0  0  0  0  0
  156.0638  138.4352  190.5684 C   0  0  0  0  0  0  0  0  0  0  0  0
  154.9922  137.9951  191.3103 C   0  0  0  0  0  0  0  0  0  0  0  0
  154.0007  137.2148  190.7663 C   0  0  0  0  0  0  0  0  0  0  0  0
  154.1119  136.8972  189.4863 N   0  0  0  0  0  0  0  0  0  0  0  0
  152.8490  136.7009  191.5131 C   0  0  0  0  0  0  0  0  0  0  0  0
  152.5637  137.1710  192.7825 C   0  0  0  0  0  0  0  0  0  0  0  0
  151.5138  136.7224  193.4904 N   0  0  0  0  0  0  0  0  0  0  0  0
  150.6598  135.7885  193.0308 C   0  0  0  0  0  0  0  0  0  0  0  0
  149.5125  135.3372  193.8664 C   0  0  0  0  0  0  0  0  0  0  0  0
  150.9061  135.2913  191.7697 C   0  0  0  0  0  0  0  0  0  0  0  0
  151.9964  135.7469  191.0161 C   0  0  0  0  0  0  0  0  0  0  0  0
  150.0026  134.2685  191.2189 C   0  0  0  0  0  0  0  0  0  0  0  0
  150.4357  133.9375  189.9351 F   0  0  0  0  0  0  0  0  0  0  0  0
  148.7073  134.7341  191.0478 F   0  0  0  0  0  0  0  0  0  0  0  0
  150.0245  133.0998  191.9605 F   0  0  0  0  0  0  0  0  0  0  0  0
  154.2218  136.1298  185.0427 C   0  0  0  0  0  0  0  0  0  0  0  0
  154.6653  140.2818  183.2613 N   0  0  0  0  0  0  0  0  0  0  0  0
  153.6754  140.5856  182.4095 C   0  0  0  0  0  0  0  0  0  0  0  0
  153.6647  141.7102  181.8336 O   0  0  0  0  0  0  0  0  0  0  0  0
  152.6801  139.7080  182.1508 N   0  0  0  0  0  0  0  0  0  0  0  0
  151.6465  140.1022  181.2215 C   0  0  0  0  0  0  0  0  0  0  0  0
  152.6761  138.5096  182.7538 C   0  0  0  0  0  0  0  0  0  0  0  0
  151.8384  137.4483  182.7102 N   0  0  0  0  0  0  0  0  0  0  0  0
  152.2971  136.4940  183.5223 C   0  0  0  0  0  0  0  0  0  0  0  0
  153.4516  136.9149  184.1169 N   0  0  0  0  0  0  0  0  0  0  0  0
  153.6760  138.1412  183.6451 C   0  0  0  0  0  0  0  0  0  0  0  0
  154.6629  139.0884  183.8627 C   0  0  0  0  0  0  0  0  0  0  0  0
  155.5806  138.8201  184.6470 O   0  0  0  0  0  0  0  0  0  0  0  0
  155.7220  141.2549  183.5329 C   0  0  0  0  0  0  0  0  0  0  0  0
  158.4951  142.5808  179.5606 C   0  0  0  0  0  0  0  0  0  0  0  0
  157.8942  141.8050  180.6697 C   0  0  0  0  0  0  0  0  0  0  0  0
  156.9773  142.2396  181.5476 N   0  0  0  0  0  0  0  0  0  0  0  0
  156.6852  141.2174  182.4108 C   0  0  0  0  0  0  0  0  0  0  0  0
  157.4473  140.1951  182.0144 N   0  0  0  0  0  0  0  0  0  0  0  0
  158.1556  140.5711  180.9781 O   0  0  0  0  0  0  0  0  0  0  0  0
 36 37  1  0  0  0
 37 38  2  0  0  0
 38 39  1  0  0  0
 39 35  1  0  0  0
 35 23  1  0  0  0
 23 24  1  0  0  0
 24 25  2  0  0  0
 24 26  1  0  0  0
 26 27  1  0  0  0
 26 28  1  0  0  0
 28 29  1  0  0  0
 29 30  2  0  0  0
 30 31  1  0  0  0
 31 22  1  0  0  0
 22  1  1  0  0  0
  1  2  2  0  0  0
  1  3  1  0  0  0
  3  5  1  0  0  0
  5  6  2  0  0  0
  6  7  1  0  0  0
  7  8  2  0  0  0
  8  9  1  0  0  0
  9 10  2  0  0  0
  9 11  1  0  0  0
 11 12  2  0  0  0
 12 13  1  0  0  0
 13 14  2  0  0  0
 14 15  1  0  0  0
 14 16  1  0  0  0
 16 17  2  0  0  0
 16 18  1  0  0  0
 18 19  1  0  0  0
 18 20  1  0  0  0
 18 21  1  0  0  0
 31 32  1  0  0  0
 32 33  1  0  0  0
 33 34  2  0  0  0
 39 40  2  0  0  0
 40 41  1  0  0  0
 41 37  1  0  0  0
 33 23  1  0  0  0
 32 28  2  0  0  0
 10  5  1  0  0  0
 17 11  1  0  0  0
  3  4  1  0  0  0
M  END
> <minimizedAffinity>
-8.63908

> <CNNscore>
0.3554331362

> <CNNaffinity>
6.3628501892

> <CNN_VS>
2.2615678310

> <CNNaffinity_variance>
0.1952787191

$$$$
[H]c1nc(C([H])([H])[H])c(C(F)(F)F)c([H])c1-c1nc(N([H])C(=O)C([H])([H])n2c([H])nc3c2c(=O)n(C([H])([H])c2noc(C([H])([H])[H])n2)c(=O)n3C([H])([H])[H])c([H])c([H])c1[H]


 41 45  0  0  0  0  0  0  0  0999 V2000
  153.8370  137.4362  185.0465 C   0  0  0  0  0  0  0  0  0  0  0  0
  153.8015  136.9411  183.9145 O   0  0  0  0  0  0  0  0  0  0  0  0
  154.3111  138.7265  185.3016 N   0  0  0  0  0  0  0  0  0  0  0  0
  154.2934  139.0389  186.3388 H   0  0  0  0  0  0  0  0  0  0  0  0
  154.7872  139.6992  184.3978 C   0  0  0  0  0  0  0  0  0  0  0  0
  154.0321  140.3147  183.4330 C   0  0  0  0  0  0  0  0  0  0  0  0
  154.5623  141.2684  182.5497 C   0  0  0  0  0  0  0  0  0  0  0  0
  155.8974  141.5668  182.6933 C   0  0  0  0  0  0  0  0  0  0  0  0
  156.6796  140.9658  183.6498 C   0  0  0  0  0  0  0  0  0  0  0  0
  156.0971  140.0784  184.4403 N   0  0  0  0  0  0  0  0  0  0  0  0
  158.1095  141.2290  183.8343 C   0  0  0  0  0  0  0  0  0  0  0  0
  159.0290  140.8372  182.8777 C   0  0  0  0  0  0  0  0  0  0  0  0
  160.3451  141.0673  183.0164 N   0  0  0  0  0  0  0  0  0  0  0  0
  160.8758  141.6912  184.0849 C   0  0  0  0  0  0  0  0  0  0  0  0
  162.3451  141.9178  184.1748 C   0  0  0  0  0  0  0  0  0  0  0  0
  159.9962  142.0990  185.0637 C   0  0  0  0  0  0  0  0  0  0  0  0
  158.6197  141.8678  184.9370 C   0  0  0  0  0  0  0  0  0  0  0  0
  160.5237  142.7865  186.2533 C   0  0  0  0  0  0  0  0  0  0  0  0
  160.9293  144.0684  185.8825 F   0  0  0  0  0  0  0  0  0  0  0  0
  161.6670  142.1840  186.7571 F   0  0  0  0  0  0  0  0  0  0  0  0
  159.5608  142.9417  187.2355 F   0  0  0  0  0  0  0  0  0  0  0  0
  153.3300  136.5549  186.1598 C   0  0  0  0  0  0  0  0  0  0  0  0
  154.9320  136.9174  190.3920 N   0  0  0  0  0  0  0  0  0  0  0  0
  156.0055  136.1430  190.6048 C   0  0  0  0  0  0  0  0  0  0  0  0
  156.5619  136.1377  191.7393 O   0  0  0  0  0  0  0  0  0  0  0  0
  156.5102  135.3607  189.6244 N   0  0  0  0  0  0  0  0  0  0  0  0
  157.6687  134.5514  189.9248 C   0  0  0  0  0  0  0  0  0  0  0  0
  155.9317  135.3545  188.4139 C   0  0  0  0  0  0  0  0  0  0  0  0
  156.1991  134.7050  187.2578 N   0  0  0  0  0  0  0  0  0  0  0  0
  155.3060  135.0671  186.3349 C   0  0  0  0  0  0  0  0  0  0  0  0
  154.4310  135.9664  186.8726 N   0  0  0  0  0  0  0  0  0  0  0  0
  154.8175  136.1365  188.1370 C   0  0  0  0  0  0  0  0  0  0  0  0
  154.3544  136.9122  189.1869 C   0  0  0  0  0  0  0  0  0  0  0  0
  153.3655  137.6315  189.0025 O   0  0  0  0  0  0  0  0  0  0  0  0
  154.4149  137.7637  191.4663 C   0  0  0  0  0  0  0  0  0  0  0  0
  152.0986  134.2061  194.1505 C   0  0  0  0  0  0  0  0  0  0  0  0
  152.3744  135.4366  193.3741 C   0  0  0  0  0  0  0  0  0  0  0  0
  153.5488  135.7985  192.8354 N   0  0  0  0  0  0  0  0  0  0  0  0
  153.3822  137.0003  192.2004 C   0  0  0  0  0  0  0  0  0  0  0  0
  152.0986  137.3191  192.3842 N   0  0  0  0  0  0  0  0  0  0  0  0
  151.5228  136.3730  193.0844 O   0  0  0  0  0  0  0  0  0  0  0  0
 36 37  1  0  0  0
 37 38  2  0  0  0
 38 39  1  0  0  0
 39 35  1  0  0  0
 35 23  1  0  0  0
 23 24  1  0  0  0
 24 25  2  0  0  0
 24 26  1  0  0  0
 26 27  1  0  0  0
 26 28  1  0  0  0
 28 29  1  0  0  0
 29 30  2  0  0  0
 30 31  1  0  0  0
 31 22  1  0  0  0
 22  1  1  0  0  0
  1  2  2  0  0  0
  1  3  1  0  0  0
  3  5  1  0  0  0
  5  6  2  0  0  0
  6  7  1  0  0  0
  7  8  2  0  0  0
  8  9  1  0  0  0
  9 10  2  0  0  0
  9 11  1  0  0  0
 11 12  2  0  0  0
 12 13  1  0  0  0
 13 14  2  0  0  0
 14 15  1  0  0  0
 14 16  1  0  0  0
 16 17  2  0  0  0
 16 18  1  0  0  0
 18 19  1  0  0  0
 18 20  1  0  0  0
 18 21  1  0  0  0
 31 32  1  0  0  0
 32 33  1  0  0  0
 33 34  2  0  0  0
 39 40  2  0  0  0
 40 41  1  0  0  0
 41 37  1  0  0  0
 33 23  1  0  0  0
 32 28  2  0  0  0
 10  5  1  0  0  0
 17 11  1  0  0  0
  3  4  1  0  0  0
M  END
> <minimizedAffinity>
-9.15477

> <CNNscore>
0.3266310394

> <CNNaffinity>
6.7995238304

> <CNN_VS>
2.2209355831

> <CNNaffinity_variance>
0.2530043721

$$$$
