[H]c1c(C(C([H])([H])[H])(C([H])([H])[H])C([H])([H])[H])nc(C([H])([H])C([H])([H])C([H])([H])[H])c(C([H])([H])N([H])C(=O)C([H])(c2c([H])c([H])c(N([H])S(=O)(=O)C([H])([H])[H])c(F)c2[H])C([H])([H])[H])c1[H]


 33 34  0  0  0  0  0  0  0  0999 V2000
  154.9441  139.4481  184.6607 N   0  0  0  0  0  0  0  0  0  0  0  0
  154.5124  139.8041  183.3346 C   0  0  0  0  0  0  0  0  0  0  0  0
  153.7432  139.0612  182.7253 O   0  0  0  0  0  0  0  0  0  0  0  0
  155.5842  140.1146  185.1152 H   0  0  0  0  0  0  0  0  0  0  0  0
  154.9871  141.0656  182.6970 C   0  0  0  0  0  0  0  0  0  0  0  0
  154.1760  142.2540  183.0924 C   0  0  0  0  0  0  0  0  0  0  0  0
  156.4352  141.2001  182.9807 C   0  0  0  0  0  0  0  0  0  0  0  0
  157.0226  142.4461  182.9771 C   0  0  0  0  0  0  0  0  0  0  0  0
  158.3815  142.6030  183.2379 C   0  0  0  0  0  0  0  0  0  0  0  0
  159.1870  141.5147  183.5087 C   0  0  0  0  0  0  0  0  0  0  0  0
  158.6008  140.2595  183.5143 C   0  0  0  0  0  0  0  0  0  0  0  0
  159.3951  139.1997  183.7816 F   0  0  0  0  0  0  0  0  0  0  0  0
  157.2463  140.1227  183.2526 C   0  0  0  0  0  0  0  0  0  0  0  0
  160.5786  141.6208  183.7976 N   0  0  0  0  0  0  0  0  0  0  0  0
  161.2335  141.0759  183.2027 H   0  0  0  0  0  0  0  0  0  0  0  0
  161.0613  142.6323  185.1011 S   0  0  0  0  0  0  0  0  0  0  0  0
  159.9883  142.3667  186.4793 C   0  0  0  0  0  0  0  0  0  0  0  0
  160.9410  144.0737  184.6832 O   0  0  0  0  0  0  0  0  0  0  0  0
  162.4900  142.3283  185.4640 O   0  0  0  0  0  0  0  0  0  0  0  0
  154.4283  138.2290  185.2002 C   0  0  0  0  0  0  0  0  0  0  0  0
  153.5370  138.1186  187.5221 C   0  0  0  0  0  0  0  0  0  0  0  0
  153.7450  138.0378  188.8430 N   0  0  0  0  0  0  0  0  0  0  0  0
  154.9698  137.9588  189.4111 C   0  0  0  0  0  0  0  0  0  0  0  0
  156.0632  137.9609  188.5887 C   0  0  0  0  0  0  0  0  0  0  0  0
  155.9015  138.0434  187.1981 C   0  0  0  0  0  0  0  0  0  0  0  0
  154.6485  138.1233  186.6577 C   0  0  0  0  0  0  0  0  0  0  0  0
  155.1072  137.8644  190.8820 C   0  0  0  0  0  0  0  0  0  0  0  0
  153.9006  137.0927  191.4174 C   0  0  0  0  0  0  0  0  0  0  0  0
  156.3988  137.2242  191.2636 C   0  0  0  0  0  0  0  0  0  0  0  0
  154.9470  139.2663  191.4226 C   0  0  0  0  0  0  0  0  0  0  0  0
  152.1790  138.1585  186.9389 C   0  0  0  0  0  0  0  0  0  0  0  0
  150.3111  136.7646  186.0732 C   0  0  0  0  0  0  0  0  0  0  0  0
  151.4143  136.8784  187.1048 C   0  0  0  0  0  0  0  0  0  0  0  0
 32 33  1  0  0  0
 33 31  1  0  0  0
 31 21  1  0  0  0
 21 22  2  0  0  0
 22 23  1  0  0  0
 23 24  2  0  0  0
 24 25  1  0  0  0
 25 26  2  0  0  0
 26 20  1  0  0  0
 20  1  1  0  0  0
  1  2  1  0  0  0
  2  3  2  0  0  0
  2  5  1  0  0  0
  5  6  1  0  0  0
  5  7  1  0  0  0
  7  8  2  0  0  0
  8  9  1  0  0  0
  9 10  2  0  0  0
 10 14  1  0  0  0
 14 16  1  0  0  0
 16 17  1  0  0  0
 16 18  2  0  0  0
 16 19  2  0  0  0
 10 11  1  0  0  0
 11 12  1  0  0  0
 11 13  2  0  0  0
 23 27  1  0  0  0
 27 28  1  0  0  0
 27 29  1  0  0  0
 27 30  1  0  0  0
 26 21  1  0  0  0
 13  7  1  0  0  0
  1  4  1  0  0  0
 14 15  1  0  0  0
M  END
> <minimizedAffinity>
-8.69504

> <CNNscore>
0.6180112958

> <CNNaffinity>
6.9473562241

> <CNN_VS>
4.2935447693

> <CNNaffinity_variance>
0.1069187373

$$$$
[H]c1c(C(C([H])([H])[H])(C([H])([H])[H])C([H])([H])[H])nc(C([H])([H])C([H])([H])C([H])([H])[H])c(C([H])([H])N([H])C(=O)C([H])(c2c([H])c([H])c(N([H])S(=O)(=O)C([H])([H])[H])c(F)c2[H])C([H])([H])[H])c1[H]


 33 34  0  0  0  0  0  0  0  0999 V2000
  155.6178  139.3049  184.0894 N   0  0  0  0  0  0  0  0  0  0  0  0
  154.2098  139.0065  184.0945 C   0  0  0  0  0  0  0  0  0  0  0  0
  153.4341  139.7213  183.4603 O   0  0  0  0  0  0  0  0  0  0  0  0
  156.2110  138.6658  184.6372 H   0  0  0  0  0  0  0  0  0  0  0  0
  153.6863  137.8379  184.8585 C   0  0  0  0  0  0  0  0  0  0  0  0
  153.7895  136.5576  184.0990 C   0  0  0  0  0  0  0  0  0  0  0  0
  154.3648  137.8163  186.1755 C   0  0  0  0  0  0  0  0  0  0  0  0
  155.5161  137.0786  186.3427 C   0  0  0  0  0  0  0  0  0  0  0  0
  156.1741  137.0377  187.5694 C   0  0  0  0  0  0  0  0  0  0  0  0
  155.6947  137.7349  188.6605 C   0  0  0  0  0  0  0  0  0  0  0  0
  154.5377  138.4790  188.4973 C   0  0  0  0  0  0  0  0  0  0  0  0
  154.0757  139.1598  189.5690 F   0  0  0  0  0  0  0  0  0  0  0  0
  153.8963  138.5081  187.2686 C   0  0  0  0  0  0  0  0  0  0  0  0
  156.3373  137.7401  189.9326 N   0  0  0  0  0  0  0  0  0  0  0  0
  156.8832  138.5861  190.1893 H   0  0  0  0  0  0  0  0  0  0  0  0
  156.1633  136.3541  190.9346 S   0  0  0  0  0  0  0  0  0  0  0  0
  154.4472  135.9839  191.1324 C   0  0  0  0  0  0  0  0  0  0  0  0
  156.7402  136.6475  192.2939 O   0  0  0  0  0  0  0  0  0  0  0  0
  156.8964  135.1957  190.3132 O   0  0  0  0  0  0  0  0  0  0  0  0
  156.0338  140.4347  183.3187 C   0  0  0  0  0  0  0  0  0  0  0  0
  157.9996  141.9322  183.0179 C   0  0  0  0  0  0  0  0  0  0  0  0
  159.1390  142.4605  183.4842 N   0  0  0  0  0  0  0  0  0  0  0  0
  159.6550  142.1857  184.7039 C   0  0  0  0  0  0  0  0  0  0  0  0
  158.9734  141.3167  185.5113 C   0  0  0  0  0  0  0  0  0  0  0  0
  157.7751  140.7355  185.0719 C   0  0  0  0  0  0  0  0  0  0  0  0
  157.2828  141.0347  183.8323 C   0  0  0  0  0  0  0  0  0  0  0  0
  160.9178  142.8219  185.1421 C   0  0  0  0  0  0  0  0  0  0  0  0
  160.8811  142.9367  186.6664 C   0  0  0  0  0  0  0  0  0  0  0  0
  162.1033  142.0538  184.6643 C   0  0  0  0  0  0  0  0  0  0  0  0
  160.8813  144.2469  184.6408 C   0  0  0  0  0  0  0  0  0  0  0  0
  157.4466  142.2935  181.6952 C   0  0  0  0  0  0  0  0  0  0  0  0
  159.0098  143.1044  179.9400 C   0  0  0  0  0  0  0  0  0  0  0  0
  158.3255  141.8965  180.5459 C   0  0  0  0  0  0  0  0  0  0  0  0
 32 33  1  0  0  0
 33 31  1  0  0  0
 31 21  1  0  0  0
 21 22  2  0  0  0
 22 23  1  0  0  0
 23 24  2  0  0  0
 24 25  1  0  0  0
 25 26  2  0  0  0
 26 20  1  0  0  0
 20  1  1  0  0  0
  1  2  1  0  0  0
  2  3  2  0  0  0
  2  5  1  0  0  0
  5  6  1  0  0  0
  5  7  1  0  0  0
  7  8  2  0  0  0
  8  9  1  0  0  0
  9 10  2  0  0  0
 10 14  1  0  0  0
 14 16  1  0  0  0
 16 17  1  0  0  0
 16 18  2  0  0  0
 16 19  2  0  0  0
 10 11  1  0  0  0
 11 12  1  0  0  0
 11 13  2  0  0  0
 23 27  1  0  0  0
 27 28  1  0  0  0
 27 29  1  0  0  0
 27 30  1  0  0  0
 26 21  1  0  0  0
 13  7  1  0  0  0
  1  4  1  0  0  0
 14 15  1  0  0  0
M  END
> <minimizedAffinity>
-8.70332

> <CNNscore>
0.5963335037

> <CNNaffinity>
6.8769912720

> <CNN_VS>
4.1009802818

> <CNNaffinity_variance>
0.1270157248

$$$$
[H]c1c(C(C([H])([H])[H])(C([H])([H])[H])C([H])([H])[H])nc(C([H])([H])C([H])([H])C([H])([H])[H])c(C([H])([H])N([H])C(=O)C([H])(c2c([H])c([H])c(N([H])S(=O)(=O)C([H])([H])[H])c(F)c2[H])C([H])([H])[H])c1[H]


 33 34  0  0  0  0  0  0  0  0999 V2000
  155.4042  137.9831  186.5722 N   0  0  0  0  0  0  0  0  0  0  0  0
  154.6947  138.0857  187.8202 C   0  0  0  0  0  0  0  0  0  0  0  0
  153.6563  138.7441  187.8773 O   0  0  0  0  0  0  0  0  0  0  0  0
  156.2629  137.4149  186.5929 H   0  0  0  0  0  0  0  0  0  0  0  0
  155.2062  137.3986  189.0406 C   0  0  0  0  0  0  0  0  0  0  0  0
  156.3192  138.1428  189.6994 C   0  0  0  0  0  0  0  0  0  0  0  0
  154.0502  137.1296  189.9277 C   0  0  0  0  0  0  0  0  0  0  0  0
  153.0362  136.3002  189.5015 C   0  0  0  0  0  0  0  0  0  0  0  0
  151.9365  136.0309  190.3124 C   0  0  0  0  0  0  0  0  0  0  0  0
  151.8246  136.5865  191.5715 C   0  0  0  0  0  0  0  0  0  0  0  0
  152.8421  137.4207  192.0050 C   0  0  0  0  0  0  0  0  0  0  0  0
  152.7262  137.9592  193.2387 F   0  0  0  0  0  0  0  0  0  0  0  0
  153.9293  137.6771  191.1840 C   0  0  0  0  0  0  0  0  0  0  0  0
  150.7294  136.3317  192.4471 N   0  0  0  0  0  0  0  0  0  0  0  0
  149.9725  137.0426  192.4859 H   0  0  0  0  0  0  0  0  0  0  0  0
  150.7478  134.8798  193.3673 S   0  0  0  0  0  0  0  0  0  0  0  0
  149.9494  133.5953  192.4542 C   0  0  0  0  0  0  0  0  0  0  0  0
  149.9827  135.0919  194.6465 O   0  0  0  0  0  0  0  0  0  0  0  0
  152.1718  134.5101  193.6850 O   0  0  0  0  0  0  0  0  0  0  0  0
  154.8348  138.6612  185.4500 C   0  0  0  0  0  0  0  0  0  0  0  0
  155.3856  140.3380  183.6943 C   0  0  0  0  0  0  0  0  0  0  0  0
  156.2843  141.1032  183.0607 N   0  0  0  0  0  0  0  0  0  0  0  0
  157.5984  141.1446  183.3781 C   0  0  0  0  0  0  0  0  0  0  0  0
  158.0379  140.3588  184.4082 C   0  0  0  0  0  0  0  0  0  0  0  0
  157.1385  139.5389  185.1052 C   0  0  0  0  0  0  0  0  0  0  0  0
  155.8168  139.5208  184.7568 C   0  0  0  0  0  0  0  0  0  0  0  0
  158.5212  142.0268  182.6287 C   0  0  0  0  0  0  0  0  0  0  0  0
  159.7189  142.3276  183.5305 C   0  0  0  0  0  0  0  0  0  0  0  0
  158.9319  141.4056  181.3368 C   0  0  0  0  0  0  0  0  0  0  0  0
  157.8137  143.3516  182.4621 C   0  0  0  0  0  0  0  0  0  0  0  0
  153.9492  140.3556  183.3448 C   0  0  0  0  0  0  0  0  0  0  0  0
  152.5795  140.3468  181.2699 C   0  0  0  0  0  0  0  0  0  0  0  0
  153.6505  141.0701  182.0598 C   0  0  0  0  0  0  0  0  0  0  0  0
 32 33  1  0  0  0
 33 31  1  0  0  0
 31 21  1  0  0  0
 21 22  2  0  0  0
 22 23  1  0  0  0
 23 24  2  0  0  0
 24 25  1  0  0  0
 25 26  2  0  0  0
 26 20  1  0  0  0
 20  1  1  0  0  0
  1  2  1  0  0  0
  2  3  2  0  0  0
  2  5  1  0  0  0
  5  6  1  0  0  0
  5  7  1  0  0  0
  7  8  2  0  0  0
  8  9  1  0  0  0
  9 10  2  0  0  0
 10 14  1  0  0  0
 14 16  1  0  0  0
 16 17  1  0  0  0
 16 18  2  0  0  0
 16 19  2  0  0  0
 10 11  1  0  0  0
 11 12  1  0  0  0
 11 13  2  0  0  0
 23 27  1  0  0  0
 27 28  1  0  0  0
 27 29  1  0  0  0
 27 30  1  0  0  0
 26 21  1  0  0  0
 13  7  1  0  0  0
  1  4  1  0  0  0
 14 15  1  0  0  0
M  END
> <minimizedAffinity>
-7.72052

> <CNNscore>
0.5382859707

> <CNNaffinity>
6.1678223610

> <CNN_VS>
3.3200521469

> <CNNaffinity_variance>
0.0438550524

$$$$
[H]c1c(C(C([H])([H])[H])(C([H])([H])[H])C([H])([H])[H])nc(C([H])([H])C([H])([H])C([H])([H])[H])c(C([H])([H])N([H])C(=O)C([H])(c2c([H])c([H])c(N([H])S(=O)(=O)C([H])([H])[H])c(F)c2[H])C([H])([H])[H])c1[H]


 33 34  0  0  0  0  0  0  0  0999 V2000
  155.6709  140.8120  182.1467 N   0  0  0  0  0  0  0  0  0  0  0  0
  156.6007  141.8453  182.5196 C   0  0  0  0  0  0  0  0  0  0  0  0
  156.1877  142.8650  183.0716 O   0  0  0  0  0  0  0  0  0  0  0  0
  156.0825  139.9847  181.6920 H   0  0  0  0  0  0  0  0  0  0  0  0
  158.0578  141.6878  182.2455 C   0  0  0  0  0  0  0  0  0  0  0  0
  158.5091  142.4646  181.0541 C   0  0  0  0  0  0  0  0  0  0  0  0
  158.7912  142.0110  183.4917 C   0  0  0  0  0  0  0  0  0  0  0  0
  158.6826  141.1825  184.5869 C   0  0  0  0  0  0  0  0  0  0  0  0
  159.3584  141.4621  185.7720 C   0  0  0  0  0  0  0  0  0  0  0  0
  160.1604  142.5799  185.8901 C   0  0  0  0  0  0  0  0  0  0  0  0
  160.2736  143.4158  184.7912 C   0  0  0  0  0  0  0  0  0  0  0  0
  161.0614  144.5066  184.9140 F   0  0  0  0  0  0  0  0  0  0  0  0
  159.5935  143.1213  183.6196 C   0  0  0  0  0  0  0  0  0  0  0  0
  160.8857  142.9038  187.0733 N   0  0  0  0  0  0  0  0  0  0  0  0
  160.3397  143.2313  187.8945 H   0  0  0  0  0  0  0  0  0  0  0  0
  162.5960  142.7321  187.0485 S   0  0  0  0  0  0  0  0  0  0  0  0
  163.1123  141.7901  188.4511 C   0  0  0  0  0  0  0  0  0  0  0  0
  163.2339  144.0931  187.1362 O   0  0  0  0  0  0  0  0  0  0  0  0
  163.0101  142.0611  185.7665 O   0  0  0  0  0  0  0  0  0  0  0  0
  154.2950  141.0397  182.4605 C   0  0  0  0  0  0  0  0  0  0  0  0
  152.4109  139.4338  182.1984 C   0  0  0  0  0  0  0  0  0  0  0  0
  151.7767  138.3161  182.5769 N   0  0  0  0  0  0  0  0  0  0  0  0
  152.2073  137.5023  183.5677 C   0  0  0  0  0  0  0  0  0  0  0  0
  153.3598  137.8391  184.2234 C   0  0  0  0  0  0  0  0  0  0  0  0
  154.0630  138.9988  183.8665 C   0  0  0  0  0  0  0  0  0  0  0  0
  153.5984  139.7995  182.8609 C   0  0  0  0  0  0  0  0  0  0  0  0
  151.4470  136.2806  183.9154 C   0  0  0  0  0  0  0  0  0  0  0  0
  149.9668  136.6558  183.9950 C   0  0  0  0  0  0  0  0  0  0  0  0
  151.6985  135.1897  182.9304 C   0  0  0  0  0  0  0  0  0  0  0  0
  151.8356  135.9168  185.3295 C   0  0  0  0  0  0  0  0  0  0  0  0
  151.9302  140.2726  181.0798 C   0  0  0  0  0  0  0  0  0  0  0  0
  150.6240  139.5595  179.0881 C   0  0  0  0  0  0  0  0  0  0  0  0
  151.9881  139.5885  179.7458 C   0  0  0  0  0  0  0  0  0  0  0  0
 32 33  1  0  0  0
 33 31  1  0  0  0
 31 21  1  0  0  0
 21 22  2  0  0  0
 22 23  1  0  0  0
 23 24  2  0  0  0
 24 25  1  0  0  0
 25 26  2  0  0  0
 26 20  1  0  0  0
 20  1  1  0  0  0
  1  2  1  0  0  0
  2  3  2  0  0  0
  2  5  1  0  0  0
  5  6  1  0  0  0
  5  7  1  0  0  0
  7  8  2  0  0  0
  8  9  1  0  0  0
  9 10  2  0  0  0
 10 14  1  0  0  0
 14 16  1  0  0  0
 16 17  1  0  0  0
 16 18  2  0  0  0
 16 19  2  0  0  0
 10 11  1  0  0  0
 11 12  1  0  0  0
 11 13  2  0  0  0
 23 27  1  0  0  0
 27 28  1  0  0  0
 27 29  1  0  0  0
 27 30  1  0  0  0
 26 21  1  0  0  0
 13  7  1  0  0  0
  1  4  1  0  0  0
 14 15  1  0  0  0
M  END
> <minimizedAffinity>
-6.63620

> <CNNscore>
0.5185014009

> <CNNaffinity>
6.7932634354

> <CNN_VS>
3.5223166943

> <CNNaffinity_variance>
0.2060604393

$$$$
[H]c1c(C(C([H])([H])[H])(C([H])([H])[H])C([H])([H])[H])nc(C([H])([H])C([H])([H])C([H])([H])[H])c(C([H])([H])N([H])C(=O)C([H])(c2c([H])c([H])c(N([H])S(=O)(=O)C([H])([H])[H])c(F)c2[H])C([H])([H])[H])c1[H]


 33 34  0  0  0  0  0  0  0  0999 V2000
  154.9185  139.9662  184.4748 N   0  0  0  0  0  0  0  0  0  0  0  0
  154.3539  138.6503  184.6195 C   0  0  0  0  0  0  0  0  0  0  0  0
  154.6700  137.7622  183.8281 O   0  0  0  0  0  0  0  0  0  0  0  0
  154.6147  140.6609  185.1716 H   0  0  0  0  0  0  0  0  0  0  0  0
  153.3934  138.3555  185.7212 C   0  0  0  0  0  0  0  0  0  0  0  0
  152.4718  137.2272  185.3982 C   0  0  0  0  0  0  0  0  0  0  0  0
  154.1754  138.1608  186.9646 C   0  0  0  0  0  0  0  0  0  0  0  0
  153.7255  138.6993  188.1500 C   0  0  0  0  0  0  0  0  0  0  0  0
  154.4403  138.5345  189.3337 C   0  0  0  0  0  0  0  0  0  0  0  0
  155.6251  137.8259  189.3597 C   0  0  0  0  0  0  0  0  0  0  0  0
  156.0814  137.2815  188.1703 C   0  0  0  0  0  0  0  0  0  0  0  0
  157.2405  136.5881  188.2041 F   0  0  0  0  0  0  0  0  0  0  0  0
  155.3561  137.4557  187.0017 C   0  0  0  0  0  0  0  0  0  0  0  0
  156.3870  137.6140  190.5453 N   0  0  0  0  0  0  0  0  0  0  0  0
  157.0915  138.3354  190.7964 H   0  0  0  0  0  0  0  0  0  0  0  0
  156.0856  136.1896  191.4593 S   0  0  0  0  0  0  0  0  0  0  0  0
  154.3746  136.1215  191.8940 C   0  0  0  0  0  0  0  0  0  0  0  0
  156.8916  136.2341  192.7301 O   0  0  0  0  0  0  0  0  0  0  0  0
  156.4842  134.9852  190.6493 O   0  0  0  0  0  0  0  0  0  0  0  0
  155.8417  140.1561  183.4000 C   0  0  0  0  0  0  0  0  0  0  0  0
  157.6857  141.7792  182.9962 C   0  0  0  0  0  0  0  0  0  0  0  0
  158.8197  142.3709  183.3945 N   0  0  0  0  0  0  0  0  0  0  0  0
  159.4347  142.1102  184.5705 C   0  0  0  0  0  0  0  0  0  0  0  0
  158.8656  141.1874  185.4050 C   0  0  0  0  0  0  0  0  0  0  0  0
  157.6780  140.5387  185.0364 C   0  0  0  0  0  0  0  0  0  0  0  0
  157.0838  140.8256  183.8394 C   0  0  0  0  0  0  0  0  0  0  0  0
  160.6830  142.8178  184.9345 C   0  0  0  0  0  0  0  0  0  0  0  0
  161.8606  141.9726  184.4479 C   0  0  0  0  0  0  0  0  0  0  0  0
  160.7073  144.1964  184.3665 C   0  0  0  0  0  0  0  0  0  0  0  0
  160.7746  142.7861  186.4425 C   0  0  0  0  0  0  0  0  0  0  0  0
  157.0214  142.1255  181.7216 C   0  0  0  0  0  0  0  0  0  0  0  0
  158.4631  142.1988  179.6974 C   0  0  0  0  0  0  0  0  0  0  0  0
  157.8510  142.9997  180.8279 C   0  0  0  0  0  0  0  0  0  0  0  0
 32 33  1  0  0  0
 33 31  1  0  0  0
 31 21  1  0  0  0
 21 22  2  0  0  0
 22 23  1  0  0  0
 23 24  2  0  0  0
 24 25  1  0  0  0
 25 26  2  0  0  0
 26 20  1  0  0  0
 20  1  1  0  0  0
  1  2  1  0  0  0
  2  3  2  0  0  0
  2  5  1  0  0  0
  5  6  1  0  0  0
  5  7  1  0  0  0
  7  8  2  0  0  0
  8  9  1  0  0  0
  9 10  2  0  0  0
 10 14  1  0  0  0
 14 16  1  0  0  0
 16 17  1  0  0  0
 16 18  2  0  0  0
 16 19  2  0  0  0
 10 11  1  0  0  0
 11 12  1  0  0  0
 11 13  2  0  0  0
 23 27  1  0  0  0
 27 28  1  0  0  0
 27 29  1  0  0  0
 27 30  1  0  0  0
 26 21  1  0  0  0
 13  7  1  0  0  0
  1  4  1  0  0  0
 14 15  1  0  0  0
M  END
> <minimizedAffinity>
-8.71340

> <CNNscore>
0.4978878498

> <CNNaffinity>
6.7522974014

> <CNN_VS>
3.3618867397

> <CNNaffinity_variance>
0.1062526554

$$$$
[H]c1c(C(C([H])([H])[H])(C([H])([H])[H])C([H])([H])[H])nc(C([H])([H])C([H])([H])C([H])([H])[H])c(C([H])([H])N([H])C(=O)C([H])(c2c([H])c([H])c(N([H])S(=O)(=O)C([H])([H])[H])c(F)c2[H])C([H])([H])[H])c1[H]


 33 34  0  0  0  0  0  0  0  0999 V2000
  155.5677  140.4877  182.3788 N   0  0  0  0  0  0  0  0  0  0  0  0
  154.4672  140.2422  183.2733 C   0  0  0  0  0  0  0  0  0  0  0  0
  153.9755  141.1778  183.9041 O   0  0  0  0  0  0  0  0  0  0  0  0
  155.9294  139.6626  181.8800 H   0  0  0  0  0  0  0  0  0  0  0  0
  153.9179  138.8659  183.4379 C   0  0  0  0  0  0  0  0  0  0  0  0
  153.5455  138.5571  184.8495 C   0  0  0  0  0  0  0  0  0  0  0  0
  152.8081  138.7017  182.4699 C   0  0  0  0  0  0  0  0  0  0  0  0
  152.0741  137.5360  182.4583 C   0  0  0  0  0  0  0  0  0  0  0  0
  151.0271  137.3526  181.5585 C   0  0  0  0  0  0  0  0  0  0  0  0
  150.6891  138.3329  180.6467 C   0  0  0  0  0  0  0  0  0  0  0  0
  151.4238  139.5074  180.6550 C   0  0  0  0  0  0  0  0  0  0  0  0
  151.0860  140.4624  179.7610 F   0  0  0  0  0  0  0  0  0  0  0  0
  152.4625  139.6722  181.5582 C   0  0  0  0  0  0  0  0  0  0  0  0
  149.6178  138.2030  179.7158 N   0  0  0  0  0  0  0  0  0  0  0  0
  149.8663  138.0892  178.7134 H   0  0  0  0  0  0  0  0  0  0  0  0
  148.0089  138.2481  180.3197 S   0  0  0  0  0  0  0  0  0  0  0  0
  147.8831  139.4961  181.5638 C   0  0  0  0  0  0  0  0  0  0  0  0
  147.6767  136.9217  180.9497 O   0  0  0  0  0  0  0  0  0  0  0  0
  147.0589  138.5210  179.1845 O   0  0  0  0  0  0  0  0  0  0  0  0
  156.0210  141.8392  182.2713 C   0  0  0  0  0  0  0  0  0  0  0  0
  158.3440  142.7252  182.3996 C   0  0  0  0  0  0  0  0  0  0  0  0
  159.4751  142.9221  183.0898 N   0  0  0  0  0  0  0  0  0  0  0  0
  159.6545  142.5326  184.3725 C   0  0  0  0  0  0  0  0  0  0  0  0
  158.6193  141.8999  185.0048 C   0  0  0  0  0  0  0  0  0  0  0  0
  157.4128  141.6690  184.3280 C   0  0  0  0  0  0  0  0  0  0  0  0
  157.2664  142.0750  183.0311 C   0  0  0  0  0  0  0  0  0  0  0  0
  160.9371  142.7982  185.0623 C   0  0  0  0  0  0  0  0  0  0  0  0
  160.7117  142.6063  186.5624 C   0  0  0  0  0  0  0  0  0  0  0  0
  162.0230  141.9200  184.5397 C   0  0  0  0  0  0  0  0  0  0  0  0
  161.2216  144.2727  184.8942 C   0  0  0  0  0  0  0  0  0  0  0  0
  158.1731  143.2066  181.0122 C   0  0  0  0  0  0  0  0  0  0  0  0
  159.8122  143.8649  179.2624 C   0  0  0  0  0  0  0  0  0  0  0  0
  159.1943  144.2247  180.5977 C   0  0  0  0  0  0  0  0  0  0  0  0
 32 33  1  0  0  0
 33 31  1  0  0  0
 31 21  1  0  0  0
 21 22  2  0  0  0
 22 23  1  0  0  0
 23 24  2  0  0  0
 24 25  1  0  0  0
 25 26  2  0  0  0
 26 20  1  0  0  0
 20  1  1  0  0  0
  1  2  1  0  0  0
  2  3  2  0  0  0
  2  5  1  0  0  0
  5  6  1  0  0  0
  5  7  1  0  0  0
  7  8  2  0  0  0
  8  9  1  0  0  0
  9 10  2  0  0  0
 10 14  1  0  0  0
 14 16  1  0  0  0
 16 17  1  0  0  0
 16 18  2  0  0  0
 16 19  2  0  0  0
 10 11  1  0  0  0
 11 12  1  0  0  0
 11 13  2  0  0  0
 23 27  1  0  0  0
 27 28  1  0  0  0
 27 29  1  0  0  0
 27 30  1  0  0  0
 26 21  1  0  0  0
 13  7  1  0  0  0
  1  4  1  0  0  0
 14 15  1  0  0  0
M  END
> <minimizedAffinity>
-8.40849

> <CNNscore>
0.4426913559

> <CNNaffinity>
6.5400190353

> <CNN_VS>
2.8952097893

> <CNNaffinity_variance>
0.0570467412

$$$$
[H]c1c(C(C([H])([H])[H])(C([H])([H])[H])C([H])([H])[H])nc(C([H])([H])C([H])([H])C([H])([H])[H])c(C([H])([H])N([H])C(=O)C([H])(c2c([H])c([H])c(N([H])S(=O)(=O)C([H])([H])[H])c(F)c2[H])C([H])([H])[H])c1[H]


 33 34  0  0  0  0  0  0  0  0999 V2000
  155.7209  139.3972  183.6119 N   0  0  0  0  0  0  0  0  0  0  0  0
  154.3054  139.2477  183.8250 C   0  0  0  0  0  0  0  0  0  0  0  0
  153.5374  140.1358  183.4555 O   0  0  0  0  0  0  0  0  0  0  0  0
  156.3063  138.6167  183.9415 H   0  0  0  0  0  0  0  0  0  0  0  0
  153.7641  138.0257  184.4857 C   0  0  0  0  0  0  0  0  0  0  0  0
  154.2248  136.7644  183.8348 C   0  0  0  0  0  0  0  0  0  0  0  0
  154.0827  138.1122  185.9302 C   0  0  0  0  0  0  0  0  0  0  0  0
  153.1490  138.6136  186.8103 C   0  0  0  0  0  0  0  0  0  0  0  0
  153.4212  138.7089  188.1727 C   0  0  0  0  0  0  0  0  0  0  0  0
  154.6366  138.3045  188.6882 C   0  0  0  0  0  0  0  0  0  0  0  0
  155.5786  137.7987  187.8073 C   0  0  0  0  0  0  0  0  0  0  0  0
  156.7648  137.4035  188.3193 F   0  0  0  0  0  0  0  0  0  0  0  0
  155.2898  137.7111  186.4542 C   0  0  0  0  0  0  0  0  0  0  0  0
  154.9605  138.3655  190.0747 N   0  0  0  0  0  0  0  0  0  0  0  0
  155.3416  139.2614  190.4379 H   0  0  0  0  0  0  0  0  0  0  0  0
  154.7003  136.9607  191.0308 S   0  0  0  0  0  0  0  0  0  0  0  0
  156.2174  136.4852  191.8012 C   0  0  0  0  0  0  0  0  0  0  0  0
  154.2502  135.8312  190.1430 O   0  0  0  0  0  0  0  0  0  0  0  0
  153.6404  137.2486  192.0599 O   0  0  0  0  0  0  0  0  0  0  0  0
  156.1510  140.5935  182.9581 C   0  0  0  0  0  0  0  0  0  0  0  0
  158.1540  142.0659  182.8256 C   0  0  0  0  0  0  0  0  0  0  0  0
  159.2707  142.5596  183.3770 N   0  0  0  0  0  0  0  0  0  0  0  0
  159.7071  142.2376  184.6160 C   0  0  0  0  0  0  0  0  0  0  0  0
  158.9644  141.3553  185.3521 C   0  0  0  0  0  0  0  0  0  0  0  0
  157.7864  140.8089  184.8222 C   0  0  0  0  0  0  0  0  0  0  0  0
  157.3753  141.1554  183.5655 C   0  0  0  0  0  0  0  0  0  0  0  0
  160.9503  142.8379  185.1503 C   0  0  0  0  0  0  0  0  0  0  0  0
  160.8390  142.8685  186.6750 C   0  0  0  0  0  0  0  0  0  0  0  0
  162.1536  142.0876  184.6891 C   0  0  0  0  0  0  0  0  0  0  0  0
  160.9466  144.2888  184.7280 C   0  0  0  0  0  0  0  0  0  0  0  0
  157.6883  142.4782  181.4844 C   0  0  0  0  0  0  0  0  0  0  0  0
  159.2941  143.4435  179.8500 C   0  0  0  0  0  0  0  0  0  0  0  0
  158.6658  142.1744  180.3875 C   0  0  0  0  0  0  0  0  0  0  0  0
 32 33  1  0  0  0
 33 31  1  0  0  0
 31 21  1  0  0  0
 21 22  2  0  0  0
 22 23  1  0  0  0
 23 24  2  0  0  0
 24 25  1  0  0  0
 25 26  2  0  0  0
 26 20  1  0  0  0
 20  1  1  0  0  0
  1  2  1  0  0  0
  2  3  2  0  0  0
  2  5  1  0  0  0
  5  6  1  0  0  0
  5  7  1  0  0  0
  7  8  2  0  0  0
  8  9  1  0  0  0
  9 10  2  0  0  0
 10 14  1  0  0  0
 14 16  1  0  0  0
 16 17  1  0  0  0
 16 18  2  0  0  0
 16 19  2  0  0  0
 10 11  1  0  0  0
 11 12  1  0  0  0
 11 13  2  0  0  0
 23 27  1  0  0  0
 27 28  1  0  0  0
 27 29  1  0  0  0
 27 30  1  0  0  0
 26 21  1  0  0  0
 13  7  1  0  0  0
  1  4  1  0  0  0
 14 15  1  0  0  0
M  END
> <minimizedAffinity>
-8.83379

> <CNNscore>
0.4037328362

> <CNNaffinity>
6.7055921555

> <CNN_VS>
2.7072677612

> <CNNaffinity_variance>
0.0978197679

$$$$
[H]c1c(C(C([H])([H])[H])(C([H])([H])[H])C([H])([H])[H])nc(C([H])([H])C([H])([H])C([H])([H])[H])c(C([H])([H])N([H])C(=O)C([H])(c2c([H])c([H])c(N([H])S(=O)(=O)C([H])([H])[H])c(F)c2[H])C([H])([H])[H])c1[H]


 33 34  0  0  0  0  0  0  0  0999 V2000
  153.4026  140.2829  181.4233 N   0  0  0  0  0  0  0  0  0  0  0  0
  153.8878  141.0790  182.5197 C   0  0  0  0  0  0  0  0  0  0  0  0
  153.7974  140.6499  183.6698 O   0  0  0  0  0  0  0  0  0  0  0  0
  153.5118  140.6990  180.4876 H   0  0  0  0  0  0  0  0  0  0  0  0
  154.5009  142.4154  182.2720 C   0  0  0  0  0  0  0  0  0  0  0  0
  153.9011  143.4915  183.1140 C   0  0  0  0  0  0  0  0  0  0  0  0
  155.9683  142.2762  182.4232 C   0  0  0  0  0  0  0  0  0  0  0  0
  156.7709  143.3954  182.3911 C   0  0  0  0  0  0  0  0  0  0  0  0
  158.1531  143.2951  182.5283 C   0  0  0  0  0  0  0  0  0  0  0  0
  158.7666  142.0701  182.7008 C   0  0  0  0  0  0  0  0  0  0  0  0
  157.9637  140.9417  182.7347 C   0  0  0  0  0  0  0  0  0  0  0  0
  158.5711  139.7470  182.9054 F   0  0  0  0  0  0  0  0  0  0  0  0
  156.5894  141.0610  182.5966 C   0  0  0  0  0  0  0  0  0  0  0  0
  160.1739  141.9131  182.8619 N   0  0  0  0  0  0  0  0  0  0  0  0
  160.7212  141.6219  182.0280 H   0  0  0  0  0  0  0  0  0  0  0  0
  160.8509  142.2120  184.4135 S   0  0  0  0  0  0  0  0  0  0  0  0
  160.9476  143.9548  184.6864 C   0  0  0  0  0  0  0  0  0  0  0  0
  162.2470  141.6506  184.4637 O   0  0  0  0  0  0  0  0  0  0  0  0
  160.0008  141.5484  185.4635 O   0  0  0  0  0  0  0  0  0  0  0  0
  152.8436  139.0086  181.7505 C   0  0  0  0  0  0  0  0  0  0  0  0
  150.7095  137.7521  181.4967 C   0  0  0  0  0  0  0  0  0  0  0  0
  149.5811  137.5051  180.8182 N   0  0  0  0  0  0  0  0  0  0  0  0
  149.2239  138.1526  179.6858 C   0  0  0  0  0  0  0  0  0  0  0  0
  150.0640  139.1187  179.2033 C   0  0  0  0  0  0  0  0  0  0  0  0
  151.2582  139.4169  179.8754 C   0  0  0  0  0  0  0  0  0  0  0  0
  151.5888  138.7417  181.0170 C   0  0  0  0  0  0  0  0  0  0  0  0
  147.9526  137.8207  179.0039 C   0  0  0  0  0  0  0  0  0  0  0  0
  146.8185  138.5086  179.7646 C   0  0  0  0  0  0  0  0  0  0  0  0
  147.9900  138.2202  177.5677 C   0  0  0  0  0  0  0  0  0  0  0  0
  147.7233  136.3416  179.2119 C   0  0  0  0  0  0  0  0  0  0  0  0
  151.0414  137.0520  182.7560 C   0  0  0  0  0  0  0  0  0  0  0  0
  152.4054  135.2326  181.7507 C   0  0  0  0  0  0  0  0  0  0  0  0
  151.1953  135.5680  182.5976 C   0  0  0  0  0  0  0  0  0  0  0  0
 32 33  1  0  0  0
 33 31  1  0  0  0
 31 21  1  0  0  0
 21 22  2  0  0  0
 22 23  1  0  0  0
 23 24  2  0  0  0
 24 25  1  0  0  0
 25 26  2  0  0  0
 26 20  1  0  0  0
 20  1  1  0  0  0
  1  2  1  0  0  0
  2  3  2  0  0  0
  2  5  1  0  0  0
  5  6  1  0  0  0
  5  7  1  0  0  0
  7  8  2  0  0  0
  8  9  1  0  0  0
  9 10  2  0  0  0
 10 14  1  0  0  0
 14 16  1  0  0  0
 16 17  1  0  0  0
 16 18  2  0  0  0
 16 19  2  0  0  0
 10 11  1  0  0  0
 11 12  1  0  0  0
 11 13  2  0  0  0
 23 27  1  0  0  0
 27 28  1  0  0  0
 27 29  1  0  0  0
 27 30  1  0  0  0
 26 21  1  0  0  0
 13  7  1  0  0  0
  1  4  1  0  0  0
 14 15  1  0  0  0
M  END
> <minimizedAffinity>
-8.18883

> <CNNscore>
0.3714905977

> <CNNaffinity>
6.3805608749

> <CNN_VS>
2.3703184128

> <CNNaffinity_variance>
0.0645537004

$$$$
[H]c1c(C(C([H])([H])[H])(C([H])([H])[H])C([H])([H])[H])nc(C([H])([H])C([H])([H])C([H])([H])[H])c(C([H])([H])N([H])C(=O)C([H])(c2c([H])c([H])c(N([H])S(=O)(=O)C([H])([H])[H])c(F)c2[H])C([H])([H])[H])c1[H]


 33 34  0  0  0  0  0  0  0  0999 V2000
  155.5731  140.7266  182.3877 N   0  0  0  0  0  0  0  0  0  0  0  0
  155.9008  142.0474  182.8561 C   0  0  0  0  0  0  0  0  0  0  0  0
  155.3865  142.4709  183.8910 O   0  0  0  0  0  0  0  0  0  0  0  0
  156.0405  140.4330  181.5183 H   0  0  0  0  0  0  0  0  0  0  0  0
  156.8594  142.9029  182.0995 C   0  0  0  0  0  0  0  0  0  0  0  0
  156.3238  144.2684  181.8256 C   0  0  0  0  0  0  0  0  0  0  0  0
  158.1488  142.8941  182.8296 C   0  0  0  0  0  0  0  0  0  0  0  0
  158.8170  144.0771  183.0571 C   0  0  0  0  0  0  0  0  0  0  0  0
  160.0314  144.0994  183.7383 C   0  0  0  0  0  0  0  0  0  0  0  0
  160.6078  142.9362  184.2088 C   0  0  0  0  0  0  0  0  0  0  0  0
  159.9392  141.7440  183.9833 C   0  0  0  0  0  0  0  0  0  0  0  0
  160.5087  140.6103  184.4481 F   0  0  0  0  0  0  0  0  0  0  0  0
  158.7311  141.7413  183.3034 C   0  0  0  0  0  0  0  0  0  0  0  0
  161.8395  142.9046  184.9249 N   0  0  0  0  0  0  0  0  0  0  0  0
  162.7106  142.7776  184.3730 H   0  0  0  0  0  0  0  0  0  0  0  0
  161.7878  143.0744  186.6348 S   0  0  0  0  0  0  0  0  0  0  0  0
  163.2580  142.3918  187.3377 C   0  0  0  0  0  0  0  0  0  0  0  0
  160.6096  142.3086  187.1753 O   0  0  0  0  0  0  0  0  0  0  0  0
  161.6486  144.5313  186.9862 O   0  0  0  0  0  0  0  0  0  0  0  0
  154.6567  139.9704  183.1826 C   0  0  0  0  0  0  0  0  0  0  0  0
  152.7396  138.4574  182.6997 C   0  0  0  0  0  0  0  0  0  0  0  0
  151.6078  138.1937  182.0332 N   0  0  0  0  0  0  0  0  0  0  0  0
  151.0469  139.0351  181.1350 C   0  0  0  0  0  0  0  0  0  0  0  0
  151.6712  140.2279  180.8919 C   0  0  0  0  0  0  0  0  0  0  0  0
  152.8588  140.5539  181.5630 C   0  0  0  0  0  0  0  0  0  0  0  0
  153.3989  139.6790  182.4637 C   0  0  0  0  0  0  0  0  0  0  0  0
  149.7881  138.6657  180.4491 C   0  0  0  0  0  0  0  0  0  0  0  0
  148.6364  139.3618  181.1751 C   0  0  0  0  0  0  0  0  0  0  0  0
  149.8376  139.0213  179.0018 C   0  0  0  0  0  0  0  0  0  0  0  0
  149.5752  137.1909  180.7000 C   0  0  0  0  0  0  0  0  0  0  0  0
  153.2959  137.5289  183.7068 C   0  0  0  0  0  0  0  0  0  0  0  0
  153.1830  138.1419  186.1137 C   0  0  0  0  0  0  0  0  0  0  0  0
  152.4824  137.4467  184.9648 C   0  0  0  0  0  0  0  0  0  0  0  0
 32 33  1  0  0  0
 33 31  1  0  0  0
 31 21  1  0  0  0
 21 22  2  0  0  0
 22 23  1  0  0  0
 23 24  2  0  0  0
 24 25  1  0  0  0
 25 26  2  0  0  0
 26 20  1  0  0  0
 20  1  1  0  0  0
  1  2  1  0  0  0
  2  3  2  0  0  0
  2  5  1  0  0  0
  5  6  1  0  0  0
  5  7  1  0  0  0
  7  8  2  0  0  0
  8  9  1  0  0  0
  9 10  2  0  0  0
 10 14  1  0  0  0
 14 16  1  0  0  0
 16 17  1  0  0  0
 16 18  2  0  0  0
 16 19  2  0  0  0
 10 11  1  0  0  0
 11 12  1  0  0  0
 11 13  2  0  0  0
 23 27  1  0  0  0
 27 28  1  0  0  0
 27 29  1  0  0  0
 27 30  1  0  0  0
 26 21  1  0  0  0
 13  7  1  0  0  0
  1  4  1  0  0  0
 14 15  1  0  0  0
M  END
> <minimizedAffinity>
-7.94971

> <CNNscore>
0.3457880616

> <CNNaffinity>
6.6228246689

> <CNN_VS>
2.2900936604

> <CNNaffinity_variance>
0.0622912422

$$$$
[H]c1nc(N2C([H])([H])C([H])([H])c3nc(N4C([H])([H])C([H])([H])C([H])([H])C([H])([H])C4([H])[H])nc(N([H])c4c([H])c([H])c(C(F)(F)F)c([H])c4[H])c3C([H])([H])C2([H])[H])c(C(F)(F)F)c([H])c1[H]


 39 43  0  0  0  0  0  0  0  0999 V2000
  154.1125  136.5425  184.5337 C   0  0  0  0  0  0  0  0  0  0  0  0
  154.3017  135.5375  183.6479 N   0  0  0  0  0  0  0  0  0  0  0  0
  154.6782  134.2787  184.0010 C   0  0  0  0  0  0  0  0  0  0  0  0
  154.8790  133.9830  185.2956 N   0  0  0  0  0  0  0  0  0  0  0  0
  154.7183  134.9111  186.2339 C   0  0  0  0  0  0  0  0  0  0  0  0
  154.8997  134.4776  187.6434 C   0  0  0  0  0  0  0  0  0  0  0  0
  153.5762  134.8064  188.3771 C   0  0  0  0  0  0  0  0  0  0  0  0
  153.3356  136.1681  188.6489 N   0  0  0  0  0  0  0  0  0  0  0  0
  153.3092  137.3673  187.8153 C   0  0  0  0  0  0  0  0  0  0  0  0
  154.3261  137.3398  186.7406 C   0  0  0  0  0  0  0  0  0  0  0  0
  154.3421  136.1828  185.8484 C   0  0  0  0  0  0  0  0  0  0  0  0
  153.0738  136.5277  189.9793 C   0  0  0  0  0  0  0  0  0  0  0  0
  151.7947  136.1825  190.4240 N   0  0  0  0  0  0  0  0  0  0  0  0
  151.4446  136.4796  191.7059 C   0  0  0  0  0  0  0  0  0  0  0  0
  152.2982  137.1033  192.5795 C   0  0  0  0  0  0  0  0  0  0  0  0
  153.5521  137.4291  192.1038 C   0  0  0  0  0  0  0  0  0  0  0  0
  153.9500  137.1386  190.7943 C   0  0  0  0  0  0  0  0  0  0  0  0
  155.3004  137.4819  190.3924 C   0  0  0  0  0  0  0  0  0  0  0  0
  156.0572  136.4420  189.8869 F   0  0  0  0  0  0  0  0  0  0  0  0
  156.0352  137.7900  191.5910 F   0  0  0  0  0  0  0  0  0  0  0  0
  155.4496  138.6426  189.6783 F   0  0  0  0  0  0  0  0  0  0  0  0
  154.9448  133.2836  183.0221 N   0  0  0  0  0  0  0  0  0  0  0  0
  156.2189  132.6367  182.9669 C   0  0  0  0  0  0  0  0  0  0  0  0
  156.6794  132.2745  181.6012 C   0  0  0  0  0  0  0  0  0  0  0  0
  155.5805  131.7748  180.7199 C   0  0  0  0  0  0  0  0  0  0  0  0
  154.4743  132.8065  180.6853 C   0  0  0  0  0  0  0  0  0  0  0  0
  153.8789  133.0018  182.0661 C   0  0  0  0  0  0  0  0  0  0  0  0
  153.5372  137.7952  184.2860 N   0  0  0  0  0  0  0  0  0  0  0  0
  153.5452  138.4321  185.1991 H   0  0  0  0  0  0  0  0  0  0  0  0
  151.4747  139.5219  181.0657 C   0  0  0  0  0  0  0  0  0  0  0  0
  151.0107  138.3753  181.6960 C   0  0  0  0  0  0  0  0  0  0  0  0
  151.7231  137.8718  182.7346 C   0  0  0  0  0  0  0  0  0  0  0  0
  152.8980  138.4152  183.2420 C   0  0  0  0  0  0  0  0  0  0  0  0
  153.3217  139.5457  182.5915 C   0  0  0  0  0  0  0  0  0  0  0  0
  152.6294  140.1129  181.5080 C   0  0  0  0  0  0  0  0  0  0  0  0
  149.5813  139.2826  179.6257 F   0  0  0  0  0  0  0  0  0  0  0  0
  150.6819  140.0343  179.8947 C   0  0  0  0  0  0  0  0  0  0  0  0
  151.4805  140.0538  178.7687 F   0  0  0  0  0  0  0  0  0  0  0  0
  150.3019  141.3496  180.1051 F   0  0  0  0  0  0  0  0  0  0  0  0
 36 37  1  0  0  0
 37 38  1  0  0  0
 37 39  1  0  0  0
 37 30  1  0  0  0
 30 31  2  0  0  0
 31 32  1  0  0  0
 32 33  2  0  0  0
 33 28  1  0  0  0
 28  1  1  0  0  0
  1  2  2  0  0  0
  2  3  1  0  0  0
  3  4  2  0  0  0
  4  5  1  0  0  0
  5  6  1  0  0  0
  6  7  1  0  0  0
  7  8  1  0  0  0
  8  9  1  0  0  0
  9 10  1  0  0  0
 10 11  1  0  0  0
  8 12  1  0  0  0
 12 13  2  0  0  0
 13 14  1  0  0  0
 14 15  2  0  0  0
 15 16  1  0  0  0
 16 17  2  0  0  0
 17 18  1  0  0  0
 18 19  1  0  0  0
 18 20  1  0  0  0
 18 21  1  0  0  0
  3 22  1  0  0  0
 22 23  1  0  0  0
 23 24  1  0  0  0
 24 25  1  0  0  0
 25 26  1  0  0  0
 26 27  1  0  0  0
 33 34  1  0  0  0
 34 35  2  0  0  0
 35 30  1  0  0  0
 11  1  1  0  0  0
 17 12  1  0  0  0
 27 22  1  0  0  0
 11  5  2  0  0  0
 28 29  1  0  0  0
M  END
> <minimizedAffinity>
-7.78561

> <CNNscore>
0.4503832459

> <CNNaffinity>
6.5020089149

> <CNN_VS>
2.9283959866

> <CNNaffinity_variance>
0.0733419508

$$$$
[H]c1nc(N2C([H])([H])C([H])([H])c3nc(N4C([H])([H])C([H])([H])C([H])([H])C([H])([H])C4([H])[H])nc(N([H])c4c([H])c([H])c(C(F)(F)F)c([H])c4[H])c3C([H])([H])C2([H])[H])c(C(F)(F)F)c([H])c1[H]


 39 43  0  0  0  0  0  0  0  0999 V2000
  154.8664  138.7242  184.3974 C   0  0  0  0  0  0  0  0  0  0  0  0
  153.9995  139.0837  183.4230 N   0  0  0  0  0  0  0  0  0  0  0  0
  152.7347  138.5937  183.3171 C   0  0  0  0  0  0  0  0  0  0  0  0
  152.2892  137.7022  184.2175 N   0  0  0  0  0  0  0  0  0  0  0  0
  153.0752  137.2909  185.2076 C   0  0  0  0  0  0  0  0  0  0  0  0
  152.4773  136.3529  186.1925 C   0  0  0  0  0  0  0  0  0  0  0  0
  152.6167  137.0263  187.5800 C   0  0  0  0  0  0  0  0  0  0  0  0
  153.9121  137.0500  188.1344 N   0  0  0  0  0  0  0  0  0  0  0  0
  155.2040  137.5229  187.6436 C   0  0  0  0  0  0  0  0  0  0  0  0
  155.3855  137.2901  186.1935 C   0  0  0  0  0  0  0  0  0  0  0  0
  154.3571  137.7987  185.2888 C   0  0  0  0  0  0  0  0  0  0  0  0
  154.0783  136.5099  189.4183 C   0  0  0  0  0  0  0  0  0  0  0  0
  153.7435  135.1567  189.5174 N   0  0  0  0  0  0  0  0  0  0  0  0
  153.8792  134.5348  190.7212 C   0  0  0  0  0  0  0  0  0  0  0  0
  154.3332  135.1833  191.8410 C   0  0  0  0  0  0  0  0  0  0  0  0
  154.6531  136.5189  191.7041 C   0  0  0  0  0  0  0  0  0  0  0  0
  154.5294  137.1924  190.4840 C   0  0  0  0  0  0  0  0  0  0  0  0
  154.9262  138.5860  190.4232 C   0  0  0  0  0  0  0  0  0  0  0  0
  156.2823  138.8171  190.2912 F   0  0  0  0  0  0  0  0  0  0  0  0
  154.6830  139.1543  191.7229 F   0  0  0  0  0  0  0  0  0  0  0  0
  154.1686  139.4034  189.6248 F   0  0  0  0  0  0  0  0  0  0  0  0
  151.8948  138.9416  182.2248 N   0  0  0  0  0  0  0  0  0  0  0  0
  150.6407  138.2829  182.0295 C   0  0  0  0  0  0  0  0  0  0  0  0
  150.2441  138.0981  180.6093 C   0  0  0  0  0  0  0  0  0  0  0  0
  150.5845  139.2679  179.7434 C   0  0  0  0  0  0  0  0  0  0  0  0
  152.0618  139.5643  179.8809 C   0  0  0  0  0  0  0  0  0  0  0  0
  152.4004  139.9563  181.3059 C   0  0  0  0  0  0  0  0  0  0  0  0
  156.0979  139.3189  184.6997 N   0  0  0  0  0  0  0  0  0  0  0  0
  156.5542  138.8657  185.6085 H   0  0  0  0  0  0  0  0  0  0  0  0
  158.2350  142.5801  183.1497 C   0  0  0  0  0  0  0  0  0  0  0  0
  156.8488  142.5875  183.2232 C   0  0  0  0  0  0  0  0  0  0  0  0
  156.2202  141.5025  183.7401 C   0  0  0  0  0  0  0  0  0  0  0  0
  156.8517  140.3608  184.2208 C   0  0  0  0  0  0  0  0  0  0  0  0
  158.2196  140.3939  184.1297 C   0  0  0  0  0  0  0  0  0  0  0  0
  158.9274  141.4869  183.6011 C   0  0  0  0  0  0  0  0  0  0  0  0
  159.3936  143.5445  181.2940 F   0  0  0  0  0  0  0  0  0  0  0  0
  158.8999  143.7828  182.5383 C   0  0  0  0  0  0  0  0  0  0  0  0
  159.9398  144.1970  183.3464 F   0  0  0  0  0  0  0  0  0  0  0  0
  158.0188  144.8504  182.4881 F   0  0  0  0  0  0  0  0  0  0  0  0
 36 37  1  0  0  0
 37 38  1  0  0  0
 37 39  1  0  0  0
 37 30  1  0  0  0
 30 31  2  0  0  0
 31 32  1  0  0  0
 32 33  2  0  0  0
 33 28  1  0  0  0
 28  1  1  0  0  0
  1  2  2  0  0  0
  2  3  1  0  0  0
  3  4  2  0  0  0
  4  5  1  0  0  0
  5  6  1  0  0  0
  6  7  1  0  0  0
  7  8  1  0  0  0
  8  9  1  0  0  0
  9 10  1  0  0  0
 10 11  1  0  0  0
  8 12  1  0  0  0
 12 13  2  0  0  0
 13 14  1  0  0  0
 14 15  2  0  0  0
 15 16  1  0  0  0
 16 17  2  0  0  0
 17 18  1  0  0  0
 18 19  1  0  0  0
 18 20  1  0  0  0
 18 21  1  0  0  0
  3 22  1  0  0  0
 22 23  1  0  0  0
 23 24  1  0  0  0
 24 25  1  0  0  0
 25 26  1  0  0  0
 26 27  1  0  0  0
 33 34  1  0  0  0
 34 35  2  0  0  0
 35 30  1  0  0  0
 11  1  1  0  0  0
 17 12  1  0  0  0
 27 22  1  0  0  0
 11  5  2  0  0  0
 28 29  1  0  0  0
M  END
> <minimizedAffinity>
-9.57730

> <CNNscore>
0.4228626490

> <CNNaffinity>
7.0209183693

> <CNN_VS>
2.9688842297

> <CNNaffinity_variance>
0.1419189870

$$$$
[H]c1nc(N2C([H])([H])C([H])([H])c3nc(N4C([H])([H])C([H])([H])C([H])([H])C([H])([H])C4([H])[H])nc(N([H])c4c([H])c([H])c(C(F)(F)F)c([H])c4[H])c3C([H])([H])C2([H])[H])c(C(F)(F)F)c([H])c1[H]


 39 43  0  0  0  0  0  0  0  0999 V2000
  153.5351  138.3268  184.1780 C   0  0  0  0  0  0  0  0  0  0  0  0
  152.4596  137.9653  183.4411 N   0  0  0  0  0  0  0  0  0  0  0  0
  152.0052  138.6699  182.3696 C   0  0  0  0  0  0  0  0  0  0  0  0
  152.6403  139.7921  181.9937 N   0  0  0  0  0  0  0  0  0  0  0  0
  153.7052  140.2228  182.6629 C   0  0  0  0  0  0  0  0  0  0  0  0
  154.3811  141.4370  182.1373 C   0  0  0  0  0  0  0  0  0  0  0  0
  155.8507  141.0354  181.8596 C   0  0  0  0  0  0  0  0  0  0  0  0
  156.6735  140.8602  182.9903 N   0  0  0  0  0  0  0  0  0  0  0  0
  156.5562  140.0493  184.1994 C   0  0  0  0  0  0  0  0  0  0  0  0
  155.1635  139.9510  184.6899 C   0  0  0  0  0  0  0  0  0  0  0  0
  154.1422  139.4928  183.7509 C   0  0  0  0  0  0  0  0  0  0  0  0
  157.8658  141.5972  183.0454 C   0  0  0  0  0  0  0  0  0  0  0  0
  159.0025  140.8276  183.3074 N   0  0  0  0  0  0  0  0  0  0  0  0
  160.2130  141.4478  183.3716 C   0  0  0  0  0  0  0  0  0  0  0  0
  160.3619  142.7986  183.1875 C   0  0  0  0  0  0  0  0  0  0  0  0
  159.2168  143.5252  182.9316 C   0  0  0  0  0  0  0  0  0  0  0  0
  157.9556  142.9243  182.8557 C   0  0  0  0  0  0  0  0  0  0  0  0
  156.8122  143.7597  182.5431 C   0  0  0  0  0  0  0  0  0  0  0  0
  156.3929  143.7324  181.2265 F   0  0  0  0  0  0  0  0  0  0  0  0
  157.2416  145.1285  182.6590 F   0  0  0  0  0  0  0  0  0  0  0  0
  155.7695  143.7274  183.4326 F   0  0  0  0  0  0  0  0  0  0  0  0
  150.8204  138.2909  181.6826 N   0  0  0  0  0  0  0  0  0  0  0  0
  150.2743  136.9785  181.8380 C   0  0  0  0  0  0  0  0  0  0  0  0
  149.6189  136.4244  180.6249 C   0  0  0  0  0  0  0  0  0  0  0  0
  148.8378  137.4421  179.8579 C   0  0  0  0  0  0  0  0  0  0  0  0
  149.7455  138.6058  179.5250 C   0  0  0  0  0  0  0  0  0  0  0  0
  150.2335  139.2850  180.7898 C   0  0  0  0  0  0  0  0  0  0  0  0
  154.1872  137.5671  185.1573 N   0  0  0  0  0  0  0  0  0  0  0  0
  154.4512  136.5552  184.7756 H   0  0  0  0  0  0  0  0  0  0  0  0
  155.0417  138.1375  189.2255 C   0  0  0  0  0  0  0  0  0  0  0  0
  153.8319  138.5359  188.6734 C   0  0  0  0  0  0  0  0  0  0  0  0
  153.6178  138.3172  187.3521 C   0  0  0  0  0  0  0  0  0  0  0  0
  154.5163  137.7101  186.4818 C   0  0  0  0  0  0  0  0  0  0  0  0
  155.6979  137.3323  187.0665 C   0  0  0  0  0  0  0  0  0  0  0  0
  155.9796  137.5349  188.4283 C   0  0  0  0  0  0  0  0  0  0  0  0
  154.7457  139.6220  191.0760 F   0  0  0  0  0  0  0  0  0  0  0  0
  155.2627  138.4268  190.6849 C   0  0  0  0  0  0  0  0  0  0  0  0
  156.6163  138.4294  190.9560 F   0  0  0  0  0  0  0  0  0  0  0  0
  154.7280  137.4154  191.4658 F   0  0  0  0  0  0  0  0  0  0  0  0
 36 37  1  0  0  0
 37 38  1  0  0  0
 37 39  1  0  0  0
 37 30  1  0  0  0
 30 31  2  0  0  0
 31 32  1  0  0  0
 32 33  2  0  0  0
 33 28  1  0  0  0
 28  1  1  0  0  0
  1  2  2  0  0  0
  2  3  1  0  0  0
  3  4  2  0  0  0
  4  5  1  0  0  0
  5  6  1  0  0  0
  6  7  1  0  0  0
  7  8  1  0  0  0
  8  9  1  0  0  0
  9 10  1  0  0  0
 10 11  1  0  0  0
  8 12  1  0  0  0
 12 13  2  0  0  0
 13 14  1  0  0  0
 14 15  2  0  0  0
 15 16  1  0  0  0
 16 17  2  0  0  0
 17 18  1  0  0  0
 18 19  1  0  0  0
 18 20  1  0  0  0
 18 21  1  0  0  0
  3 22  1  0  0  0
 22 23  1  0  0  0
 23 24  1  0  0  0
 24 25  1  0  0  0
 25 26  1  0  0  0
 26 27  1  0  0  0
 33 34  1  0  0  0
 34 35  2  0  0  0
 35 30  1  0  0  0
 11  1  1  0  0  0
 17 12  1  0  0  0
 27 22  1  0  0  0
 11  5  2  0  0  0
 28 29  1  0  0  0
M  END
> <minimizedAffinity>
-10.35228

> <CNNscore>
0.4158875346

> <CNNaffinity>
7.2538976669

> <CNN_VS>
3.0168056488

> <CNNaffinity_variance>
0.0671459883

$$$$
[H]c1nc(N2C([H])([H])C([H])([H])c3nc(N4C([H])([H])C([H])([H])C([H])([H])C([H])([H])C4([H])[H])nc(N([H])c4c([H])c([H])c(C(F)(F)F)c([H])c4[H])c3C([H])([H])C2([H])[H])c(C(F)(F)F)c([H])c1[H]


 39 43  0  0  0  0  0  0  0  0999 V2000
  150.8838  135.4920  185.3562 C   0  0  0  0  0  0  0  0  0  0  0  0
  150.8743  134.7427  184.2298 N   0  0  0  0  0  0  0  0  0  0  0  0
  151.9974  134.3806  183.5526 C   0  0  0  0  0  0  0  0  0  0  0  0
  153.2009  134.7709  184.0034 N   0  0  0  0  0  0  0  0  0  0  0  0
  153.3034  135.5121  185.1022 C   0  0  0  0  0  0  0  0  0  0  0  0
  154.6770  135.8429  185.5618 C   0  0  0  0  0  0  0  0  0  0  0  0
  154.7959  135.3072  187.0099 C   0  0  0  0  0  0  0  0  0  0  0  0
  154.1066  136.0330  188.0019 N   0  0  0  0  0  0  0  0  0  0  0  0
  152.7175  136.4603  188.1480 C   0  0  0  0  0  0  0  0  0  0  0  0
  152.0971  136.8409  186.8596 C   0  0  0  0  0  0  0  0  0  0  0  0
  152.1476  135.8716  185.7675 C   0  0  0  0  0  0  0  0  0  0  0  0
  154.8454  136.4874  189.1044 C   0  0  0  0  0  0  0  0  0  0  0  0
  155.2922  137.8065  188.9891 N   0  0  0  0  0  0  0  0  0  0  0  0
  156.0111  138.3463  190.0118 C   0  0  0  0  0  0  0  0  0  0  0  0
  156.3133  137.6472  191.1523 C   0  0  0  0  0  0  0  0  0  0  0  0
  155.8555  136.3475  191.2292 C   0  0  0  0  0  0  0  0  0  0  0  0
  155.1122  135.7582  190.2008 C   0  0  0  0  0  0  0  0  0  0  0  0
  154.6384  134.4000  190.3844 C   0  0  0  0  0  0  0  0  0  0  0  0
  153.2660  134.2380  190.3735 F   0  0  0  0  0  0  0  0  0  0  0  0
  154.9416  134.0236  191.7401 F   0  0  0  0  0  0  0  0  0  0  0  0
  155.2934  133.4231  189.6800 F   0  0  0  0  0  0  0  0  0  0  0  0
  151.9247  133.6637  182.3276 N   0  0  0  0  0  0  0  0  0  0  0  0
  153.1126  133.3340  181.6031 C   0  0  0  0  0  0  0  0  0  0  0  0
  152.9661  133.3368  180.1243 C   0  0  0  0  0  0  0  0  0  0  0  0
  151.6609  132.7769  179.6585 C   0  0  0  0  0  0  0  0  0  0  0  0
  150.5366  133.5287  180.3366 C   0  0  0  0  0  0  0  0  0  0  0  0
  150.5898  133.3334  181.8392 C   0  0  0  0  0  0  0  0  0  0  0  0
  149.8098  135.7389  186.2205 N   0  0  0  0  0  0  0  0  0  0  0  0
  149.2527  136.6555  185.9225 H   0  0  0  0  0  0  0  0  0  0  0  0
  148.3396  133.8997  189.6935 C   0  0  0  0  0  0  0  0  0  0  0  0
  149.2113  133.2428  188.8357 C   0  0  0  0  0  0  0  0  0  0  0  0
  149.6529  133.8970  187.7327 C   0  0  0  0  0  0  0  0  0  0  0  0
  149.3107  135.1972  187.3783 C   0  0  0  0  0  0  0  0  0  0  0  0
  148.4483  135.8096  188.2512 C   0  0  0  0  0  0  0  0  0  0  0  0
  147.9537  135.1833  189.4079 C   0  0  0  0  0  0  0  0  0  0  0  0
  146.8275  133.7657  191.5405 F   0  0  0  0  0  0  0  0  0  0  0  0
  147.8398  133.1345  190.8881 C   0  0  0  0  0  0  0  0  0  0  0  0
  148.8762  132.9398  191.7791 F   0  0  0  0  0  0  0  0  0  0  0  0
  147.4270  131.8665  190.5133 F   0  0  0  0  0  0  0  0  0  0  0  0
 36 37  1  0  0  0
 37 38  1  0  0  0
 37 39  1  0  0  0
 37 30  1  0  0  0
 30 31  2  0  0  0
 31 32  1  0  0  0
 32 33  2  0  0  0
 33 28  1  0  0  0
 28  1  1  0  0  0
  1  2  2  0  0  0
  2  3  1  0  0  0
  3  4  2  0  0  0
  4  5  1  0  0  0
  5  6  1  0  0  0
  6  7  1  0  0  0
  7  8  1  0  0  0
  8  9  1  0  0  0
  9 10  1  0  0  0
 10 11  1  0  0  0
  8 12  1  0  0  0
 12 13  2  0  0  0
 13 14  1  0  0  0
 14 15  2  0  0  0
 15 16  1  0  0  0
 16 17  2  0  0  0
 17 18  1  0  0  0
 18 19  1  0  0  0
 18 20  1  0  0  0
 18 21  1  0  0  0
  3 22  1  0  0  0
 22 23  1  0  0  0
 23 24  1  0  0  0
 24 25  1  0  0  0
 25 26  1  0  0  0
 26 27  1  0  0  0
 33 34  1  0  0  0
 34 35  2  0  0  0
 35 30  1  0  0  0
 11  1  1  0  0  0
 17 12  1  0  0  0
 27 22  1  0  0  0
 11  5  2  0  0  0
 28 29  1  0  0  0
M  END
> <minimizedAffinity>
-4.16378

> <CNNscore>
0.3772867620

> <CNNaffinity>
6.5582990646

> <CNN_VS>
2.4743595123

> <CNNaffinity_variance>
0.8307868838

$$$$
[H]c1nc(N2C([H])([H])C([H])([H])c3nc(N4C([H])([H])C([H])([H])C([H])([H])C([H])([H])C4([H])[H])nc(N([H])c4c([H])c([H])c(C(F)(F)F)c([H])c4[H])c3C([H])([H])C2([H])[H])c(C(F)(F)F)c([H])c1[H]


 39 43  0  0  0  0  0  0  0  0999 V2000
  154.4109  138.9455  184.2105 C   0  0  0  0  0  0  0  0  0  0  0  0
  155.1611  140.0702  184.1581 N   0  0  0  0  0  0  0  0  0  0  0  0
  155.0891  140.9812  183.1503 C   0  0  0  0  0  0  0  0  0  0  0  0
  154.2321  140.7839  182.1351 N   0  0  0  0  0  0  0  0  0  0  0  0
  153.4580  139.7036  182.1042 C   0  0  0  0  0  0  0  0  0  0  0  0
  152.4959  139.6004  180.9767 C   0  0  0  0  0  0  0  0  0  0  0  0
  151.0888  139.4741  181.6110 C   0  0  0  0  0  0  0  0  0  0  0  0
  150.7829  138.2346  182.2078 N   0  0  0  0  0  0  0  0  0  0  0  0
  151.4442  137.4216  183.2253 C   0  0  0  0  0  0  0  0  0  0  0  0
  152.9200  137.4749  183.1305 C   0  0  0  0  0  0  0  0  0  0  0  0
  153.5550  138.7908  183.1363 C   0  0  0  0  0  0  0  0  0  0  0  0
  149.6230  137.5749  181.7751 C   0  0  0  0  0  0  0  0  0  0  0  0
  149.8140  136.7539  180.6605 N   0  0  0  0  0  0  0  0  0  0  0  0
  148.7507  136.0608  180.1675 C   0  0  0  0  0  0  0  0  0  0  0  0
  147.4988  136.1349  180.7225 C   0  0  0  0  0  0  0  0  0  0  0  0
  147.3492  136.9563  181.8214 C   0  0  0  0  0  0  0  0  0  0  0  0
  148.4176  137.6827  182.3586 C   0  0  0  0  0  0  0  0  0  0  0  0
  148.1773  138.4901  183.5389 C   0  0  0  0  0  0  0  0  0  0  0  0
  148.8444  138.0927  184.6821 F   0  0  0  0  0  0  0  0  0  0  0  0
  146.8115  138.2681  183.9350 F   0  0  0  0  0  0  0  0  0  0  0  0
  148.1898  139.8497  183.3630 F   0  0  0  0  0  0  0  0  0  0  0  0
  155.9606  142.1028  183.1022 N   0  0  0  0  0  0  0  0  0  0  0  0
  155.5421  143.3270  182.4932 C   0  0  0  0  0  0  0  0  0  0  0  0
  156.6185  144.0839  181.8027 C   0  0  0  0  0  0  0  0  0  0  0  0
  157.9237  144.0521  182.5304 C   0  0  0  0  0  0  0  0  0  0  0  0
  158.3147  142.6103  182.7703 C   0  0  0  0  0  0  0  0  0  0  0  0
  157.2977  141.9187  183.6571 C   0  0  0  0  0  0  0  0  0  0  0  0
  154.2728  138.0670  185.2925 N   0  0  0  0  0  0  0  0  0  0  0  0
  153.6896  137.1625  185.0077 H   0  0  0  0  0  0  0  0  0  0  0  0
  155.0990  138.1614  189.4052 C   0  0  0  0  0  0  0  0  0  0  0  0
  153.8483  138.4994  188.9064 C   0  0  0  0  0  0  0  0  0  0  0  0
  153.6466  138.4426  187.5664 C   0  0  0  0  0  0  0  0  0  0  0  0
  154.5970  138.0611  186.6259 C   0  0  0  0  0  0  0  0  0  0  0  0
  155.8176  137.7360  187.1596 C   0  0  0  0  0  0  0  0  0  0  0  0
  156.0887  137.7785  188.5379 C   0  0  0  0  0  0  0  0  0  0  0  0
  154.4891  137.4419  191.6021 F   0  0  0  0  0  0  0  0  0  0  0  0
  155.3011  138.2695  190.8917 C   0  0  0  0  0  0  0  0  0  0  0  0
  155.0615  139.5670  191.2978 F   0  0  0  0  0  0  0  0  0  0  0  0
  156.6221  138.0137  191.2210 F   0  0  0  0  0  0  0  0  0  0  0  0
 36 37  1  0  0  0
 37 38  1  0  0  0
 37 39  1  0  0  0
 37 30  1  0  0  0
 30 31  2  0  0  0
 31 32  1  0  0  0
 32 33  2  0  0  0
 33 28  1  0  0  0
 28  1  1  0  0  0
  1  2  2  0  0  0
  2  3  1  0  0  0
  3  4  2  0  0  0
  4  5  1  0  0  0
  5  6  1  0  0  0
  6  7  1  0  0  0
  7  8  1  0  0  0
  8  9  1  0  0  0
  9 10  1  0  0  0
 10 11  1  0  0  0
  8 12  1  0  0  0
 12 13  2  0  0  0
 13 14  1  0  0  0
 14 15  2  0  0  0
 15 16  1  0  0  0
 16 17  2  0  0  0
 17 18  1  0  0  0
 18 19  1  0  0  0
 18 20  1  0  0  0
 18 21  1  0  0  0
  3 22  1  0  0  0
 22 23  1  0  0  0
 23 24  1  0  0  0
 24 25  1  0  0  0
 25 26  1  0  0  0
 26 27  1  0  0  0
 33 34  1  0  0  0
 34 35  2  0  0  0
 35 30  1  0  0  0
 11  1  1  0  0  0
 17 12  1  0  0  0
 27 22  1  0  0  0
 11  5  2  0  0  0
 28 29  1  0  0  0
M  END
> <minimizedAffinity>
-9.72174

> <CNNscore>
0.3669248521

> <CNNaffinity>
6.8879380226

> <CNN_VS>
2.5273556709

> <CNNaffinity_variance>
0.0591155067

$$$$
[H]c1nc(N2C([H])([H])C([H])([H])c3nc(N4C([H])([H])C([H])([H])C([H])([H])C([H])([H])C4([H])[H])nc(N([H])c4c([H])c([H])c(C(F)(F)F)c([H])c4[H])c3C([H])([H])C2([H])[H])c(C(F)(F)F)c([H])c1[H]


 39 43  0  0  0  0  0  0  0  0999 V2000
  154.0628  139.5503  183.5835 C   0  0  0  0  0  0  0  0  0  0  0  0
  153.2398  139.5486  182.5096 N   0  0  0  0  0  0  0  0  0  0  0  0
  152.3789  138.5364  182.2179 C   0  0  0  0  0  0  0  0  0  0  0  0
  152.3158  137.4638  183.0239 N   0  0  0  0  0  0  0  0  0  0  0  0
  153.0911  137.3807  184.1006 C   0  0  0  0  0  0  0  0  0  0  0  0
  152.9078  136.1885  184.9681 C   0  0  0  0  0  0  0  0  0  0  0  0
  152.5604  136.7224  186.3796 C   0  0  0  0  0  0  0  0  0  0  0  0
  153.6211  137.2988  187.1068 N   0  0  0  0  0  0  0  0  0  0  0  0
  154.5781  138.3619  186.8109 C   0  0  0  0  0  0  0  0  0  0  0  0
  155.0034  138.3711  185.3936 C   0  0  0  0  0  0  0  0  0  0  0  0
  153.9610  138.4189  184.3708 C   0  0  0  0  0  0  0  0  0  0  0  0
  153.8843  136.7868  188.3860 C   0  0  0  0  0  0  0  0  0  0  0  0
  152.9819  137.2068  189.3670 N   0  0  0  0  0  0  0  0  0  0  0  0
  153.1445  136.7574  190.6421 C   0  0  0  0  0  0  0  0  0  0  0  0
  154.1583  135.9071  191.0023 C   0  0  0  0  0  0  0  0  0  0  0  0
  155.0297  135.5150  190.0064 C   0  0  0  0  0  0  0  0  0  0  0  0
  154.8946  135.9530  188.6845 C   0  0  0  0  0  0  0  0  0  0  0  0
  155.8330  135.4584  187.6956 C   0  0  0  0  0  0  0  0  0  0  0  0
  155.2732  134.8137  186.6089 F   0  0  0  0  0  0  0  0  0  0  0  0
  156.5602  134.3755  188.3040 F   0  0  0  0  0  0  0  0  0  0  0  0
  156.8528  136.3041  187.3432 F   0  0  0  0  0  0  0  0  0  0  0  0
  151.5978  138.5475  181.0308 N   0  0  0  0  0  0  0  0  0  0  0  0
  151.9491  139.3946  179.9336 C   0  0  0  0  0  0  0  0  0  0  0  0
  150.7978  139.9323  179.1630 C   0  0  0  0  0  0  0  0  0  0  0  0
  149.6933  138.9417  178.9818 C   0  0  0  0  0  0  0  0  0  0  0  0
  149.2700  138.4277  180.3404 C   0  0  0  0  0  0  0  0  0  0  0  0
  150.4126  137.6962  181.0176 C   0  0  0  0  0  0  0  0  0  0  0  0
  154.8237  140.6217  184.0680 N   0  0  0  0  0  0  0  0  0  0  0  0
  154.5844  140.8392  185.1332 H   0  0  0  0  0  0  0  0  0  0  0  0
  157.7222  143.2944  182.6323 C   0  0  0  0  0  0  0  0  0  0  0  0
  158.0717  142.1591  183.3507 C   0  0  0  0  0  0  0  0  0  0  0  0
  157.0852  141.3340  183.7814 C   0  0  0  0  0  0  0  0  0  0  0  0
  155.7258  141.5214  183.5580 C   0  0  0  0  0  0  0  0  0  0  0  0
  155.4236  142.6535  182.8456 C   0  0  0  0  0  0  0  0  0  0  0  0
  156.4001  143.5483  182.3757 C   0  0  0  0  0  0  0  0  0  0  0  0
  159.8434  144.2883  183.1103 F   0  0  0  0  0  0  0  0  0  0  0  0
  158.8365  144.2077  182.2002 C   0  0  0  0  0  0  0  0  0  0  0  0
  158.3381  145.4779  181.9901 F   0  0  0  0  0  0  0  0  0  0  0  0
  159.3498  143.8020  180.9793 F   0  0  0  0  0  0  0  0  0  0  0  0
 36 37  1  0  0  0
 37 38  1  0  0  0
 37 39  1  0  0  0
 37 30  1  0  0  0
 30 31  2  0  0  0
 31 32  1  0  0  0
 32 33  2  0  0  0
 33 28  1  0  0  0
 28  1  1  0  0  0
  1  2  2  0  0  0
  2  3  1  0  0  0
  3  4  2  0  0  0
  4  5  1  0  0  0
  5  6  1  0  0  0
  6  7  1  0  0  0
  7  8  1  0  0  0
  8  9  1  0  0  0
  9 10  1  0  0  0
 10 11  1  0  0  0
  8 12  1  0  0  0
 12 13  2  0  0  0
 13 14  1  0  0  0
 14 15  2  0  0  0
 15 16  1  0  0  0
 16 17  2  0  0  0
 17 18  1  0  0  0
 18 19  1  0  0  0
 18 20  1  0  0  0
 18 21  1  0  0  0
  3 22  1  0  0  0
 22 23  1  0  0  0
 23 24  1  0  0  0
 24 25  1  0  0  0
 25 26  1  0  0  0
 26 27  1  0  0  0
 33 34  1  0  0  0
 34 35  2  0  0  0
 35 30  1  0  0  0
 11  1  1  0  0  0
 17 12  1  0  0  0
 27 22  1  0  0  0
 11  5  2  0  0  0
 28 29  1  0  0  0
M  END
> <minimizedAffinity>
-9.10658

> <CNNscore>
0.3263646662

> <CNNaffinity>
6.8691077232

> <CNN_VS>
2.2418341637

> <CNNaffinity_variance>
0.1626653671

$$$$
[H]c1nc(N2C([H])([H])C([H])([H])c3nc(N4C([H])([H])C([H])([H])C([H])([H])C([H])([H])C4([H])[H])nc(N([H])c4c([H])c([H])c(C(F)(F)F)c([H])c4[H])c3C([H])([H])C2([H])[H])c(C(F)(F)F)c([H])c1[H]


 39 43  0  0  0  0  0  0  0  0999 V2000
  154.4857  138.7181  184.4095 C   0  0  0  0  0  0  0  0  0  0  0  0
  155.4957  139.2298  183.6689 N   0  0  0  0  0  0  0  0  0  0  0  0
  156.7411  139.4781  184.1570 C   0  0  0  0  0  0  0  0  0  0  0  0
  157.0174  139.2082  185.4434 N   0  0  0  0  0  0  0  0  0  0  0  0
  156.0830  138.7058  186.2445 C   0  0  0  0  0  0  0  0  0  0  0  0
  156.4962  138.3792  187.6338 C   0  0  0  0  0  0  0  0  0  0  0  0
  156.1908  136.8751  187.8400 C   0  0  0  0  0  0  0  0  0  0  0  0
  154.8323  136.5284  187.9821 N   0  0  0  0  0  0  0  0  0  0  0  0
  153.6435  136.7798  187.1714 C   0  0  0  0  0  0  0  0  0  0  0  0
  153.6588  138.1141  186.5316 C   0  0  0  0  0  0  0  0  0  0  0  0
  154.8250  138.4691  185.7260 C   0  0  0  0  0  0  0  0  0  0  0  0
  154.4642  135.8017  189.1241 C   0  0  0  0  0  0  0  0  0  0  0  0
  154.2231  134.4459  188.8863 N   0  0  0  0  0  0  0  0  0  0  0  0
  153.8686  133.6502  189.9329 C   0  0  0  0  0  0  0  0  0  0  0  0
  153.7401  134.1261  191.2126 C   0  0  0  0  0  0  0  0  0  0  0  0
  153.9856  135.4701  191.4080 C   0  0  0  0  0  0  0  0  0  0  0  0
  154.3540  136.3195  190.3590 C   0  0  0  0  0  0  0  0  0  0  0  0
  154.6310  137.7100  190.6634 C   0  0  0  0  0  0  0  0  0  0  0  0
  155.9340  137.9957  191.0247 F   0  0  0  0  0  0  0  0  0  0  0  0
  153.9393  138.0234  191.8860 F   0  0  0  0  0  0  0  0  0  0  0  0
  154.1017  138.6408  189.8073 F   0  0  0  0  0  0  0  0  0  0  0  0
  157.7406  140.0952  183.3571 N   0  0  0  0  0  0  0  0  0  0  0  0
  159.1179  140.0388  183.7374 C   0  0  0  0  0  0  0  0  0  0  0  0
  159.9149  141.2431  183.3869 C   0  0  0  0  0  0  0  0  0  0  0  0
  159.5598  141.8199  182.0545 C   0  0  0  0  0  0  0  0  0  0  0  0
  158.0733  142.1005  182.0238 C   0  0  0  0  0  0  0  0  0  0  0  0
  157.2813  140.8164  182.1745 C   0  0  0  0  0  0  0  0  0  0  0  0
  153.2499  138.2466  183.9489 N   0  0  0  0  0  0  0  0  0  0  0  0
  152.8787  137.4047  184.5755 H   0  0  0  0  0  0  0  0  0  0  0  0
  150.6457  138.8072  180.7071 C   0  0  0  0  0  0  0  0  0  0  0  0
  150.5718  137.6793  181.5130 C   0  0  0  0  0  0  0  0  0  0  0  0
  151.4406  137.5628  182.5480 C   0  0  0  0  0  0  0  0  0  0  0  0
  152.4156  138.4940  182.8879 C   0  0  0  0  0  0  0  0  0  0  0  0
  152.4552  139.5920  182.0672 C   0  0  0  0  0  0  0  0  0  0  0  0
  151.5847  139.7680  180.9781 C   0  0  0  0  0  0  0  0  0  0  0  0
  150.1519  139.6717  178.5334 F   0  0  0  0  0  0  0  0  0  0  0  0
  149.6927  138.8894  179.5463 C   0  0  0  0  0  0  0  0  0  0  0  0
  148.4840  139.3999  179.9757 F   0  0  0  0  0  0  0  0  0  0  0  0
  149.4111  137.6234  179.0599 F   0  0  0  0  0  0  0  0  0  0  0  0
 36 37  1  0  0  0
 37 38  1  0  0  0
 37 39  1  0  0  0
 37 30  1  0  0  0
 30 31  2  0  0  0
 31 32  1  0  0  0
 32 33  2  0  0  0
 33 28  1  0  0  0
 28  1  1  0  0  0
  1  2  2  0  0  0
  2  3  1  0  0  0
  3  4  2  0  0  0
  4  5  1  0  0  0
  5  6  1  0  0  0
  6  7  1  0  0  0
  7  8  1  0  0  0
  8  9  1  0  0  0
  9 10  1  0  0  0
 10 11  1  0  0  0
  8 12  1  0  0  0
 12 13  2  0  0  0
 13 14  1  0  0  0
 14 15  2  0  0  0
 15 16  1  0  0  0
 16 17  2  0  0  0
 17 18  1  0  0  0
 18 19  1  0  0  0
 18 20  1  0  0  0
 18 21  1  0  0  0
  3 22  1  0  0  0
 22 23  1  0  0  0
 23 24  1  0  0  0
 24 25  1  0  0  0
 25 26  1  0  0  0
 26 27  1  0  0  0
 33 34  1  0  0  0
 34 35  2  0  0  0
 35 30  1  0  0  0
 11  1  1  0  0  0
 17 12  1  0  0  0
 27 22  1  0  0  0
 11  5  2  0  0  0
 28 29  1  0  0  0
M  END
> <minimizedAffinity>
-8.53505

> <CNNscore>
0.2938673496

> <CNNaffinity>
6.7631883621

> <CNN_VS>
1.9874802828

> <CNNaffinity_variance>
0.0331122205

$$$$
[H]c1nc(N2C([H])([H])C([H])([H])c3nc(N4C([H])([H])C([H])([H])C([H])([H])C([H])([H])C4([H])[H])nc(N([H])c4c([H])c([H])c(C(F)(F)F)c([H])c4[H])c3C([H])([H])C2([H])[H])c(C(F)(F)F)c([H])c1[H]


 39 43  0  0  0  0  0  0  0  0999 V2000
  157.9124  142.4819  183.3464 C   0  0  0  0  0  0  0  0  0  0  0  0
  159.0816  142.5151  184.0263 N   0  0  0  0  0  0  0  0  0  0  0  0
  159.3228  141.7905  185.1522 C   0  0  0  0  0  0  0  0  0  0  0  0
  158.3669  140.9837  185.6415 N   0  0  0  0  0  0  0  0  0  0  0  0
  157.1860  140.8915  185.0381 C   0  0  0  0  0  0  0  0  0  0  0  0
  156.2131  139.9268  185.6129 C   0  0  0  0  0  0  0  0  0  0  0  0
  155.8497  138.9403  184.4759 C   0  0  0  0  0  0  0  0  0  0  0  0
  155.0108  139.4411  183.4603 N   0  0  0  0  0  0  0  0  0  0  0  0
  155.0832  140.6083  182.5851 C   0  0  0  0  0  0  0  0  0  0  0  0
  155.6608  141.7932  183.2575 C   0  0  0  0  0  0  0  0  0  0  0  0
  156.9642  141.6426  183.9005 C   0  0  0  0  0  0  0  0  0  0  0  0
  153.8319  138.7327  183.1845 C   0  0  0  0  0  0  0  0  0  0  0  0
  153.7379  137.5016  183.8393 N   0  0  0  0  0  0  0  0  0  0  0  0
  152.6259  136.7400  183.6457 C   0  0  0  0  0  0  0  0  0  0  0  0
  151.5927  137.1335  182.8344 C   0  0  0  0  0  0  0  0  0  0  0  0
  151.7220  138.3547  182.2045 C   0  0  0  0  0  0  0  0  0  0  0  0
  152.8477  139.1669  182.3796 C   0  0  0  0  0  0  0  0  0  0  0  0
  152.8807  140.4524  181.7092 C   0  0  0  0  0  0  0  0  0  0  0  0
  152.7917  141.5591  182.5320 F   0  0  0  0  0  0  0  0  0  0  0  0
  151.6560  140.5742  180.9630 F   0  0  0  0  0  0  0  0  0  0  0  0
  153.8165  140.6017  180.7186 F   0  0  0  0  0  0  0  0  0  0  0  0
  160.5390  141.9274  185.8746 N   0  0  0  0  0  0  0  0  0  0  0  0
  160.5453  142.4703  187.1974 C   0  0  0  0  0  0  0  0  0  0  0  0
  161.7480  143.2730  187.5400 C   0  0  0  0  0  0  0  0  0  0  0  0
  163.0157  142.7024  186.9907 C   0  0  0  0  0  0  0  0  0  0  0  0
  162.8646  142.5253  185.4958 C   0  0  0  0  0  0  0  0  0  0  0  0
  161.7614  141.5338  185.1814 C   0  0  0  0  0  0  0  0  0  0  0  0
  157.6486  143.0287  182.0842 N   0  0  0  0  0  0  0  0  0  0  0  0
  156.5566  143.1778  181.9277 H   0  0  0  0  0  0  0  0  0  0  0  0
  159.8694  144.2169  178.7283 C   0  0  0  0  0  0  0  0  0  0  0  0
  159.8360  144.9815  179.8866 C   0  0  0  0  0  0  0  0  0  0  0  0
  159.1022  144.5370  180.9371 C   0  0  0  0  0  0  0  0  0  0  0  0
  158.3698  143.3554  180.9634 C   0  0  0  0  0  0  0  0  0  0  0  0
  158.4292  142.6308  179.8007 C   0  0  0  0  0  0  0  0  0  0  0  0
  159.1686  143.0402  178.6779 C   0  0  0  0  0  0  0  0  0  0  0  0
  160.3176  144.1929  176.3800 F   0  0  0  0  0  0  0  0  0  0  0  0
  160.6626  144.7549  177.5691 C   0  0  0  0  0  0  0  0  0  0  0  0
  162.0072  144.5271  177.7835 F   0  0  0  0  0  0  0  0  0  0  0  0
  160.5262  146.1308  177.4856 F   0  0  0  0  0  0  0  0  0  0  0  0
 36 37  1  0  0  0
 37 38  1  0  0  0
 37 39  1  0  0  0
 37 30  1  0  0  0
 30 31  2  0  0  0
 31 32  1  0  0  0
 32 33  2  0  0  0
 33 28  1  0  0  0
 28  1  1  0  0  0
  1  2  2  0  0  0
  2  3  1  0  0  0
  3  4  2  0  0  0
  4  5  1  0  0  0
  5  6  1  0  0  0
  6  7  1  0  0  0
  7  8  1  0  0  0
  8  9  1  0  0  0
  9 10  1  0  0  0
 10 11  1  0  0  0
  8 12  1  0  0  0
 12 13  2  0  0  0
 13 14  1  0  0  0
 14 15  2  0  0  0
 15 16  1  0  0  0
 16 17  2  0  0  0
 17 18  1  0  0  0
 18 19  1  0  0  0
 18 20  1  0  0  0
 18 21  1  0  0  0
  3 22  1  0  0  0
 22 23  1  0  0  0
 23 24  1  0  0  0
 24 25  1  0  0  0
 25 26  1  0  0  0
 26 27  1  0  0  0
 33 34  1  0  0  0
 34 35  2  0  0  0
 35 30  1  0  0  0
 11  1  1  0  0  0
 17 12  1  0  0  0
 27 22  1  0  0  0
 11  5  2  0  0  0
 28 29  1  0  0  0
M  END
> <minimizedAffinity>
-3.15401

> <CNNscore>
0.2912362814

> <CNNaffinity>
7.3331122398

> <CNN_VS>
2.1356682777

> <CNNaffinity_variance>
0.5482475758

$$$$
[H]c1nc(N2C([H])([H])C([H])([H])c3nc(N4C([H])([H])C([H])([H])C([H])([H])C([H])([H])C4([H])[H])nc(N([H])c4c([H])c([H])c(C(F)(F)F)c([H])c4[H])c3C([H])([H])C2([H])[H])c(C(F)(F)F)c([H])c1[H]


 39 43  0  0  0  0  0  0  0  0999 V2000
  154.4327  139.7616  183.5376 C   0  0  0  0  0  0  0  0  0  0  0  0
  153.4181  139.7298  182.6432 N   0  0  0  0  0  0  0  0  0  0  0  0
  152.6430  138.6349  182.4169 C   0  0  0  0  0  0  0  0  0  0  0  0
  152.8702  137.5051  183.1068 N   0  0  0  0  0  0  0  0  0  0  0  0
  153.8490  137.4463  184.0044 C   0  0  0  0  0  0  0  0  0  0  0  0
  153.9858  136.1772  184.7648 C   0  0  0  0  0  0  0  0  0  0  0  0
  153.8662  136.5487  186.2634 C   0  0  0  0  0  0  0  0  0  0  0  0
  154.9744  137.2071  186.8330 N   0  0  0  0  0  0  0  0  0  0  0  0
  155.7195  138.4105  186.4724 C   0  0  0  0  0  0  0  0  0  0  0  0
  155.8492  138.5865  185.0089 C   0  0  0  0  0  0  0  0  0  0  0  0
  154.6255  138.5697  184.2105 C   0  0  0  0  0  0  0  0  0  0  0  0
  155.5467  136.6392  187.9810 C   0  0  0  0  0  0  0  0  0  0  0  0
  156.6255  135.7896  187.7219 N   0  0  0  0  0  0  0  0  0  0  0  0
  157.2577  135.1949  188.7711 C   0  0  0  0  0  0  0  0  0  0  0  0
  156.8788  135.3979  190.0734 C   0  0  0  0  0  0  0  0  0  0  0  0
  155.8091  136.2428  190.2894 C   0  0  0  0  0  0  0  0  0  0  0  0
  155.1353  136.8740  189.2383 C   0  0  0  0  0  0  0  0  0  0  0  0
  154.0470  137.7766  189.5610 C   0  0  0  0  0  0  0  0  0  0  0  0
  154.2719  139.1106  189.2786 F   0  0  0  0  0  0  0  0  0  0  0  0
  153.9426  137.8205  190.9958 F   0  0  0  0  0  0  0  0  0  0  0  0
  152.7870  137.3653  189.2109 F   0  0  0  0  0  0  0  0  0  0  0  0
  151.6449  138.6302  181.4053 N   0  0  0  0  0  0  0  0  0  0  0  0
  151.9481  139.0692  180.0786 C   0  0  0  0  0  0  0  0  0  0  0  0
  150.8339  139.7567  179.3756 C   0  0  0  0  0  0  0  0  0  0  0  0
  149.4979  139.1415  179.6419 C   0  0  0  0  0  0  0  0  0  0  0  0
  149.2729  139.0897  181.1372 C   0  0  0  0  0  0  0  0  0  0  0  0
  150.3074  138.2053  181.8055 C   0  0  0  0  0  0  0  0  0  0  0  0
  155.1419  140.8865  183.9771 N   0  0  0  0  0  0  0  0  0  0  0  0
  154.9104  141.1212  185.0403 H   0  0  0  0  0  0  0  0  0  0  0  0
  157.8621  143.6705  182.4101 C   0  0  0  0  0  0  0  0  0  0  0  0
  158.2871  142.5745  183.1485 C   0  0  0  0  0  0  0  0  0  0  0  0
  157.3555  141.7098  183.6219 C   0  0  0  0  0  0  0  0  0  0  0  0
  155.9835  141.8190  183.4245 C   0  0  0  0  0  0  0  0  0  0  0  0
  155.6061  142.9146  182.6911 C   0  0  0  0  0  0  0  0  0  0  0  0
  156.5232  143.8472  182.1771 C   0  0  0  0  0  0  0  0  0  0  0  0
  159.4734  144.2619  180.7457 F   0  0  0  0  0  0  0  0  0  0  0  0
  158.9165  144.6299  181.9303 C   0  0  0  0  0  0  0  0  0  0  0  0
  159.9212  144.7219  182.8727 F   0  0  0  0  0  0  0  0  0  0  0  0
  158.3936  145.9076  181.8168 F   0  0  0  0  0  0  0  0  0  0  0  0
 36 37  1  0  0  0
 37 38  1  0  0  0
 37 39  1  0  0  0
 37 30  1  0  0  0
 30 31  2  0  0  0
 31 32  1  0  0  0
 32 33  2  0  0  0
 33 28  1  0  0  0
 28  1  1  0  0  0
  1  2  2  0  0  0
  2  3  1  0  0  0
  3  4  2  0  0  0
  4  5  1  0  0  0
  5  6  1  0  0  0
  6  7  1  0  0  0
  7  8  1  0  0  0
  8  9  1  0  0  0
  9 10  1  0  0  0
 10 11  1  0  0  0
  8 12  1  0  0  0
 12 13  2  0  0  0
 13 14  1  0  0  0
 14 15  2  0  0  0
 15 16  1  0  0  0
 16 17  2  0  0  0
 17 18  1  0  0  0
 18 19  1  0  0  0
 18 20  1  0  0  0
 18 21  1  0  0  0
  3 22  1  0  0  0
 22 23  1  0  0  0
 23 24  1  0  0  0
 24 25  1  0  0  0
 25 26  1  0  0  0
 26 27  1  0  0  0
 33 34  1  0  0  0
 34 35  2  0  0  0
 35 30  1  0  0  0
 11  1  1  0  0  0
 17 12  1  0  0  0
 27 22  1  0  0  0
 11  5  2  0  0  0
 28 29  1  0  0  0
M  END
> <minimizedAffinity>
-9.75320

> <CNNscore>
0.2865985036

> <CNNaffinity>
6.9027647972

> <CNN_VS>
1.9783220291

> <CNNaffinity_variance>
0.1479898095

$$$$
[H]c1nc([H])c2c([H])c([H])c([H])c(N([H])C(=O)N([H])C([H])([H])c3c([H])c([H])c([H])c([H])c3C(F)(F)F)c2c1[H]


 27 29  0  0  0  0  0  0  0  0999 V2000
  155.4305  141.9357  182.2016 N   0  0  0  0  0  0  0  0  0  0  0  0
  154.4311  140.9771  182.6313 C   0  0  0  0  0  0  0  0  0  0  0  0
  154.2163  140.9320  183.8414 O   0  0  0  0  0  0  0  0  0  0  0  0
  153.7607  140.1587  181.7015 N   0  0  0  0  0  0  0  0  0  0  0  0
  155.5901  141.9508  181.1758 H   0  0  0  0  0  0  0  0  0  0  0  0
  154.0778  140.3385  180.7020 H   0  0  0  0  0  0  0  0  0  0  0  0
  152.7787  139.1926  181.9557 C   0  0  0  0  0  0  0  0  0  0  0  0
  152.8213  138.3785  183.0627 C   0  0  0  0  0  0  0  0  0  0  0  0
  151.8074  137.4322  183.2581 C   0  0  0  0  0  0  0  0  0  0  0  0
  150.7786  137.3141  182.3564 C   0  0  0  0  0  0  0  0  0  0  0  0
  150.7453  138.1353  181.2498 C   0  0  0  0  0  0  0  0  0  0  0  0
  149.7215  138.0293  180.3373 C   0  0  0  0  0  0  0  0  0  0  0  0
  149.6348  138.8130  179.2249 N   0  0  0  0  0  0  0  0  0  0  0  0
  150.5823  139.7367  178.9909 C   0  0  0  0  0  0  0  0  0  0  0  0
  151.6257  139.8613  179.8989 C   0  0  0  0  0  0  0  0  0  0  0  0
  151.7344  139.0850  181.0245 C   0  0  0  0  0  0  0  0  0  0  0  0
  156.0491  142.7128  183.2128 C   0  0  0  0  0  0  0  0  0  0  0  0
  158.4548  143.0411  182.9972 C   0  0  0  0  0  0  0  0  0  0  0  0
  159.7592  142.6969  183.3794 C   0  0  0  0  0  0  0  0  0  0  0  0
  160.0463  141.7357  184.3076 C   0  0  0  0  0  0  0  0  0  0  0  0
  158.9998  141.0618  184.9066 C   0  0  0  0  0  0  0  0  0  0  0  0
  157.7249  141.3951  184.5362 C   0  0  0  0  0  0  0  0  0  0  0  0
  157.4065  142.3682  183.5954 C   0  0  0  0  0  0  0  0  0  0  0  0
  157.9036  143.5746  180.7756 F   0  0  0  0  0  0  0  0  0  0  0  0
  158.3047  144.1049  181.9743 C   0  0  0  0  0  0  0  0  0  0  0  0
  159.5197  144.7254  181.7640 F   0  0  0  0  0  0  0  0  0  0  0  0
  157.4380  145.1081  182.3633 F   0  0  0  0  0  0  0  0  0  0  0  0
 24 25  1  0  0  0
 25 26  1  0  0  0
 25 27  1  0  0  0
 25 18  1  0  0  0
 18 19  2  0  0  0
 19 20  1  0  0  0
 20 21  2  0  0  0
 21 22  1  0  0  0
 22 23  2  0  0  0
 23 17  1  0  0  0
 17  1  1  0  0  0
  1  2  1  0  0  0
  2  3  2  0  0  0
  2  4  1  0  0  0
  4  7  1  0  0  0
  7  8  2  0  0  0
  8  9  1  0  0  0
  9 10  2  0  0  0
 10 11  1  0  0  0
 11 12  2  0  0  0
 12 13  1  0  0  0
 13 14  2  0  0  0
 14 15  1  0  0  0
 15 16  2  0  0  0
 23 18  1  0  0  0
 16  7  1  0  0  0
 16 11  1  0  0  0
  1  5  1  0  0  0
  4  6  1  0  0  0
M  END
> <minimizedAffinity>
-8.42344

> <CNNscore>
0.5909576416

> <CNNaffinity>
5.7958598137

> <CNN_VS>
3.4251077175

> <CNNaffinity_variance>
0.0541444495

$$$$
[H]c1nc([H])c2c([H])c([H])c([H])c(N([H])C(=O)N([H])C([H])([H])c3c([H])c([H])c([H])c([H])c3C(F)(F)F)c2c1[H]


 27 29  0  0  0  0  0  0  0  0999 V2000
  155.3449  140.2698  183.1203 N   0  0  0  0  0  0  0  0  0  0  0  0
  154.0528  140.4089  182.4773 C   0  0  0  0  0  0  0  0  0  0  0  0
  153.5016  141.5000  182.6111 O   0  0  0  0  0  0  0  0  0  0  0  0
  153.4841  139.3455  181.7495 N   0  0  0  0  0  0  0  0  0  0  0  0
  155.7853  139.3386  182.9901 H   0  0  0  0  0  0  0  0  0  0  0  0
  154.1053  138.4817  181.7435 H   0  0  0  0  0  0  0  0  0  0  0  0
  152.2556  139.3225  181.0767 C   0  0  0  0  0  0  0  0  0  0  0  0
  152.0736  139.9420  179.8630 C   0  0  0  0  0  0  0  0  0  0  0  0
  150.8193  139.8814  179.2428 C   0  0  0  0  0  0  0  0  0  0  0  0
  149.7780  139.2113  179.8364 C   0  0  0  0  0  0  0  0  0  0  0  0
  149.9711  138.5937  181.0534 C   0  0  0  0  0  0  0  0  0  0  0  0
  148.9380  137.9186  181.6609 C   0  0  0  0  0  0  0  0  0  0  0  0
  149.0686  137.2888  182.8631 N   0  0  0  0  0  0  0  0  0  0  0  0
  150.2516  137.3170  183.4999 C   0  0  0  0  0  0  0  0  0  0  0  0
  151.3089  137.9930  182.9050 C   0  0  0  0  0  0  0  0  0  0  0  0
  151.2021  138.6337  181.6969 C   0  0  0  0  0  0  0  0  0  0  0  0
  155.8320  141.3965  183.8292 C   0  0  0  0  0  0  0  0  0  0  0  0
  158.1705  141.9247  183.3883 C   0  0  0  0  0  0  0  0  0  0  0  0
  159.1275  142.7295  182.7541 C   0  0  0  0  0  0  0  0  0  0  0  0
  158.8115  143.7857  181.9463 C   0  0  0  0  0  0  0  0  0  0  0  0
  157.4787  144.0831  181.7383 C   0  0  0  0  0  0  0  0  0  0  0  0
  156.5414  143.2996  182.3557 C   0  0  0  0  0  0  0  0  0  0  0  0
  156.8367  142.2205  183.1814 C   0  0  0  0  0  0  0  0  0  0  0  0
  158.1529  140.8994  185.5032 F   0  0  0  0  0  0  0  0  0  0  0  0
  158.6703  140.8150  184.2367 C   0  0  0  0  0  0  0  0  0  0  0  0
  160.0441  140.8938  184.3471 F   0  0  0  0  0  0  0  0  0  0  0  0
  158.4118  139.5682  183.7004 F   0  0  0  0  0  0  0  0  0  0  0  0
 24 25  1  0  0  0
 25 26  1  0  0  0
 25 27  1  0  0  0
 25 18  1  0  0  0
 18 19  2  0  0  0
 19 20  1  0  0  0
 20 21  2  0  0  0
 21 22  1  0  0  0
 22 23  2  0  0  0
 23 17  1  0  0  0
 17  1  1  0  0  0
  1  2  1  0  0  0
  2  3  2  0  0  0
  2  4  1  0  0  0
  4  7  1  0  0  0
  7  8  2  0  0  0
  8  9  1  0  0  0
  9 10  2  0  0  0
 10 11  1  0  0  0
 11 12  2  0  0  0
 12 13  1  0  0  0
 13 14  2  0  0  0
 14 15  1  0  0  0
 15 16  2  0  0  0
 23 18  1  0  0  0
 16  7  1  0  0  0
 16 11  1  0  0  0
  1  5  1  0  0  0
  4  6  1  0  0  0
M  END
> <minimizedAffinity>
-8.13654

> <CNNscore>
0.4667703509

> <CNNaffinity>
5.6624069214

> <CNN_VS>
2.6430437565

> <CNNaffinity_variance>
0.0289817303

$$$$
[H]c1nc([H])c2c([H])c([H])c([H])c(N([H])C(=O)N([H])C([H])([H])c3c([H])c([H])c([H])c([H])c3C(F)(F)F)c2c1[H]


 27 29  0  0  0  0  0  0  0  0999 V2000
  156.1872  139.6065  184.1470 N   0  0  0  0  0  0  0  0  0  0  0  0
  155.1255  139.1563  185.0257 C   0  0  0  0  0  0  0  0  0  0  0  0
  153.9795  139.3958  184.6491 O   0  0  0  0  0  0  0  0  0  0  0  0
  155.4134  138.4879  186.2316 N   0  0  0  0  0  0  0  0  0  0  0  0
  157.1427  139.3904  184.4911 H   0  0  0  0  0  0  0  0  0  0  0  0
  156.4590  138.3711  186.3896 H   0  0  0  0  0  0  0  0  0  0  0  0
  154.5081  137.9950  187.1802 C   0  0  0  0  0  0  0  0  0  0  0  0
  153.2173  137.6536  186.8526 C   0  0  0  0  0  0  0  0  0  0  0  0
  152.3622  137.1666  187.8492 C   0  0  0  0  0  0  0  0  0  0  0  0
  152.8031  137.0293  189.1424 C   0  0  0  0  0  0  0  0  0  0  0  0
  154.0991  137.3745  189.4603 C   0  0  0  0  0  0  0  0  0  0  0  0
  154.5558  137.2428  190.7510 C   0  0  0  0  0  0  0  0  0  0  0  0
  155.8261  137.5675  191.1255 N   0  0  0  0  0  0  0  0  0  0  0  0
  156.6863  138.0394  190.2073 C   0  0  0  0  0  0  0  0  0  0  0  0
  156.2468  138.1807  188.8975 C   0  0  0  0  0  0  0  0  0  0  0  0
  154.9746  137.8609  188.4968 C   0  0  0  0  0  0  0  0  0  0  0  0
  155.7957  140.2693  182.9568 C   0  0  0  0  0  0  0  0  0  0  0  0
  155.6667  142.6752  182.5868 C   0  0  0  0  0  0  0  0  0  0  0  0
  156.3055  143.8858  182.2832 C   0  0  0  0  0  0  0  0  0  0  0  0
  157.6462  143.9931  182.0403 C   0  0  0  0  0  0  0  0  0  0  0  0
  158.4213  142.8511  182.0950 C   0  0  0  0  0  0  0  0  0  0  0  0
  157.8013  141.6672  182.3913 C   0  0  0  0  0  0  0  0  0  0  0  0
  156.4404  141.5316  182.6422 C   0  0  0  0  0  0  0  0  0  0  0  0
  153.6991  143.9594  182.5261 F   0  0  0  0  0  0  0  0  0  0  0  0
  154.2030  142.7198  182.8239 C   0  0  0  0  0  0  0  0  0  0  0  0
  153.9381  142.4771  184.1568 F   0  0  0  0  0  0  0  0  0  0  0  0
  153.5140  141.7470  182.1254 F   0  0  0  0  0  0  0  0  0  0  0  0
 24 25  1  0  0  0
 25 26  1  0  0  0
 25 27  1  0  0  0
 25 18  1  0  0  0
 18 19  2  0  0  0
 19 20  1  0  0  0
 20 21  2  0  0  0
 21 22  1  0  0  0
 22 23  2  0  0  0
 23 17  1  0  0  0
 17  1  1  0  0  0
  1  2  1  0  0  0
  2  3  2  0  0  0
  2  4  1  0  0  0
  4  7  1  0  0  0
  7  8  2  0  0  0
  8  9  1  0  0  0
  9 10  2  0  0  0
 10 11  1  0  0  0
 11 12  2  0  0  0
 12 13  1  0  0  0
 13 14  2  0  0  0
 14 15  1  0  0  0
 15 16  2  0  0  0
 23 18  1  0  0  0
 16  7  1  0  0  0
 16 11  1  0  0  0
  1  5  1  0  0  0
  4  6  1  0  0  0
M  END
> <minimizedAffinity>
-8.12484

> <CNNscore>
0.4225121140

> <CNNaffinity>
5.4911322594

> <CNN_VS>
2.3200697899

> <CNNaffinity_variance>
0.0273966081

$$$$
[H]c1nc([H])c2c([H])c([H])c([H])c(N([H])C(=O)N([H])C([H])([H])c3c([H])c([H])c([H])c([H])c3C(F)(F)F)c2c1[H]


 27 29  0  0  0  0  0  0  0  0999 V2000
  154.1435  140.7017  181.4989 N   0  0  0  0  0  0  0  0  0  0  0  0
  155.2521  140.8227  182.4255 C   0  0  0  0  0  0  0  0  0  0  0  0
  154.9607  140.7790  183.6195 O   0  0  0  0  0  0  0  0  0  0  0  0
  156.5731  140.9799  181.9628 N   0  0  0  0  0  0  0  0  0  0  0  0
  154.4201  140.7421  180.4990 H   0  0  0  0  0  0  0  0  0  0  0  0
  156.6305  140.9953  180.9005 H   0  0  0  0  0  0  0  0  0  0  0  0
  157.7422  141.1093  182.7237 C   0  0  0  0  0  0  0  0  0  0  0  0
  158.3144  140.0420  183.3744 C   0  0  0  0  0  0  0  0  0  0  0  0
  159.4841  140.2392  184.1191 C   0  0  0  0  0  0  0  0  0  0  0  0
  160.0581  141.4839  184.2021 C   0  0  0  0  0  0  0  0  0  0  0  0
  159.4763  142.5473  183.5459 C   0  0  0  0  0  0  0  0  0  0  0  0
  160.0390  143.8002  183.6193 C   0  0  0  0  0  0  0  0  0  0  0  0
  159.5098  144.8893  182.9923 N   0  0  0  0  0  0  0  0  0  0  0  0
  158.3880  144.7538  182.2649 C   0  0  0  0  0  0  0  0  0  0  0  0
  157.8024  143.4976  182.1769 C   0  0  0  0  0  0  0  0  0  0  0  0
  158.3159  142.3877  182.7981 C   0  0  0  0  0  0  0  0  0  0  0  0
  152.8520  140.5471  182.0622 C   0  0  0  0  0  0  0  0  0  0  0  0
  151.4586  138.7927  181.1018 C   0  0  0  0  0  0  0  0  0  0  0  0
  150.9310  137.4956  181.1727 C   0  0  0  0  0  0  0  0  0  0  0  0
  151.1997  136.6248  182.1913 C   0  0  0  0  0  0  0  0  0  0  0  0
  152.0358  137.0375  183.2104 C   0  0  0  0  0  0  0  0  0  0  0  0
  152.5529  138.3032  183.1447 C   0  0  0  0  0  0  0  0  0  0  0  0
  152.2953  139.2075  182.1203 C   0  0  0  0  0  0  0  0  0  0  0  0
  150.2179  138.9331  179.1105 F   0  0  0  0  0  0  0  0  0  0  0  0
  151.0722  139.6206  179.9330 C   0  0  0  0  0  0  0  0  0  0  0  0
  152.1937  139.9345  179.1918 F   0  0  0  0  0  0  0  0  0  0  0  0
  150.5133  140.8321  180.2919 F   0  0  0  0  0  0  0  0  0  0  0  0
 24 25  1  0  0  0
 25 26  1  0  0  0
 25 27  1  0  0  0
 25 18  1  0  0  0
 18 19  2  0  0  0
 19 20  1  0  0  0
 20 21  2  0  0  0
 21 22  1  0  0  0
 22 23  2  0  0  0
 23 17  1  0  0  0
 17  1  1  0  0  0
  1  2  1  0  0  0
  2  3  2  0  0  0
  2  4  1  0  0  0
  4  7  1  0  0  0
  7  8  2  0  0  0
  8  9  1  0  0  0
  9 10  2  0  0  0
 10 11  1  0  0  0
 11 12  2  0  0  0
 12 13  1  0  0  0
 13 14  2  0  0  0
 14 15  1  0  0  0
 15 16  2  0  0  0
 23 18  1  0  0  0
 16  7  1  0  0  0
 16 11  1  0  0  0
  1  5  1  0  0  0
  4  6  1  0  0  0
M  END
> <minimizedAffinity>
-8.34721

> <CNNscore>
0.3981664777

> <CNNaffinity>
5.8081893921

> <CNN_VS>
2.3126263618

> <CNNaffinity_variance>
0.0662692636

$$$$
[H]c1nc([H])c2c([H])c([H])c([H])c(N([H])C(=O)N([H])C([H])([H])c3c([H])c([H])c([H])c([H])c3C(F)(F)F)c2c1[H]


 27 29  0  0  0  0  0  0  0  0999 V2000
  156.5070  142.1898  183.5860 N   0  0  0  0  0  0  0  0  0  0  0  0
  155.8831  140.8810  183.5698 C   0  0  0  0  0  0  0  0  0  0  0  0
  156.6251  139.9361  183.3071 O   0  0  0  0  0  0  0  0  0  0  0  0
  154.5097  140.7263  183.8414 N   0  0  0  0  0  0  0  0  0  0  0  0
  155.8562  142.9670  183.8106 H   0  0  0  0  0  0  0  0  0  0  0  0
  154.0310  141.6541  184.0468 H   0  0  0  0  0  0  0  0  0  0  0  0
  153.7649  139.5401  183.8645 C   0  0  0  0  0  0  0  0  0  0  0  0
  153.8116  138.6664  184.9249 C   0  0  0  0  0  0  0  0  0  0  0  0
  153.0419  137.4970  184.8851 C   0  0  0  0  0  0  0  0  0  0  0  0
  152.2466  137.2206  183.8004 C   0  0  0  0  0  0  0  0  0  0  0  0
  152.2069  138.1033  182.7424 C   0  0  0  0  0  0  0  0  0  0  0  0
  151.4153  137.8407  181.6486 C   0  0  0  0  0  0  0  0  0  0  0  0
  151.3350  138.6752  180.5733 N   0  0  0  0  0  0  0  0  0  0  0  0
  152.0537  139.8105  180.5616 C   0  0  0  0  0  0  0  0  0  0  0  0
  152.8602  140.0961  181.6556 C   0  0  0  0  0  0  0  0  0  0  0  0
  152.9575  139.2728  182.7484 C   0  0  0  0  0  0  0  0  0  0  0  0
  157.8943  142.2415  183.2998 C   0  0  0  0  0  0  0  0  0  0  0  0
  158.8413  143.6750  181.5707 C   0  0  0  0  0  0  0  0  0  0  0  0
  159.2220  143.8647  180.2347 C   0  0  0  0  0  0  0  0  0  0  0  0
  159.0794  142.9118  179.2653 C   0  0  0  0  0  0  0  0  0  0  0  0
  158.5312  141.6925  179.6127 C   0  0  0  0  0  0  0  0  0  0  0  0
  158.1583  141.5034  180.9162 C   0  0  0  0  0  0  0  0  0  0  0  0
  158.2927  142.4559  181.9203 C   0  0  0  0  0  0  0  0  0  0  0  0
  159.8145  145.7860  181.9183 F   0  0  0  0  0  0  0  0  0  0  0  0
  159.0580  144.8058  182.5062 C   0  0  0  0  0  0  0  0  0  0  0  0
  159.7466  144.3660  183.6189 F   0  0  0  0  0  0  0  0  0  0  0  0
  157.8784  145.3409  182.9871 F   0  0  0  0  0  0  0  0  0  0  0  0
 24 25  1  0  0  0
 25 26  1  0  0  0
 25 27  1  0  0  0
 25 18  1  0  0  0
 18 19  2  0  0  0
 19 20  1  0  0  0
 20 21  2  0  0  0
 21 22  1  0  0  0
 22 23  2  0  0  0
 23 17  1  0  0  0
 17  1  1  0  0  0
  1  2  1  0  0  0
  2  3  2  0  0  0
  2  4  1  0  0  0
  4  7  1  0  0  0
  7  8  2  0  0  0
  8  9  1  0  0  0
  9 10  2  0  0  0
 10 11  1  0  0  0
 11 12  2  0  0  0
 12 13  1  0  0  0
 13 14  2  0  0  0
 14 15  1  0  0  0
 15 16  2  0  0  0
 23 18  1  0  0  0
 16  7  1  0  0  0
 16 11  1  0  0  0
  1  5  1  0  0  0
  4  6  1  0  0  0
M  END
> <minimizedAffinity>
-8.25464

> <CNNscore>
0.3916369379

> <CNNaffinity>
5.9153947830

> <CNN_VS>
2.3166871071

> <CNNaffinity_variance>
0.0617876537

$$$$
[H]c1nc([H])c2c([H])c([H])c([H])c(N([H])C(=O)N([H])C([H])([H])c3c([H])c([H])c([H])c([H])c3C(F)(F)F)c2c1[H]


 27 29  0  0  0  0  0  0  0  0999 V2000
  155.2688  140.5308  183.1665 N   0  0  0  0  0  0  0  0  0  0  0  0
  154.0260  140.6031  182.4231 C   0  0  0  0  0  0  0  0  0  0  0  0
  153.5270  141.7224  182.3198 O   0  0  0  0  0  0  0  0  0  0  0  0
  153.4451  139.4487  181.8631 N   0  0  0  0  0  0  0  0  0  0  0  0
  155.6657  139.5740  183.2369 H   0  0  0  0  0  0  0  0  0  0  0  0
  154.0184  138.5734  182.0554 H   0  0  0  0  0  0  0  0  0  0  0  0
  152.2587  139.3538  181.1241 C   0  0  0  0  0  0  0  0  0  0  0  0
  152.1048  139.9682  179.9040 C   0  0  0  0  0  0  0  0  0  0  0  0
  150.8922  139.8337  179.2160 C   0  0  0  0  0  0  0  0  0  0  0  0
  149.8638  139.0969  179.7501 C   0  0  0  0  0  0  0  0  0  0  0  0
  150.0286  138.4849  180.9742 C   0  0  0  0  0  0  0  0  0  0  0  0
  149.0081  137.7435  181.5225 C   0  0  0  0  0  0  0  0  0  0  0  0
  149.1121  137.1156  182.7284 N   0  0  0  0  0  0  0  0  0  0  0  0
  150.2547  137.2132  183.4289 C   0  0  0  0  0  0  0  0  0  0  0  0
  151.2987  137.9570  182.8944 C   0  0  0  0  0  0  0  0  0  0  0  0
  151.2180  138.5972  181.6840 C   0  0  0  0  0  0  0  0  0  0  0  0
  155.7730  141.7473  183.6911 C   0  0  0  0  0  0  0  0  0  0  0  0
  157.9313  142.5065  182.8501 C   0  0  0  0  0  0  0  0  0  0  0  0
  159.3189  142.6205  183.0153 C   0  0  0  0  0  0  0  0  0  0  0  0
  159.9929  142.1402  184.1030 C   0  0  0  0  0  0  0  0  0  0  0  0
  159.2749  141.5065  185.0985 C   0  0  0  0  0  0  0  0  0  0  0  0
  157.9198  141.3933  184.9409 C   0  0  0  0  0  0  0  0  0  0  0  0
  157.2112  141.8729  183.8449 C   0  0  0  0  0  0  0  0  0  0  0  0
  156.8953  142.0824  180.7835 F   0  0  0  0  0  0  0  0  0  0  0  0
  157.3450  143.0770  181.6126 C   0  0  0  0  0  0  0  0  0  0  0  0
  158.3089  143.7841  180.9221 F   0  0  0  0  0  0  0  0  0  0  0  0
  156.3305  143.9806  181.8638 F   0  0  0  0  0  0  0  0  0  0  0  0
 24 25  1  0  0  0
 25 26  1  0  0  0
 25 27  1  0  0  0
 25 18  1  0  0  0
 18 19  2  0  0  0
 19 20  1  0  0  0
 20 21  2  0  0  0
 21 22  1  0  0  0
 22 23  2  0  0  0
 23 17  1  0  0  0
 17  1  1  0  0  0
  1  2  1  0  0  0
  2  3  2  0  0  0
  2  4  1  0  0  0
  4  7  1  0  0  0
  7  8  2  0  0  0
  8  9  1  0  0  0
  9 10  2  0  0  0
 10 11  1  0  0  0
 11 12  2  0  0  0
 12 13  1  0  0  0
 13 14  2  0  0  0
 14 15  1  0  0  0
 15 16  2  0  0  0
 23 18  1  0  0  0
 16  7  1  0  0  0
 16 11  1  0  0  0
  1  5  1  0  0  0
  4  6  1  0  0  0
M  END
> <minimizedAffinity>
-8.40702

> <CNNscore>
0.3793792725

> <CNNaffinity>
5.5555429459

> <CNN_VS>
2.1076579094

> <CNNaffinity_variance>
0.0574911460

$$$$
[H]c1nc([H])c2c([H])c([H])c([H])c(N([H])C(=O)N([H])C([H])([H])c3c([H])c([H])c([H])c([H])c3C(F)(F)F)c2c1[H]


 27 29  0  0  0  0  0  0  0  0999 V2000
  154.7511  138.7165  184.8780 N   0  0  0  0  0  0  0  0  0  0  0  0
  155.3642  138.5312  186.1788 C   0  0  0  0  0  0  0  0  0  0  0  0
  156.5612  138.8039  186.2515 O   0  0  0  0  0  0  0  0  0  0  0  0
  154.6146  138.0661  187.2768 N   0  0  0  0  0  0  0  0  0  0  0  0
  153.7410  138.4784  184.8475 H   0  0  0  0  0  0  0  0  0  0  0  0
  153.5974  137.8835  187.0238 H   0  0  0  0  0  0  0  0  0  0  0  0
  155.0569  137.8369  188.5861 C   0  0  0  0  0  0  0  0  0  0  0  0
  154.8041  138.7193  189.6095 C   0  0  0  0  0  0  0  0  0  0  0  0
  155.2748  138.4305  190.8967 C   0  0  0  0  0  0  0  0  0  0  0  0
  155.9824  137.2791  191.1399 C   0  0  0  0  0  0  0  0  0  0  0  0
  156.2303  136.4011  190.1067 C   0  0  0  0  0  0  0  0  0  0  0  0
  156.9376  135.2435  190.3341 C   0  0  0  0  0  0  0  0  0  0  0  0
  157.2137  134.3377  189.3530 N   0  0  0  0  0  0  0  0  0  0  0  0
  156.7846  134.5675  188.1005 C   0  0  0  0  0  0  0  0  0  0  0  0
  156.0684  135.7302  187.8477 C   0  0  0  0  0  0  0  0  0  0  0  0
  155.7783  136.6558  188.8175 C   0  0  0  0  0  0  0  0  0  0  0  0
  155.5888  139.1885  183.8365 C   0  0  0  0  0  0  0  0  0  0  0  0
  156.6736  141.2708  183.1815 C   0  0  0  0  0  0  0  0  0  0  0  0
  156.5770  142.6287  182.8461 C   0  0  0  0  0  0  0  0  0  0  0  0
  155.3961  143.3157  182.8071 C   0  0  0  0  0  0  0  0  0  0  0  0
  154.2295  142.6427  183.1136 C   0  0  0  0  0  0  0  0  0  0  0  0
  154.3197  141.3167  183.4415 C   0  0  0  0  0  0  0  0  0  0  0  0
  155.5076  140.5956  183.4884 C   0  0  0  0  0  0  0  0  0  0  0  0
  158.4207  140.3511  184.4567 F   0  0  0  0  0  0  0  0  0  0  0  0
  158.0280  140.6654  183.1816 C   0  0  0  0  0  0  0  0  0  0  0  0
  158.9433  141.5687  182.6798 F   0  0  0  0  0  0  0  0  0  0  0  0
  158.1207  139.5523  182.3684 F   0  0  0  0  0  0  0  0  0  0  0  0
 24 25  1  0  0  0
 25 26  1  0  0  0
 25 27  1  0  0  0
 25 18  1  0  0  0
 18 19  2  0  0  0
 19 20  1  0  0  0
 20 21  2  0  0  0
 21 22  1  0  0  0
 22 23  2  0  0  0
 23 17  1  0  0  0
 17  1  1  0  0  0
  1  2  1  0  0  0
  2  3  2  0  0  0
  2  4  1  0  0  0
  4  7  1  0  0  0
  7  8  2  0  0  0
  8  9  1  0  0  0
  9 10  2  0  0  0
 10 11  1  0  0  0
 11 12  2  0  0  0
 12 13  1  0  0  0
 13 14  2  0  0  0
 14 15  1  0  0  0
 15 16  2  0  0  0
 23 18  1  0  0  0
 16  7  1  0  0  0
 16 11  1  0  0  0
  1  5  1  0  0  0
  4  6  1  0  0  0
M  END
> <minimizedAffinity>
-7.61514

> <CNNscore>
0.3758448362

> <CNNaffinity>
5.4094820023

> <CNN_VS>
2.0331258774

> <CNNaffinity_variance>
0.0545764193

$$$$
[H]c1nc([H])c2c([H])c([H])c([H])c(N([H])C(=O)N([H])C([H])([H])c3c([H])c([H])c([H])c([H])c3C(F)(F)F)c2c1[H]


 27 29  0  0  0  0  0  0  0  0999 V2000
  155.1045  141.1020  181.6520 N   0  0  0  0  0  0  0  0  0  0  0  0
  155.9368  142.1348  182.2375 C   0  0  0  0  0  0  0  0  0  0  0  0
  155.3804  142.8805  183.0418 O   0  0  0  0  0  0  0  0  0  0  0  0
  157.2965  142.2570  181.8908 N   0  0  0  0  0  0  0  0  0  0  0  0
  155.6013  140.4887  180.9775 H   0  0  0  0  0  0  0  0  0  0  0  0
  157.6003  141.5249  181.1811 H   0  0  0  0  0  0  0  0  0  0  0  0
  158.2249  143.1931  182.3641 C   0  0  0  0  0  0  0  0  0  0  0  0
  158.4128  144.4110  181.7546 C   0  0  0  0  0  0  0  0  0  0  0  0
  159.3578  145.3021  182.2784 C   0  0  0  0  0  0  0  0  0  0  0  0
  160.0924  144.9682  183.3895 C   0  0  0  0  0  0  0  0  0  0  0  0
  159.8963  143.7446  183.9930 C   0  0  0  0  0  0  0  0  0  0  0  0
  160.6242  143.3953  185.1066 C   0  0  0  0  0  0  0  0  0  0  0  0
  160.4745  142.2004  185.7462 N   0  0  0  0  0  0  0  0  0  0  0  0
  159.5809  141.3098  185.2838 C   0  0  0  0  0  0  0  0  0  0  0  0
  158.8347  141.6412  184.1604 C   0  0  0  0  0  0  0  0  0  0  0  0
  158.9672  142.8362  183.5002 C   0  0  0  0  0  0  0  0  0  0  0  0
  153.7491  141.0611  182.0649 C   0  0  0  0  0  0  0  0  0  0  0  0
  152.2854  139.1359  181.7603 C   0  0  0  0  0  0  0  0  0  0  0  0
  151.7891  137.9108  182.2280 C   0  0  0  0  0  0  0  0  0  0  0  0
  152.1823  137.3349  183.4034 C   0  0  0  0  0  0  0  0  0  0  0  0
  153.1196  137.9893  184.1789 C   0  0  0  0  0  0  0  0  0  0  0  0
  153.6066  139.1856  183.7257 C   0  0  0  0  0  0  0  0  0  0  0  0
  153.2232  139.7920  182.5346 C   0  0  0  0  0  0  0  0  0  0  0  0
  151.0870  140.8151  180.6341 F   0  0  0  0  0  0  0  0  0  0  0  0
  151.7592  139.6325  180.4652 C   0  0  0  0  0  0  0  0  0  0  0  0
  150.8632  138.7204  179.9446 F   0  0  0  0  0  0  0  0  0  0  0  0
  152.7415  139.7778  179.5046 F   0  0  0  0  0  0  0  0  0  0  0  0
 24 25  1  0  0  0
 25 26  1  0  0  0
 25 27  1  0  0  0
 25 18  1  0  0  0
 18 19  2  0  0  0
 19 20  1  0  0  0
 20 21  2  0  0  0
 21 22  1  0  0  0
 22 23  2  0  0  0
 23 17  1  0  0  0
 17  1  1  0  0  0
  1  2  1  0  0  0
  2  3  2  0  0  0
  2  4  1  0  0  0
  4  7  1  0  0  0
  7  8  2  0  0  0
  8  9  1  0  0  0
  9 10  2  0  0  0
 10 11  1  0  0  0
 11 12  2  0  0  0
 12 13  1  0  0  0
 13 14  2  0  0  0
 14 15  1  0  0  0
 15 16  2  0  0  0
 23 18  1  0  0  0
 16  7  1  0  0  0
 16 11  1  0  0  0
  1  5  1  0  0  0
  4  6  1  0  0  0
M  END
> <minimizedAffinity>
-8.47205

> <CNNscore>
0.3726517558

> <CNNaffinity>
5.9057154655

> <CNN_VS>
2.2007751465

> <CNNaffinity_variance>
0.0712722540

$$$$
[H]c1nc([H])c2c([H])c([H])c([H])c(N([H])C(=O)N([H])C([H])([H])c3c([H])c([H])c([H])c([H])c3C(F)(F)F)c2c1[H]


 27 29  0  0  0  0  0  0  0  0999 V2000
  155.9919  140.0301  183.1722 N   0  0  0  0  0  0  0  0  0  0  0  0
  154.5813  139.7501  183.3566 C   0  0  0  0  0  0  0  0  0  0  0  0
  154.0066  140.4271  184.2074 O   0  0  0  0  0  0  0  0  0  0  0  0
  153.9309  138.7588  182.5963 N   0  0  0  0  0  0  0  0  0  0  0  0
  156.4496  139.4434  182.4481 H   0  0  0  0  0  0  0  0  0  0  0  0
  154.5881  138.2783  181.9113 H   0  0  0  0  0  0  0  0  0  0  0  0
  152.5855  138.3728  182.6555 C   0  0  0  0  0  0  0  0  0  0  0  0
  152.0828  137.6266  183.6949 C   0  0  0  0  0  0  0  0  0  0  0  0
  150.7274  137.2736  183.6935 C   0  0  0  0  0  0  0  0  0  0  0  0
  149.9041  137.6660  182.6670 C   0  0  0  0  0  0  0  0  0  0  0  0
  150.4183  138.4140  181.6296 C   0  0  0  0  0  0  0  0  0  0  0  0
  149.6067  138.8148  180.5940 C   0  0  0  0  0  0  0  0  0  0  0  0
  150.0576  139.5553  179.5416 N   0  0  0  0  0  0  0  0  0  0  0  0
  151.3501  139.9202  179.4949 C   0  0  0  0  0  0  0  0  0  0  0  0
  152.1881  139.5266  180.5300 C   0  0  0  0  0  0  0  0  0  0  0  0
  151.7580  138.7820  181.5987 C   0  0  0  0  0  0  0  0  0  0  0  0
  156.5548  141.0458  183.9850 C   0  0  0  0  0  0  0  0  0  0  0  0
  158.5396  142.2248  183.2024 C   0  0  0  0  0  0  0  0  0  0  0  0
  159.1107  143.3305  182.5565 C   0  0  0  0  0  0  0  0  0  0  0  0
  158.3812  144.3646  182.0405 C   0  0  0  0  0  0  0  0  0  0  0  0
  157.0054  144.3260  182.1576 C   0  0  0  0  0  0  0  0  0  0  0  0
  156.4440  143.2480  182.7875 C   0  0  0  0  0  0  0  0  0  0  0  0
  157.1635  142.1842  183.3204 C   0  0  0  0  0  0  0  0  0  0  0  0
  159.3813  141.0821  185.0759 F   0  0  0  0  0  0  0  0  0  0  0  0
  159.4645  141.1825  183.7113 C   0  0  0  0  0  0  0  0  0  0  0  0
  160.7663  141.5221  183.4022 F   0  0  0  0  0  0  0  0  0  0  0  0
  159.2554  139.9464  183.1307 F   0  0  0  0  0  0  0  0  0  0  0  0
 24 25  1  0  0  0
 25 26  1  0  0  0
 25 27  1  0  0  0
 25 18  1  0  0  0
 18 19  2  0  0  0
 19 20  1  0  0  0
 20 21  2  0  0  0
 21 22  1  0  0  0
 22 23  2  0  0  0
 23 17  1  0  0  0
 17  1  1  0  0  0
  1  2  1  0  0  0
  2  3  2  0  0  0
  2  4  1  0  0  0
  4  7  1  0  0  0
  7  8  2  0  0  0
  8  9  1  0  0  0
  9 10  2  0  0  0
 10 11  1  0  0  0
 11 12  2  0  0  0
 12 13  1  0  0  0
 13 14  2  0  0  0
 14 15  1  0  0  0
 15 16  2  0  0  0
 23 18  1  0  0  0
 16  7  1  0  0  0
 16 11  1  0  0  0
  1  5  1  0  0  0
  4  6  1  0  0  0
M  END
> <minimizedAffinity>
-7.63392

> <CNNscore>
0.3605544269

> <CNNaffinity>
5.7142839432

> <CNN_VS>
2.0603103638

> <CNNaffinity_variance>
0.0777339414

$$$$
[H]c1c(C(F)(F)F)nc(SC2([H])C([H])([H])C([H])([H])C2([H])[H])c(C([H])([H])N([H])C(=O)C([H])(c2c([H])c([H])c(N([H])S(=O)(=O)C([H])([H])[H])c(F)c2[H])C([H])([H])[H])c1[H]


 35 37  0  0  0  0  0  0  0  0999 V2000
  155.1516  138.9422  185.2253 C   0  0  0  0  0  0  0  0  0  0  0  0
  154.0647  139.4424  185.1698 O   0  0  0  0  0  0  0  0  0  0  0  0
  156.3055  139.4614  184.6685 N   0  0  0  0  0  0  0  0  0  0  0  0
  157.2202  138.9269  184.9642 H   0  0  0  0  0  0  0  0  0  0  0  0
  154.2206  136.7713  185.2665 C   0  0  0  0  0  0  0  0  0  0  0  0
  155.3656  137.5960  185.9218 C   0  0  0  0  0  0  0  0  0  0  0  0
  155.1115  137.6214  187.3636 C   0  0  0  0  0  0  0  0  0  0  0  0
  153.7737  137.3739  187.7380 C   0  0  0  0  0  0  0  0  0  0  0  0
  153.4168  137.4441  189.0800 C   0  0  0  0  0  0  0  0  0  0  0  0
  154.3098  137.7405  190.0812 C   0  0  0  0  0  0  0  0  0  0  0  0
  155.5941  137.9670  189.6833 C   0  0  0  0  0  0  0  0  0  0  0  0
  156.5317  138.2643  190.5887 F   0  0  0  0  0  0  0  0  0  0  0  0
  156.0117  137.9126  188.3532 C   0  0  0  0  0  0  0  0  0  0  0  0
  153.8593  137.8840  191.4246 N   0  0  0  0  0  0  0  0  0  0  0  0
  154.2788  138.7483  191.9232 H   0  0  0  0  0  0  0  0  0  0  0  0
  152.7834  136.9217  192.2894 S   0  0  0  0  0  0  0  0  0  0  0  0
  151.4310  136.2506  191.4119 C   0  0  0  0  0  0  0  0  0  0  0  0
  152.2058  137.7819  193.4165 O   0  0  0  0  0  0  0  0  0  0  0  0
  153.4596  135.7703  193.0247 O   0  0  0  0  0  0  0  0  0  0  0  0
  156.6008  140.6021  183.7811 C   0  0  0  0  0  0  0  0  0  0  0  0
  158.0184  140.9785  184.2100 C   0  0  0  0  0  0  0  0  0  0  0  0
  158.3141  141.3119  185.4780 C   0  0  0  0  0  0  0  0  0  0  0  0
  159.6080  141.7986  185.7581 C   0  0  0  0  0  0  0  0  0  0  0  0
  160.4999  141.9040  184.7318 C   0  0  0  0  0  0  0  0  0  0  0  0
  160.1510  141.5448  183.4835 N   0  0  0  0  0  0  0  0  0  0  0  0
  158.9418  141.0791  183.1575 C   0  0  0  0  0  0  0  0  0  0  0  0
  161.8436  142.5136  185.0320 C   0  0  0  0  0  0  0  0  0  0  0  0
  162.1477  142.3406  186.3716 F   0  0  0  0  0  0  0  0  0  0  0  0
  161.8487  143.8208  184.7138 F   0  0  0  0  0  0  0  0  0  0  0  0
  162.7969  141.8509  184.2461 F   0  0  0  0  0  0  0  0  0  0  0  0
  158.4389  140.5776  181.5189 S   0  0  0  0  0  0  0  0  0  0  0  0
  157.6287  141.9375  180.6630 C   0  0  0  0  0  0  0  0  0  0  0  0
  158.0036  143.3339  181.1594 C   0  0  0  0  0  0  0  0  0  0  0  0
  159.1457  143.3776  180.1755 C   0  0  0  0  0  0  0  0  0  0  0  0
  158.4060  142.3342  179.3773 C   0  0  0  0  0  0  0  0  0  0  0  0
  5  6  1  0  0  0
  6  1  1  0  0  0
  1  2  2  0  0  0
  1  3  1  0  0  0
  3 20  1  0  0  0
 20 21  1  0  0  0
 21 22  2  0  0  0
 22 23  1  0  0  0
 23 24  2  0  0  0
 24 25  1  0  0  0
 25 26  2  0  0  0
 26 31  1  0  0  0
 31 32  1  0  0  0
 32 33  1  0  0  0
 33 34  1  0  0  0
 34 35  1  0  0  0
 24 27  1  0  0  0
 27 28  1  0  0  0
 27 29  1  0  0  0
 27 30  1  0  0  0
  6  7  1  0  0  0
  7  8  2  0  0  0
  8  9  1  0  0  0
  9 10  2  0  0  0
 10 14  1  0  0  0
 14 16  1  0  0  0
 16 17  1  0  0  0
 16 18  2  0  0  0
 16 19  2  0  0  0
 10 11  1  0  0  0
 11 12  1  0  0  0
 11 13  2  0  0  0
 26 21  1  0  0  0
 35 32  1  0  0  0
 13  7  1  0  0  0
  3  4  1  0  0  0
 14 15  1  0  0  0
M  END
> <minimizedAffinity>
-9.43435

> <CNNscore>
0.5205744505

> <CNNaffinity>
6.6574797630

> <CNN_VS>
3.4657139778

> <CNNaffinity_variance>
0.1026595831

$$$$
[H]c1c(C(F)(F)F)nc(SC2([H])C([H])([H])C([H])([H])C2([H])[H])c(C([H])([H])N([H])C(=O)C([H])(c2c([H])c([H])c(N([H])S(=O)(=O)C([H])([H])[H])c(F)c2[H])C([H])([H])[H])c1[H]


 35 37  0  0  0  0  0  0  0  0999 V2000
  154.1602  139.4749  183.7904 C   0  0  0  0  0  0  0  0  0  0  0  0
  153.5229  138.9365  182.9309 O   0  0  0  0  0  0  0  0  0  0  0  0
  154.6068  138.8777  184.9544 N   0  0  0  0  0  0  0  0  0  0  0  0
  155.3018  139.5020  185.5350 H   0  0  0  0  0  0  0  0  0  0  0  0
  153.9411  141.2821  182.2846 C   0  0  0  0  0  0  0  0  0  0  0  0
  154.5253  140.9581  183.6898 C   0  0  0  0  0  0  0  0  0  0  0  0
  155.9652  141.2171  183.6311 C   0  0  0  0  0  0  0  0  0  0  0  0
  156.7586  140.3568  184.4194 C   0  0  0  0  0  0  0  0  0  0  0  0
  158.1319  140.5646  184.4851 C   0  0  0  0  0  0  0  0  0  0  0  0
  158.7728  141.5747  183.8095 C   0  0  0  0  0  0  0  0  0  0  0  0
  157.9758  142.3818  183.0529 C   0  0  0  0  0  0  0  0  0  0  0  0
  158.5122  143.3927  182.3618 F   0  0  0  0  0  0  0  0  0  0  0  0
  156.5934  142.2243  182.9489 C   0  0  0  0  0  0  0  0  0  0  0  0
  160.1694  141.7858  183.9917 N   0  0  0  0  0  0  0  0  0  0  0  0
  160.7763  141.2663  183.2614 H   0  0  0  0  0  0  0  0  0  0  0  0
  160.9572  142.7217  185.1470 S   0  0  0  0  0  0  0  0  0  0  0  0
  160.2776  142.7420  186.7555 C   0  0  0  0  0  0  0  0  0  0  0  0
  160.9578  144.1667  184.6409 O   0  0  0  0  0  0  0  0  0  0  0  0
  162.4379  142.3881  185.2875 O   0  0  0  0  0  0  0  0  0  0  0  0
  154.3874  137.5654  185.5914 C   0  0  0  0  0  0  0  0  0  0  0  0
  154.6317  137.8841  187.0658 C   0  0  0  0  0  0  0  0  0  0  0  0
  155.8688  138.0588  187.5613 C   0  0  0  0  0  0  0  0  0  0  0  0
  156.0183  138.1918  188.9576 C   0  0  0  0  0  0  0  0  0  0  0  0
  154.9019  138.1416  189.7392 C   0  0  0  0  0  0  0  0  0  0  0  0
  153.6872  137.9753  189.1862 N   0  0  0  0  0  0  0  0  0  0  0  0
  153.4836  137.8425  187.8723 C   0  0  0  0  0  0  0  0  0  0  0  0
  155.0901  138.1902  191.2324 C   0  0  0  0  0  0  0  0  0  0  0  0
  154.9484  139.4926  191.6803 F   0  0  0  0  0  0  0  0  0  0  0  0
  156.2990  137.7059  191.5701 F   0  0  0  0  0  0  0  0  0  0  0  0
  154.0998  137.3852  191.8127 F   0  0  0  0  0  0  0  0  0  0  0  0
  151.8901  137.6340  187.0932 S   0  0  0  0  0  0  0  0  0  0  0  0
  151.3602  135.9170  187.1889 C   0  0  0  0  0  0  0  0  0  0  0  0
  151.9989  135.1009  188.3128 C   0  0  0  0  0  0  0  0  0  0  0  0
  150.8854  135.5103  189.2437 C   0  0  0  0  0  0  0  0  0  0  0  0
  150.0521  135.7785  188.0162 C   0  0  0  0  0  0  0  0  0  0  0  0
  5  6  1  0  0  0
  6  1  1  0  0  0
  1  2  2  0  0  0
  1  3  1  0  0  0
  3 20  1  0  0  0
 20 21  1  0  0  0
 21 22  2  0  0  0
 22 23  1  0  0  0
 23 24  2  0  0  0
 24 25  1  0  0  0
 25 26  2  0  0  0
 26 31  1  0  0  0
 31 32  1  0  0  0
 32 33  1  0  0  0
 33 34  1  0  0  0
 34 35  1  0  0  0
 24 27  1  0  0  0
 27 28  1  0  0  0
 27 29  1  0  0  0
 27 30  1  0  0  0
  6  7  1  0  0  0
  7  8  2  0  0  0
  8  9  1  0  0  0
  9 10  2  0  0  0
 10 14  1  0  0  0
 14 16  1  0  0  0
 16 17  1  0  0  0
 16 18  2  0  0  0
 16 19  2  0  0  0
 10 11  1  0  0  0
 11 12  1  0  0  0
 11 13  2  0  0  0
 26 21  1  0  0  0
 35 32  1  0  0  0
 13  7  1  0  0  0
  3  4  1  0  0  0
 14 15  1  0  0  0
M  END
> <minimizedAffinity>
-8.64164

> <CNNscore>
0.5129218698

> <CNNaffinity>
6.7289991379

> <CNN_VS>
3.4514508247

> <CNNaffinity_variance>
0.1001659185

$$$$
[H]c1c(C(F)(F)F)nc(SC2([H])C([H])([H])C([H])([H])C2([H])[H])c(C([H])([H])N([H])C(=O)C([H])(c2c([H])c([H])c(N([H])S(=O)(=O)C([H])([H])[H])c(F)c2[H])C([H])([H])[H])c1[H]


 35 37  0  0  0  0  0  0  0  0999 V2000
  154.8917  137.4194  186.3240 C   0  0  0  0  0  0  0  0  0  0  0  0
  154.3112  136.4641  185.8938 O   0  0  0  0  0  0  0  0  0  0  0  0
  154.7722  138.7132  185.8519 N   0  0  0  0  0  0  0  0  0  0  0  0
  155.2722  139.4635  186.4819 H   0  0  0  0  0  0  0  0  0  0  0  0
  156.3576  135.8124  187.2457 C   0  0  0  0  0  0  0  0  0  0  0  0
  155.8970  137.2814  187.4701 C   0  0  0  0  0  0  0  0  0  0  0  0
  155.2966  137.3488  188.8039 C   0  0  0  0  0  0  0  0  0  0  0  0
  154.4886  136.2453  189.1507 C   0  0  0  0  0  0  0  0  0  0  0  0
  153.8185  136.2466  190.3691 C   0  0  0  0  0  0  0  0  0  0  0  0
  153.9044  137.2773  191.2735 C   0  0  0  0  0  0  0  0  0  0  0  0
  154.6991  138.3232  190.9078 C   0  0  0  0  0  0  0  0  0  0  0  0
  154.8411  139.3721  191.7246 F   0  0  0  0  0  0  0  0  0  0  0  0
  155.3942  138.3798  189.6995 C   0  0  0  0  0  0  0  0  0  0  0  0
  153.1216  137.2547  192.4630 N   0  0  0  0  0  0  0  0  0  0  0  0
  153.2917  138.1133  193.0998 H   0  0  0  0  0  0  0  0  0  0  0  0
  151.9966  136.1103  192.9688 S   0  0  0  0  0  0  0  0  0  0  0  0
  150.4361  136.1254  192.1854 C   0  0  0  0  0  0  0  0  0  0  0  0
  151.7520  136.3397  194.4627 O   0  0  0  0  0  0  0  0  0  0  0  0
  152.5193  134.6798  192.9045 O   0  0  0  0  0  0  0  0  0  0  0  0
  154.0930  139.3326  184.6981 C   0  0  0  0  0  0  0  0  0  0  0  0
  155.2732  139.7416  183.8178 C   0  0  0  0  0  0  0  0  0  0  0  0
  156.5469  139.5228  184.1872 C   0  0  0  0  0  0  0  0  0  0  0  0
  157.5774  140.0709  183.3952 C   0  0  0  0  0  0  0  0  0  0  0  0
  157.2348  140.7929  182.2902 C   0  0  0  0  0  0  0  0  0  0  0  0
  155.9422  140.9701  181.9632 N   0  0  0  0  0  0  0  0  0  0  0  0
  154.9241  140.4771  182.6743 C   0  0  0  0  0  0  0  0  0  0  0  0
  158.3438  141.4491  181.5112 C   0  0  0  0  0  0  0  0  0  0  0  0
  159.4240  141.6870  182.3440 F   0  0  0  0  0  0  0  0  0  0  0  0
  157.9144  142.5980  180.9584 F   0  0  0  0  0  0  0  0  0  0  0  0
  158.7255  140.5681  180.4896 F   0  0  0  0  0  0  0  0  0  0  0  0
  153.1956  140.6750  182.2713 S   0  0  0  0  0  0  0  0  0  0  0  0
  152.5956  139.2522  181.3473 C   0  0  0  0  0  0  0  0  0  0  0  0
  151.1249  138.9022  181.5746 C   0  0  0  0  0  0  0  0  0  0  0  0
  150.7313  139.8193  180.4440 C   0  0  0  0  0  0  0  0  0  0  0  0
  152.1364  139.6626  179.9205 C   0  0  0  0  0  0  0  0  0  0  0  0
  5  6  1  0  0  0
  6  1  1  0  0  0
  1  2  2  0  0  0
  1  3  1  0  0  0
  3 20  1  0  0  0
 20 21  1  0  0  0
 21 22  2  0  0  0
 22 23  1  0  0  0
 23 24  2  0  0  0
 24 25  1  0  0  0
 25 26  2  0  0  0
 26 31  1  0  0  0
 31 32  1  0  0  0
 32 33  1  0  0  0
 33 34  1  0  0  0
 34 35  1  0  0  0
 24 27  1  0  0  0
 27 28  1  0  0  0
 27 29  1  0  0  0
 27 30  1  0  0  0
  6  7  1  0  0  0
  7  8  2  0  0  0
  8  9  1  0  0  0
  9 10  2  0  0  0
 10 14  1  0  0  0
 14 16  1  0  0  0
 16 17  1  0  0  0
 16 18  2  0  0  0
 16 19  2  0  0  0
 10 11  1  0  0  0
 11 12  1  0  0  0
 11 13  2  0  0  0
 26 21  1  0  0  0
 35 32  1  0  0  0
 13  7  1  0  0  0
  3  4  1  0  0  0
 14 15  1  0  0  0
M  END
> <minimizedAffinity>
-8.04298

> <CNNscore>
0.4268065095

> <CNNaffinity>
6.1981701851

> <CNN_VS>
2.6454193592

> <CNNaffinity_variance>
0.0576253124

$$$$
[H]c1c(C(F)(F)F)nc(SC2([H])C([H])([H])C([H])([H])C2([H])[H])c(C([H])([H])N([H])C(=O)C([H])(c2c([H])c([H])c(N([H])S(=O)(=O)C([H])([H])[H])c(F)c2[H])C([H])([H])[H])c1[H]


 35 37  0  0  0  0  0  0  0  0999 V2000
  154.8884  139.3321  184.2972 C   0  0  0  0  0  0  0  0  0  0  0  0
  153.9741  140.1020  184.3757 O   0  0  0  0  0  0  0  0  0  0  0  0
  156.0900  139.5728  183.6574 N   0  0  0  0  0  0  0  0  0  0  0  0
  156.8493  138.7965  183.8328 H   0  0  0  0  0  0  0  0  0  0  0  0
  153.3931  137.5042  184.3595 C   0  0  0  0  0  0  0  0  0  0  0  0
  154.7903  137.9273  184.8974 C   0  0  0  0  0  0  0  0  0  0  0  0
  154.7171  137.9053  186.3596 C   0  0  0  0  0  0  0  0  0  0  0  0
  155.9553  138.0478  187.0210 C   0  0  0  0  0  0  0  0  0  0  0  0
  156.0003  137.9710  188.4087 C   0  0  0  0  0  0  0  0  0  0  0  0
  154.8867  137.7663  189.1870 C   0  0  0  0  0  0  0  0  0  0  0  0
  153.7074  137.6399  188.5145 C   0  0  0  0  0  0  0  0  0  0  0  0
  152.5715  137.4364  189.1895 F   0  0  0  0  0  0  0  0  0  0  0  0
  153.5995  137.7062  187.1250 C   0  0  0  0  0  0  0  0  0  0  0  0
  155.0161  137.6087  190.5965 N   0  0  0  0  0  0  0  0  0  0  0  0
  154.8286  138.5229  191.1450 H   0  0  0  0  0  0  0  0  0  0  0  0
  155.3921  136.2253  191.4774 S   0  0  0  0  0  0  0  0  0  0  0  0
  154.1760  135.6254  192.5776 C   0  0  0  0  0  0  0  0  0  0  0  0
  156.6371  136.5394  192.3113 O   0  0  0  0  0  0  0  0  0  0  0  0
  155.8282  135.0537  190.6053 O   0  0  0  0  0  0  0  0  0  0  0  0
  156.6067  140.6614  182.8065 C   0  0  0  0  0  0  0  0  0  0  0  0
  157.9295  140.9994  183.4929 C   0  0  0  0  0  0  0  0  0  0  0  0
  158.0163  141.1818  184.8216 C   0  0  0  0  0  0  0  0  0  0  0  0
  159.2366  141.6458  185.3556 C   0  0  0  0  0  0  0  0  0  0  0  0
  160.2724  141.8833  184.5009 C   0  0  0  0  0  0  0  0  0  0  0  0
  160.1307  141.6724  183.1801 N   0  0  0  0  0  0  0  0  0  0  0  0
  159.0005  141.2357  182.6169 C   0  0  0  0  0  0  0  0  0  0  0  0
  161.5351  142.4675  185.0767 C   0  0  0  0  0  0  0  0  0  0  0  0
  162.6377  141.8683  184.4917 F   0  0  0  0  0  0  0  0  0  0  0  0
  161.5635  142.3028  186.4116 F   0  0  0  0  0  0  0  0  0  0  0  0
  161.5397  143.8394  184.7880 F   0  0  0  0  0  0  0  0  0  0  0  0
  158.7712  140.9286  180.8726 S   0  0  0  0  0  0  0  0  0  0  0  0
  158.1579  142.4050  180.0466 C   0  0  0  0  0  0  0  0  0  0  0  0
  157.8576  143.5880  180.9672 C   0  0  0  0  0  0  0  0  0  0  0  0
  159.2769  144.0725  180.8084 C   0  0  0  0  0  0  0  0  0  0  0  0
  159.3287  143.2835  179.5247 C   0  0  0  0  0  0  0  0  0  0  0  0
  5  6  1  0  0  0
  6  1  1  0  0  0
  1  2  2  0  0  0
  1  3  1  0  0  0
  3 20  1  0  0  0
 20 21  1  0  0  0
 21 22  2  0  0  0
 22 23  1  0  0  0
 23 24  2  0  0  0
 24 25  1  0  0  0
 25 26  2  0  0  0
 26 31  1  0  0  0
 31 32  1  0  0  0
 32 33  1  0  0  0
 33 34  1  0  0  0
 34 35  1  0  0  0
 24 27  1  0  0  0
 27 28  1  0  0  0
 27 29  1  0  0  0
 27 30  1  0  0  0
  6  7  1  0  0  0
  7  8  2  0  0  0
  8  9  1  0  0  0
  9 10  2  0  0  0
 10 14  1  0  0  0
 14 16  1  0  0  0
 16 17  1  0  0  0
 16 18  2  0  0  0
 16 19  2  0  0  0
 10 11  1  0  0  0
 11 12  1  0  0  0
 11 13  2  0  0  0
 26 21  1  0  0  0
 35 32  1  0  0  0
 13  7  1  0  0  0
  3  4  1  0  0  0
 14 15  1  0  0  0
M  END
> <minimizedAffinity>
-9.16528

> <CNNscore>
0.4145375490

> <CNNaffinity>
6.6996583939

> <CNN_VS>
2.7772600651

> <CNNaffinity_variance>
0.1419461519

$$$$
[H]c1c(C(F)(F)F)nc(SC2([H])C([H])([H])C([H])([H])C2([H])[H])c(C([H])([H])N([H])C(=O)C([H])(c2c([H])c([H])c(N([H])S(=O)(=O)C([H])([H])[H])c(F)c2[H])C([H])([H])[H])c1[H]


 35 37  0  0  0  0  0  0  0  0999 V2000
  153.9561  139.1426  183.8263 C   0  0  0  0  0  0  0  0  0  0  0  0
  153.6991  138.5761  182.8026 O   0  0  0  0  0  0  0  0  0  0  0  0
  153.9677  138.5670  185.0831 N   0  0  0  0  0  0  0  0  0  0  0  0
  154.3772  139.2211  185.8669 H   0  0  0  0  0  0  0  0  0  0  0  0
  153.7867  141.0305  182.4163 C   0  0  0  0  0  0  0  0  0  0  0  0
  154.2755  140.6396  183.8407 C   0  0  0  0  0  0  0  0  0  0  0  0
  155.7059  140.9454  183.9076 C   0  0  0  0  0  0  0  0  0  0  0  0
  156.0642  142.2275  183.4399 C   0  0  0  0  0  0  0  0  0  0  0  0
  157.4066  142.5879  183.3982 C   0  0  0  0  0  0  0  0  0  0  0  0
  158.4220  141.7536  183.7990 C   0  0  0  0  0  0  0  0  0  0  0  0
  158.0381  140.5259  184.2511 C   0  0  0  0  0  0  0  0  0  0  0  0
  158.9583  139.6467  184.6604 F   0  0  0  0  0  0  0  0  0  0  0  0
  156.7088  140.1070  184.3148 C   0  0  0  0  0  0  0  0  0  0  0  0
  159.7805  142.1527  183.6461 N   0  0  0  0  0  0  0  0  0  0  0  0
  160.1328  142.0781  182.6253 H   0  0  0  0  0  0  0  0  0  0  0  0
  160.8549  142.7204  184.8099 S   0  0  0  0  0  0  0  0  0  0  0  0
  160.3947  142.5251  186.4830 C   0  0  0  0  0  0  0  0  0  0  0  0
  161.0407  144.2206  184.5668 O   0  0  0  0  0  0  0  0  0  0  0  0
  162.2622  142.1538  184.6605 O   0  0  0  0  0  0  0  0  0  0  0  0
  153.5807  137.2479  185.6182 C   0  0  0  0  0  0  0  0  0  0  0  0
  153.9266  137.3930  187.0996 C   0  0  0  0  0  0  0  0  0  0  0  0
  153.6706  138.5212  187.7837 C   0  0  0  0  0  0  0  0  0  0  0  0
  154.1631  138.6320  189.1008 C   0  0  0  0  0  0  0  0  0  0  0  0
  154.8714  137.5889  189.6206 C   0  0  0  0  0  0  0  0  0  0  0  0
  155.0875  136.4791  188.8922 N   0  0  0  0  0  0  0  0  0  0  0  0
  154.6478  136.3172  187.6409 C   0  0  0  0  0  0  0  0  0  0  0  0
  155.4691  137.7629  190.9916 C   0  0  0  0  0  0  0  0  0  0  0  0
  156.5353  138.6441  190.9294 F   0  0  0  0  0  0  0  0  0  0  0  0
  155.8681  136.5765  191.4848 F   0  0  0  0  0  0  0  0  0  0  0  0
  154.4738  138.2904  191.8262 F   0  0  0  0  0  0  0  0  0  0  0  0
  154.8986  134.8581  186.6421 S   0  0  0  0  0  0  0  0  0  0  0  0
  156.0557  133.7361  187.4424 C   0  0  0  0  0  0  0  0  0  0  0  0
  155.6197  132.2714  187.4817 C   0  0  0  0  0  0  0  0  0  0  0  0
  156.2901  132.0355  186.1516 C   0  0  0  0  0  0  0  0  0  0  0  0
  157.1415  133.2446  186.4453 C   0  0  0  0  0  0  0  0  0  0  0  0
  5  6  1  0  0  0
  6  1  1  0  0  0
  1  2  2  0  0  0
  1  3  1  0  0  0
  3 20  1  0  0  0
 20 21  1  0  0  0
 21 22  2  0  0  0
 22 23  1  0  0  0
 23 24  2  0  0  0
 24 25  1  0  0  0
 25 26  2  0  0  0
 26 31  1  0  0  0
 31 32  1  0  0  0
 32 33  1  0  0  0
 33 34  1  0  0  0
 34 35  1  0  0  0
 24 27  1  0  0  0
 27 28  1  0  0  0
 27 29  1  0  0  0
 27 30  1  0  0  0
  6  7  1  0  0  0
  7  8  2  0  0  0
  8  9  1  0  0  0
  9 10  2  0  0  0
 10 14  1  0  0  0
 14 16  1  0  0  0
 16 17  1  0  0  0
 16 18  2  0  0  0
 16 19  2  0  0  0
 10 11  1  0  0  0
 11 12  1  0  0  0
 11 13  2  0  0  0
 26 21  1  0  0  0
 35 32  1  0  0  0
 13  7  1  0  0  0
  3  4  1  0  0  0
 14 15  1  0  0  0
M  END
> <minimizedAffinity>
-7.89039

> <CNNscore>
0.3971644342

> <CNNaffinity>
6.6886048317

> <CNN_VS>
2.6564760208

> <CNNaffinity_variance>
0.1089177877

$$$$
[H]c1c(C(F)(F)F)nc(SC2([H])C([H])([H])C([H])([H])C2([H])[H])c(C([H])([H])N([H])C(=O)C([H])(c2c([H])c([H])c(N([H])S(=O)(=O)C([H])([H])[H])c(F)c2[H])C([H])([H])[H])c1[H]


 35 37  0  0  0  0  0  0  0  0999 V2000
  153.4384  137.9764  186.2637 C   0  0  0  0  0  0  0  0  0  0  0  0
  152.9213  138.7506  187.0174 O   0  0  0  0  0  0  0  0  0  0  0  0
  153.9350  136.7320  186.6042 N   0  0  0  0  0  0  0  0  0  0  0  0
  154.2287  136.1195  185.7391 H   0  0  0  0  0  0  0  0  0  0  0  0
  154.1449  136.9564  184.2534 C   0  0  0  0  0  0  0  0  0  0  0  0
  153.6392  138.3274  184.7873 C   0  0  0  0  0  0  0  0  0  0  0  0
  154.7008  139.3060  184.5441 C   0  0  0  0  0  0  0  0  0  0  0  0
  154.3288  140.4014  183.7362 C   0  0  0  0  0  0  0  0  0  0  0  0
  155.2849  141.3500  183.3907 C   0  0  0  0  0  0  0  0  0  0  0  0
  156.5937  141.2835  183.8032 C   0  0  0  0  0  0  0  0  0  0  0  0
  156.9153  140.2157  184.5876 C   0  0  0  0  0  0  0  0  0  0  0  0
  158.1665  140.0675  185.0347 F   0  0  0  0  0  0  0  0  0  0  0  0
  156.0013  139.2317  184.9659 C   0  0  0  0  0  0  0  0  0  0  0  0
  157.5413  142.2401  183.3394 N   0  0  0  0  0  0  0  0  0  0  0  0
  157.4777  143.1875  183.8592 H   0  0  0  0  0  0  0  0  0  0  0  0
  158.7123  142.0764  182.1422 S   0  0  0  0  0  0  0  0  0  0  0  0
  158.3509  141.0007  180.8150 C   0  0  0  0  0  0  0  0  0  0  0  0
  159.9826  141.5494  182.8151 O   0  0  0  0  0  0  0  0  0  0  0  0
  159.1490  143.4062  181.5385 O   0  0  0  0  0  0  0  0  0  0  0  0
  154.1364  136.0136  187.8769 C   0  0  0  0  0  0  0  0  0  0  0  0
  155.5793  135.5290  187.7423 C   0  0  0  0  0  0  0  0  0  0  0  0
  155.8810  134.3237  187.2297 C   0  0  0  0  0  0  0  0  0  0  0  0
  157.2215  133.8883  187.2866 C   0  0  0  0  0  0  0  0  0  0  0  0
  158.1493  134.7110  187.8541 C   0  0  0  0  0  0  0  0  0  0  0  0
  157.7907  135.9123  188.3414 N   0  0  0  0  0  0  0  0  0  0  0  0
  156.5384  136.3775  188.3171 C   0  0  0  0  0  0  0  0  0  0  0  0
  159.5556  134.1907  187.9912 C   0  0  0  0  0  0  0  0  0  0  0  0
  160.4525  135.1355  187.5221 F   0  0  0  0  0  0  0  0  0  0  0  0
  159.6968  133.0340  187.3188 F   0  0  0  0  0  0  0  0  0  0  0  0
  159.7920  133.9564  189.3531 F   0  0  0  0  0  0  0  0  0  0  0  0
  156.0191  137.9692  188.9387 S   0  0  0  0  0  0  0  0  0  0  0  0
  156.1055  138.0042  190.7358 C   0  0  0  0  0  0  0  0  0  0  0  0
  154.8917  138.6180  191.4335 C   0  0  0  0  0  0  0  0  0  0  0  0
  154.2315  137.2629  191.4783 C   0  0  0  0  0  0  0  0  0  0  0  0
  155.6093  136.6648  191.3478 C   0  0  0  0  0  0  0  0  0  0  0  0
  5  6  1  0  0  0
  6  1  1  0  0  0
  1  2  2  0  0  0
  1  3  1  0  0  0
  3 20  1  0  0  0
 20 21  1  0  0  0
 21 22  2  0  0  0
 22 23  1  0  0  0
 23 24  2  0  0  0
 24 25  1  0  0  0
 25 26  2  0  0  0
 26 31  1  0  0  0
 31 32  1  0  0  0
 32 33  1  0  0  0
 33 34  1  0  0  0
 34 35  1  0  0  0
 24 27  1  0  0  0
 27 28  1  0  0  0
 27 29  1  0  0  0
 27 30  1  0  0  0
  6  7  1  0  0  0
  7  8  2  0  0  0
  8  9  1  0  0  0
  9 10  2  0  0  0
 10 14  1  0  0  0
 14 16  1  0  0  0
 16 17  1  0  0  0
 16 18  2  0  0  0
 16 19  2  0  0  0
 10 11  1  0  0  0
 11 12  1  0  0  0
 11 13  2  0  0  0
 26 21  1  0  0  0
 35 32  1  0  0  0
 13  7  1  0  0  0
  3  4  1  0  0  0
 14 15  1  0  0  0
M  END
> <minimizedAffinity>
-7.91712

> <CNNscore>
0.3583995998

> <CNNaffinity>
6.3370184898

> <CNN_VS>
2.2711849213

> <CNNaffinity_variance>
0.1543995589

$$$$
[H]c1c(C(F)(F)F)nc(SC2([H])C([H])([H])C([H])([H])C2([H])[H])c(C([H])([H])N([H])C(=O)C([H])(c2c([H])c([H])c(N([H])S(=O)(=O)C([H])([H])[H])c(F)c2[H])C([H])([H])[H])c1[H]


 35 37  0  0  0  0  0  0  0  0999 V2000
  153.6792  136.7177  185.5003 C   0  0  0  0  0  0  0  0  0  0  0  0
  154.3699  135.8132  185.1267 O   0  0  0  0  0  0  0  0  0  0  0  0
  152.3288  136.8590  185.2407 N   0  0  0  0  0  0  0  0  0  0  0  0
  151.8522  137.6765  185.8015 H   0  0  0  0  0  0  0  0  0  0  0  0
  152.9614  138.6487  186.6566 C   0  0  0  0  0  0  0  0  0  0  0  0
  154.2668  137.8768  186.3093 C   0  0  0  0  0  0  0  0  0  0  0  0
  155.1121  138.7829  185.5292 C   0  0  0  0  0  0  0  0  0  0  0  0
  154.4419  139.4979  184.5141 C   0  0  0  0  0  0  0  0  0  0  0  0
  155.1698  140.3327  183.6734 C   0  0  0  0  0  0  0  0  0  0  0  0
  156.5282  140.5086  183.7803 C   0  0  0  0  0  0  0  0  0  0  0  0
  157.1410  139.8075  184.7763 C   0  0  0  0  0  0  0  0  0  0  0  0
  158.4616  139.9150  184.9544 F   0  0  0  0  0  0  0  0  0  0  0  0
  156.4651  138.9541  185.6490 C   0  0  0  0  0  0  0  0  0  0  0  0
  157.2246  141.3090  182.8303 N   0  0  0  0  0  0  0  0  0  0  0  0
  156.8291  142.3134  182.7498 H   0  0  0  0  0  0  0  0  0  0  0  0
  158.5458  140.9042  181.8702 S   0  0  0  0  0  0  0  0  0  0  0  0
  158.5460  141.4908  180.2254 C   0  0  0  0  0  0  0  0  0  0  0  0
  158.6098  139.3760  181.8025 O   0  0  0  0  0  0  0  0  0  0  0  0
  159.8836  141.2942  182.4879 O   0  0  0  0  0  0  0  0  0  0  0  0
  151.3586  136.1365  184.3963 C   0  0  0  0  0  0  0  0  0  0  0  0
  151.3943  136.9516  183.1043 C   0  0  0  0  0  0  0  0  0  0  0  0
  152.4698  137.6745  182.7475 C   0  0  0  0  0  0  0  0  0  0  0  0
  152.3647  138.5220  181.6249 C   0  0  0  0  0  0  0  0  0  0  0  0
  151.1797  138.5656  180.9512 C   0  0  0  0  0  0  0  0  0  0  0  0
  150.1396  137.8109  181.3482 N   0  0  0  0  0  0  0  0  0  0  0  0
  150.1790  136.9916  182.4029 C   0  0  0  0  0  0  0  0  0  0  0  0
  151.0565  139.5453  179.8145 C   0  0  0  0  0  0  0  0  0  0  0  0
  150.1895  139.0459  178.8575 F   0  0  0  0  0  0  0  0  0  0  0  0
  152.2632  139.7914  179.2727 F   0  0  0  0  0  0  0  0  0  0  0  0
  150.5405  140.7400  180.3361 F   0  0  0  0  0  0  0  0  0  0  0  0
  148.8294  135.9619  182.9578 S   0  0  0  0  0  0  0  0  0  0  0  0
  147.4848  136.9731  183.5965 C   0  0  0  0  0  0  0  0  0  0  0  0
  147.1249  136.7265  185.0616 C   0  0  0  0  0  0  0  0  0  0  0  0
  148.1282  137.7701  185.4842 C   0  0  0  0  0  0  0  0  0  0  0  0
  148.0060  138.3487  184.0974 C   0  0  0  0  0  0  0  0  0  0  0  0
  5  6  1  0  0  0
  6  1  1  0  0  0
  1  2  2  0  0  0
  1  3  1  0  0  0
  3 20  1  0  0  0
 20 21  1  0  0  0
 21 22  2  0  0  0
 22 23  1  0  0  0
 23 24  2  0  0  0
 24 25  1  0  0  0
 25 26  2  0  0  0
 26 31  1  0  0  0
 31 32  1  0  0  0
 32 33  1  0  0  0
 33 34  1  0  0  0
 34 35  1  0  0  0
 24 27  1  0  0  0
 27 28  1  0  0  0
 27 29  1  0  0  0
 27 30  1  0  0  0
  6  7  1  0  0  0
  7  8  2  0  0  0
  8  9  1  0  0  0
  9 10  2  0  0  0
 10 14  1  0  0  0
 14 16  1  0  0  0
 16 17  1  0  0  0
 16 18  2  0  0  0
 16 19  2  0  0  0
 10 11  1  0  0  0
 11 12  1  0  0  0
 11 13  2  0  0  0
 26 21  1  0  0  0
 35 32  1  0  0  0
 13  7  1  0  0  0
  3  4  1  0  0  0
 14 15  1  0  0  0
M  END
> <minimizedAffinity>
-7.11354

> <CNNscore>
0.3530412018

> <CNNaffinity>
6.3812150955

> <CNN_VS>
2.2528319359

> <CNNaffinity_variance>
0.1183175668

$$$$
[H]c1c(C(F)(F)F)nc(SC2([H])C([H])([H])C([H])([H])C2([H])[H])c(C([H])([H])N([H])C(=O)C([H])(c2c([H])c([H])c(N([H])S(=O)(=O)C([H])([H])[H])c(F)c2[H])C([H])([H])[H])c1[H]


 35 37  0  0  0  0  0  0  0  0999 V2000
  153.8233  138.6879  184.3130 C   0  0  0  0  0  0  0  0  0  0  0  0
  153.9879  137.8260  183.4976 O   0  0  0  0  0  0  0  0  0  0  0  0
  153.3541  138.4992  185.5995 N   0  0  0  0  0  0  0  0  0  0  0  0
  153.4221  139.3960  186.2327 H   0  0  0  0  0  0  0  0  0  0  0  0
  153.6567  140.1730  182.4833 C   0  0  0  0  0  0  0  0  0  0  0  0
  154.0971  140.1557  183.9754 C   0  0  0  0  0  0  0  0  0  0  0  0
  155.5136  140.5242  184.0139 C   0  0  0  0  0  0  0  0  0  0  0  0
  155.8023  141.8312  183.5673 C   0  0  0  0  0  0  0  0  0  0  0  0
  157.1257  142.2526  183.5006 C   0  0  0  0  0  0  0  0  0  0  0  0
  158.1873  141.4564  183.8567 C   0  0  0  0  0  0  0  0  0  0  0  0
  157.8703  140.2030  184.2896 C   0  0  0  0  0  0  0  0  0  0  0  0
  158.8390  139.3574  184.6556 F   0  0  0  0  0  0  0  0  0  0  0  0
  156.5631  139.7232  184.3766 C   0  0  0  0  0  0  0  0  0  0  0  0
  159.5223  141.9197  183.6794 N   0  0  0  0  0  0  0  0  0  0  0  0
  159.8712  141.8293  182.6588 H   0  0  0  0  0  0  0  0  0  0  0  0
  160.5735  142.5805  184.8150 S   0  0  0  0  0  0  0  0  0  0  0  0
  160.1152  142.4531  186.4951 C   0  0  0  0  0  0  0  0  0  0  0  0
  160.7093  144.0722  184.4978 O   0  0  0  0  0  0  0  0  0  0  0  0
  161.9995  142.0552  184.6957 O   0  0  0  0  0  0  0  0  0  0  0  0
  152.8038  137.3475  186.3392 C   0  0  0  0  0  0  0  0  0  0  0  0
  153.6060  137.3933  187.6391 C   0  0  0  0  0  0  0  0  0  0  0  0
  154.7796  138.0419  187.7294 C   0  0  0  0  0  0  0  0  0  0  0  0
  155.5318  137.9034  188.9146 C   0  0  0  0  0  0  0  0  0  0  0  0
  155.0323  137.1225  189.9148 C   0  0  0  0  0  0  0  0  0  0  0  0
  153.8457  136.5055  189.7723 N   0  0  0  0  0  0  0  0  0  0  0  0
  153.0900  136.5979  188.6743 C   0  0  0  0  0  0  0  0  0  0  0  0
  155.8917  136.9105  191.1328 C   0  0  0  0  0  0  0  0  0  0  0  0
  156.4735  138.1089  191.5101 F   0  0  0  0  0  0  0  0  0  0  0  0
  156.8375  135.9860  190.8860 F   0  0  0  0  0  0  0  0  0  0  0  0
  155.0621  136.4477  192.1639 F   0  0  0  0  0  0  0  0  0  0  0  0
  151.5042  135.8089  188.4463 S   0  0  0  0  0  0  0  0  0  0  0  0
  151.5253  134.1414  189.1225 C   0  0  0  0  0  0  0  0  0  0  0  0
  151.3013  134.0488  190.6319 C   0  0  0  0  0  0  0  0  0  0  0  0
  149.8134  133.9525  190.4057 C   0  0  0  0  0  0  0  0  0  0  0  0
  150.1270  133.4728  189.0112 C   0  0  0  0  0  0  0  0  0  0  0  0
  5  6  1  0  0  0
  6  1  1  0  0  0
  1  2  2  0  0  0
  1  3  1  0  0  0
  3 20  1  0  0  0
 20 21  1  0  0  0
 21 22  2  0  0  0
 22 23  1  0  0  0
 23 24  2  0  0  0
 24 25  1  0  0  0
 25 26  2  0  0  0
 26 31  1  0  0  0
 31 32  1  0  0  0
 32 33  1  0  0  0
 33 34  1  0  0  0
 34 35  1  0  0  0
 24 27  1  0  0  0
 27 28  1  0  0  0
 27 29  1  0  0  0
 27 30  1  0  0  0
  6  7  1  0  0  0
  7  8  2  0  0  0
  8  9  1  0  0  0
  9 10  2  0  0  0
 10 14  1  0  0  0
 14 16  1  0  0  0
 16 17  1  0  0  0
 16 18  2  0  0  0
 16 19  2  0  0  0
 10 11  1  0  0  0
 11 12  1  0  0  0
 11 13  2  0  0  0
 26 21  1  0  0  0
 35 32  1  0  0  0
 13  7  1  0  0  0
  3  4  1  0  0  0
 14 15  1  0  0  0
M  END
> <minimizedAffinity>
-7.35334

> <CNNscore>
0.3419655263

> <CNNaffinity>
6.4619340897

> <CNN_VS>
2.2097587585

> <CNNaffinity_variance>
0.0763655081

$$$$
[H]c1c(C(F)(F)F)nc(SC2([H])C([H])([H])C([H])([H])C2([H])[H])c(C([H])([H])N([H])C(=O)C([H])(c2c([H])c([H])c(N([H])S(=O)(=O)C([H])([H])[H])c(F)c2[H])C([H])([H])[H])c1[H]


 35 37  0  0  0  0  0  0  0  0999 V2000
  153.4109  137.8484  186.1023 C   0  0  0  0  0  0  0  0  0  0  0  0
  153.0275  138.7410  186.8031 O   0  0  0  0  0  0  0  0  0  0  0  0
  153.8376  136.6085  186.5400 N   0  0  0  0  0  0  0  0  0  0  0  0
  154.0016  135.8839  185.7289 H   0  0  0  0  0  0  0  0  0  0  0  0
  154.1965  136.6818  184.2043 C   0  0  0  0  0  0  0  0  0  0  0  0
  153.5022  138.0212  184.5841 C   0  0  0  0  0  0  0  0  0  0  0  0
  154.3890  139.1056  184.1577 C   0  0  0  0  0  0  0  0  0  0  0  0
  155.6673  139.1006  184.7551 C   0  0  0  0  0  0  0  0  0  0  0  0
  156.5586  140.1284  184.4677 C   0  0  0  0  0  0  0  0  0  0  0  0
  156.2623  141.1644  183.6153 C   0  0  0  0  0  0  0  0  0  0  0  0
  155.0213  141.1328  183.0515 C   0  0  0  0  0  0  0  0  0  0  0  0
  154.6446  142.1012  182.2102 F   0  0  0  0  0  0  0  0  0  0  0  0
  154.0841  140.1302  183.3022 C   0  0  0  0  0  0  0  0  0  0  0  0
  157.1880  142.2315  183.4346 N   0  0  0  0  0  0  0  0  0  0  0  0
  156.7573  143.2051  183.6301 H   0  0  0  0  0  0  0  0  0  0  0  0
  158.8093  142.1631  182.9897 S   0  0  0  0  0  0  0  0  0  0  0  0
  159.9927  142.4414  184.2433 C   0  0  0  0  0  0  0  0  0  0  0  0
  159.0333  143.2303  181.9151 O   0  0  0  0  0  0  0  0  0  0  0  0
  159.1898  140.8627  182.2914 O   0  0  0  0  0  0  0  0  0  0  0  0
  154.0979  136.0147  187.8651 C   0  0  0  0  0  0  0  0  0  0  0  0
  155.5404  135.5325  187.7184 C   0  0  0  0  0  0  0  0  0  0  0  0
  155.8390  134.3183  187.2252 C   0  0  0  0  0  0  0  0  0  0  0  0
  157.1818  133.8889  187.2704 C   0  0  0  0  0  0  0  0  0  0  0  0
  158.1149  134.7259  187.8075 C   0  0  0  0  0  0  0  0  0  0  0  0
  157.7591  135.9353  188.2764 N   0  0  0  0  0  0  0  0  0  0  0  0
  156.5049  136.3956  188.2618 C   0  0  0  0  0  0  0  0  0  0  0  0
  159.5251  134.2133  187.9337 C   0  0  0  0  0  0  0  0  0  0  0  0
  160.4079  135.1326  187.3929 F   0  0  0  0  0  0  0  0  0  0  0  0
  159.6499  133.0235  187.3181 F   0  0  0  0  0  0  0  0  0  0  0  0
  159.7979  134.0493  189.2990 F   0  0  0  0  0  0  0  0  0  0  0  0
  155.9889  137.9974  188.8596 S   0  0  0  0  0  0  0  0  0  0  0  0
  156.1560  138.0875  190.6491 C   0  0  0  0  0  0  0  0  0  0  0  0
  154.9020  138.5396  191.3974 C   0  0  0  0  0  0  0  0  0  0  0  0
  154.4450  137.1060  191.4989 C   0  0  0  0  0  0  0  0  0  0  0  0
  155.8862  136.7064  191.3083 C   0  0  0  0  0  0  0  0  0  0  0  0
  5  6  1  0  0  0
  6  1  1  0  0  0
  1  2  2  0  0  0
  1  3  1  0  0  0
  3 20  1  0  0  0
 20 21  1  0  0  0
 21 22  2  0  0  0
 22 23  1  0  0  0
 23 24  2  0  0  0
 24 25  1  0  0  0
 25 26  2  0  0  0
 26 31  1  0  0  0
 31 32  1  0  0  0
 32 33  1  0  0  0
 33 34  1  0  0  0
 34 35  1  0  0  0
 24 27  1  0  0  0
 27 28  1  0  0  0
 27 29  1  0  0  0
 27 30  1  0  0  0
  6  7  1  0  0  0
  7  8  2  0  0  0
  8  9  1  0  0  0
  9 10  2  0  0  0
 10 14  1  0  0  0
 14 16  1  0  0  0
 16 17  1  0  0  0
 16 18  2  0  0  0
 16 19  2  0  0  0
 10 11  1  0  0  0
 11 12  1  0  0  0
 11 13  2  0  0  0
 26 21  1  0  0  0
 35 32  1  0  0  0
 13  7  1  0  0  0
  3  4  1  0  0  0
 14 15  1  0  0  0
M  END
> <minimizedAffinity>
-7.71916

> <CNNscore>
0.3146714270

> <CNNaffinity>
6.3131041527

> <CNN_VS>
1.9865535498

> <CNNaffinity_variance>
0.1329573542

$$$$
[H]c1nc([H])c2c([H])c([H])c([H])c(N([H])C(=O)N([H])C([H])([H])c3c([H])c([H])c(C(C([H])([H])[H])(C([H])([H])[H])C([H])([H])[H])c([H])c3[H])c2c1[H]


 27 29  0  0  0  0  0  0  0  0999 V2000
  153.6069  138.8405  186.0495 N   0  0  0  0  0  0  0  0  0  0  0  0
  154.3423  138.2504  187.1492 C   0  0  0  0  0  0  0  0  0  0  0  0
  155.3207  137.5393  186.8756 O   0  0  0  0  0  0  0  0  0  0  0  0
  153.9234  138.5060  188.4843 N   0  0  0  0  0  0  0  0  0  0  0  0
  152.7902  139.4444  186.3494 H   0  0  0  0  0  0  0  0  0  0  0  0
  153.0600  139.1380  188.5972 H   0  0  0  0  0  0  0  0  0  0  0  0
  154.5594  137.9570  189.6121 C   0  0  0  0  0  0  0  0  0  0  0  0
  155.8342  138.2440  190.0078 C   0  0  0  0  0  0  0  0  0  0  0  0
  156.4391  137.6167  191.1121 C   0  0  0  0  0  0  0  0  0  0  0  0
  155.7664  136.6824  191.8410 C   0  0  0  0  0  0  0  0  0  0  0  0
  154.4779  136.3618  191.4755 C   0  0  0  0  0  0  0  0  0  0  0  0
  153.8167  135.4147  192.2469 C   0  0  0  0  0  0  0  0  0  0  0  0
  152.5564  135.1111  191.9011 N   0  0  0  0  0  0  0  0  0  0  0  0
  151.9592  135.6904  190.8621 C   0  0  0  0  0  0  0  0  0  0  0  0
  152.6071  136.6531  190.0635 C   0  0  0  0  0  0  0  0  0  0  0  0
  153.8821  136.9859  190.3819 C   0  0  0  0  0  0  0  0  0  0  0  0
  153.9936  138.5916  184.7196 C   0  0  0  0  0  0  0  0  0  0  0  0
  156.4095  141.4584  182.6326 C   0  0  0  0  0  0  0  0  0  0  0  0
  155.0599  141.4492  182.4324 C   0  0  0  0  0  0  0  0  0  0  0  0
  154.2435  140.5325  183.0991 C   0  0  0  0  0  0  0  0  0  0  0  0
  154.7285  139.6051  183.9765 C   0  0  0  0  0  0  0  0  0  0  0  0
  156.1245  139.6440  184.1594 C   0  0  0  0  0  0  0  0  0  0  0  0
  156.9247  140.5459  183.5021 C   0  0  0  0  0  0  0  0  0  0  0  0
  157.6768  141.8855  180.5794 C   0  0  0  0  0  0  0  0  0  0  0  0
  157.3464  142.3903  181.9556 C   0  0  0  0  0  0  0  0  0  0  0  0
  156.7343  143.7964  181.9013 C   0  0  0  0  0  0  0  0  0  0  0  0
  158.6538  142.5530  182.6954 C   0  0  0  0  0  0  0  0  0  0  0  0
 24 25  1  0  0  0
 25 26  1  0  0  0
 25 27  1  0  0  0
 25 18  1  0  0  0
 18 19  2  0  0  0
 19 20  1  0  0  0
 20 21  2  0  0  0
 21 17  1  0  0  0
 17  1  1  0  0  0
  1  2  1  0  0  0
  2  3  2  0  0  0
  2  4  1  0  0  0
  4  7  1  0  0  0
  7  8  2  0  0  0
  8  9  1  0  0  0
  9 10  2  0  0  0
 10 11  1  0  0  0
 11 12  2  0  0  0
 12 13  1  0  0  0
 13 14  2  0  0  0
 14 15  1  0  0  0
 15 16  2  0  0  0
 21 22  1  0  0  0
 22 23  2  0  0  0
 23 18  1  0  0  0
 16  7  1  0  0  0
 16 11  1  0  0  0
  1  5  1  0  0  0
  4  6  1  0  0  0
M  END
> <minimizedAffinity>
-8.02442

> <CNNscore>
0.4842787683

> <CNNaffinity>
5.5455970764

> <CNN_VS>
2.6856148243

> <CNNaffinity_variance>
0.0235835891

$$$$
[H]c1nc([H])c2c([H])c([H])c([H])c(N([H])C(=O)N([H])C([H])([H])c3c([H])c([H])c(C(C([H])([H])[H])(C([H])([H])[H])C([H])([H])[H])c([H])c3[H])c2c1[H]


 27 29  0  0  0  0  0  0  0  0999 V2000
  150.8215  136.8975  185.4686 N   0  0  0  0  0  0  0  0  0  0  0  0
  151.2229  137.2803  184.1303 C   0  0  0  0  0  0  0  0  0  0  0  0
  152.2889  136.8223  183.6926 O   0  0  0  0  0  0  0  0  0  0  0  0
  150.3908  138.1534  183.3764 N   0  0  0  0  0  0  0  0  0  0  0  0
  149.8983  137.3130  185.7792 H   0  0  0  0  0  0  0  0  0  0  0  0
  149.4903  138.4865  183.8620 H   0  0  0  0  0  0  0  0  0  0  0  0
  150.7106  138.5984  182.0811 C   0  0  0  0  0  0  0  0  0  0  0  0
  151.8357  139.2975  181.7503 C   0  0  0  0  0  0  0  0  0  0  0  0
  152.0727  139.7695  180.4464 C   0  0  0  0  0  0  0  0  0  0  0  0
  151.1740  139.5452  179.4471 C   0  0  0  0  0  0  0  0  0  0  0  0
  150.0244  138.8448  179.7377 C   0  0  0  0  0  0  0  0  0  0  0  0
  149.1355  138.6232  178.6936 C   0  0  0  0  0  0  0  0  0  0  0  0
  148.0215  137.9290  178.9712 N   0  0  0  0  0  0  0  0  0  0  0  0
  147.7729  137.4694  180.1955 C   0  0  0  0  0  0  0  0  0  0  0  0
  148.6570  137.6805  181.2716 C   0  0  0  0  0  0  0  0  0  0  0  0
  149.7938  138.3783  181.0298 C   0  0  0  0  0  0  0  0  0  0  0  0
  151.6344  136.0458  186.2393 C   0  0  0  0  0  0  0  0  0  0  0  0
  154.2934  137.4290  189.3096 C   0  0  0  0  0  0  0  0  0  0  0  0
  153.8691  138.3011  188.3498 C   0  0  0  0  0  0  0  0  0  0  0  0
  152.9998  137.8851  187.3385 C   0  0  0  0  0  0  0  0  0  0  0  0
  152.5258  136.6078  187.2437 C   0  0  0  0  0  0  0  0  0  0  0  0
  152.9835  135.7357  188.2507 C   0  0  0  0  0  0  0  0  0  0  0  0
  153.8387  136.1474  189.2433 C   0  0  0  0  0  0  0  0  0  0  0  0
  154.7769  139.0592  191.0739 C   0  0  0  0  0  0  0  0  0  0  0  0
  155.2243  137.7881  190.4092 C   0  0  0  0  0  0  0  0  0  0  0  0
  155.3113  136.6335  191.4162 C   0  0  0  0  0  0  0  0  0  0  0  0
  156.6413  138.0099  189.9336 C   0  0  0  0  0  0  0  0  0  0  0  0
 24 25  1  0  0  0
 25 26  1  0  0  0
 25 27  1  0  0  0
 25 18  1  0  0  0
 18 19  2  0  0  0
 19 20  1  0  0  0
 20 21  2  0  0  0
 21 17  1  0  0  0
 17  1  1  0  0  0
  1  2  1  0  0  0
  2  3  2  0  0  0
  2  4  1  0  0  0
  4  7  1  0  0  0
  7  8  2  0  0  0
  8  9  1  0  0  0
  9 10  2  0  0  0
 10 11  1  0  0  0
 11 12  2  0  0  0
 12 13  1  0  0  0
 13 14  2  0  0  0
 14 15  1  0  0  0
 15 16  2  0  0  0
 21 22  1  0  0  0
 22 23  2  0  0  0
 23 18  1  0  0  0
 16  7  1  0  0  0
 16 11  1  0  0  0
  1  5  1  0  0  0
  4  6  1  0  0  0
M  END
> <minimizedAffinity>
-6.73592

> <CNNscore>
0.4325966835

> <CNNaffinity>
5.0207643509

> <CNN_VS>
2.1719660759

> <CNNaffinity_variance>
0.0885363594

$$$$
[H]c1nc([H])c2c([H])c([H])c([H])c(N([H])C(=O)N([H])C([H])([H])c3c([H])c([H])c(C(C([H])([H])[H])(C([H])([H])[H])C([H])([H])[H])c([H])c3[H])c2c1[H]


 27 29  0  0  0  0  0  0  0  0999 V2000
  153.5661  138.4930  184.6258 N   0  0  0  0  0  0  0  0  0  0  0  0
  152.9023  138.3371  183.3477 C   0  0  0  0  0  0  0  0  0  0  0  0
  153.0148  137.2476  182.7662 O   0  0  0  0  0  0  0  0  0  0  0  0
  152.1542  139.4229  182.8143 N   0  0  0  0  0  0  0  0  0  0  0  0
  153.4230  139.4411  185.0752 H   0  0  0  0  0  0  0  0  0  0  0  0
  152.1293  140.3189  183.4094 H   0  0  0  0  0  0  0  0  0  0  0  0
  151.4981  139.3723  181.5713 C   0  0  0  0  0  0  0  0  0  0  0  0
  152.0345  139.7878  180.3866 C   0  0  0  0  0  0  0  0  0  0  0  0
  151.3068  139.7690  179.1828 C   0  0  0  0  0  0  0  0  0  0  0  0
  150.0173  139.3298  179.1516 C   0  0  0  0  0  0  0  0  0  0  0  0
  149.4366  138.9025  180.3250 C   0  0  0  0  0  0  0  0  0  0  0  0
  148.1253  138.4498  180.2558 C   0  0  0  0  0  0  0  0  0  0  0  0
  147.5622  138.0200  181.3951 N   0  0  0  0  0  0  0  0  0  0  0  0
  148.2281  138.0252  182.5477 C   0  0  0  0  0  0  0  0  0  0  0  0
  149.5579  138.4792  182.6454 C   0  0  0  0  0  0  0  0  0  0  0  0
  150.1608  138.9218  181.5148 C   0  0  0  0  0  0  0  0  0  0  0  0
  154.3233  137.4380  185.1680 C   0  0  0  0  0  0  0  0  0  0  0  0
  154.9644  137.5624  189.4088 C   0  0  0  0  0  0  0  0  0  0  0  0
  155.6590  136.6629  188.6536 C   0  0  0  0  0  0  0  0  0  0  0  0
  155.4779  136.5988  187.2700 C   0  0  0  0  0  0  0  0  0  0  0  0
  154.6143  137.4129  186.5942 C   0  0  0  0  0  0  0  0  0  0  0  0
  153.9154  138.3287  187.4046 C   0  0  0  0  0  0  0  0  0  0  0  0
  154.0950  138.3891  188.7648 C   0  0  0  0  0  0  0  0  0  0  0  0
  156.4401  137.2017  191.3314 C   0  0  0  0  0  0  0  0  0  0  0  0
  155.0903  137.6863  190.8830 C   0  0  0  0  0  0  0  0  0  0  0  0
  154.8521  139.1420  191.3058 C   0  0  0  0  0  0  0  0  0  0  0  0
  154.0563  136.8791  191.6331 C   0  0  0  0  0  0  0  0  0  0  0  0
 24 25  1  0  0  0
 25 26  1  0  0  0
 25 27  1  0  0  0
 25 18  1  0  0  0
 18 19  2  0  0  0
 19 20  1  0  0  0
 20 21  2  0  0  0
 21 17  1  0  0  0
 17  1  1  0  0  0
  1  2  1  0  0  0
  2  3  2  0  0  0
  2  4  1  0  0  0
  4  7  1  0  0  0
  7  8  2  0  0  0
  8  9  1  0  0  0
  9 10  2  0  0  0
 10 11  1  0  0  0
 11 12  2  0  0  0
 12 13  1  0  0  0
 13 14  2  0  0  0
 14 15  1  0  0  0
 15 16  2  0  0  0
 21 22  1  0  0  0
 22 23  2  0  0  0
 23 18  1  0  0  0
 16  7  1  0  0  0
 16 11  1  0  0  0
  1  5  1  0  0  0
  4  6  1  0  0  0
M  END
> <minimizedAffinity>
-7.31553

> <CNNscore>
0.4205330610

> <CNNaffinity>
5.0788779259

> <CNN_VS>
2.1358361244

> <CNNaffinity_variance>
0.1689152718

$$$$
[H]c1nc([H])c2c([H])c([H])c([H])c(N([H])C(=O)N([H])C([H])([H])c3c([H])c([H])c(C(C([H])([H])[H])(C([H])([H])[H])C([H])([H])[H])c([H])c3[H])c2c1[H]


 27 29  0  0  0  0  0  0  0  0999 V2000
  154.0627  139.7619  184.4124 N   0  0  0  0  0  0  0  0  0  0  0  0
  155.3497  140.0115  183.7961 C   0  0  0  0  0  0  0  0  0  0  0  0
  156.1920  139.1019  183.8264 O   0  0  0  0  0  0  0  0  0  0  0  0
  155.5968  141.2719  183.1850 N   0  0  0  0  0  0  0  0  0  0  0  0
  153.3852  140.5730  184.3436 H   0  0  0  0  0  0  0  0  0  0  0  0
  154.7899  141.9827  183.2219 H   0  0  0  0  0  0  0  0  0  0  0  0
  156.8224  141.6127  182.5852 C   0  0  0  0  0  0  0  0  0  0  0  0
  157.0213  141.7608  181.2427 C   0  0  0  0  0  0  0  0  0  0  0  0
  158.2861  142.0437  180.6956 C   0  0  0  0  0  0  0  0  0  0  0  0
  159.3797  142.1820  181.4965 C   0  0  0  0  0  0  0  0  0  0  0  0
  159.2239  142.0392  182.8574 C   0  0  0  0  0  0  0  0  0  0  0  0
  160.3564  142.1984  183.6457 C   0  0  0  0  0  0  0  0  0  0  0  0
  160.2044  142.0736  184.9728 N   0  0  0  0  0  0  0  0  0  0  0  0
  159.0191  141.8079  185.5173 C   0  0  0  0  0  0  0  0  0  0  0  0
  157.8556  141.6414  184.7410 C   0  0  0  0  0  0  0  0  0  0  0  0
  157.9697  141.7600  183.3953 C   0  0  0  0  0  0  0  0  0  0  0  0
  153.7989  138.5279  185.0350 C   0  0  0  0  0  0  0  0  0  0  0  0
  154.8504  137.9208  189.1504 C   0  0  0  0  0  0  0  0  0  0  0  0
  155.7387  137.5727  188.1750 C   0  0  0  0  0  0  0  0  0  0  0  0
  155.4303  137.7611  186.8256 C   0  0  0  0  0  0  0  0  0  0  0  0
  154.2471  138.2943  186.4003 C   0  0  0  0  0  0  0  0  0  0  0  0
  153.3553  138.6425  187.4334 C   0  0  0  0  0  0  0  0  0  0  0  0
  153.6609  138.4556  188.7592 C   0  0  0  0  0  0  0  0  0  0  0  0
  156.4769  137.1959  190.8337 C   0  0  0  0  0  0  0  0  0  0  0  0
  155.0962  137.7426  190.6039 C   0  0  0  0  0  0  0  0  0  0  0  0
  154.8970  139.0777  191.3336 C   0  0  0  0  0  0  0  0  0  0  0  0
  154.1248  136.7845  191.2532 C   0  0  0  0  0  0  0  0  0  0  0  0
 24 25  1  0  0  0
 25 26  1  0  0  0
 25 27  1  0  0  0
 25 18  1  0  0  0
 18 19  2  0  0  0
 19 20  1  0  0  0
 20 21  2  0  0  0
 21 17  1  0  0  0
 17  1  1  0  0  0
  1  2  1  0  0  0
  2  3  2  0  0  0
  2  4  1  0  0  0
  4  7  1  0  0  0
  7  8  2  0  0  0
  8  9  1  0  0  0
  9 10  2  0  0  0
 10 11  1  0  0  0
 11 12  2  0  0  0
 12 13  1  0  0  0
 13 14  2  0  0  0
 14 15  1  0  0  0
 15 16  2  0  0  0
 21 22  1  0  0  0
 22 23  2  0  0  0
 23 18  1  0  0  0
 16  7  1  0  0  0
 16 11  1  0  0  0
  1  5  1  0  0  0
  4  6  1  0  0  0
M  END
> <minimizedAffinity>
-8.76936

> <CNNscore>
0.4160652757

> <CNNaffinity>
5.9421300888

> <CNN_VS>
2.4723138809

> <CNNaffinity_variance>
0.0595744736

$$$$
[H]c1nc([H])c2c([H])c([H])c([H])c(N([H])C(=O)N([H])C([H])([H])c3c([H])c([H])c(C(C([H])([H])[H])(C([H])([H])[H])C([H])([H])[H])c([H])c3[H])c2c1[H]


 27 29  0  0  0  0  0  0  0  0999 V2000
  153.6627  139.2555  185.5597 N   0  0  0  0  0  0  0  0  0  0  0  0
  153.6921  138.1875  186.5379 C   0  0  0  0  0  0  0  0  0  0  0  0
  154.0040  137.0528  186.1466 O   0  0  0  0  0  0  0  0  0  0  0  0
  153.3690  138.4747  187.8930 N   0  0  0  0  0  0  0  0  0  0  0  0
  153.3997  140.2007  185.9585 H   0  0  0  0  0  0  0  0  0  0  0  0
  153.1133  139.4964  188.1128 H   0  0  0  0  0  0  0  0  0  0  0  0
  153.3465  137.4988  188.9055 C   0  0  0  0  0  0  0  0  0  0  0  0
  152.3125  136.6387  189.1394 C   0  0  0  0  0  0  0  0  0  0  0  0
  152.3217  135.7228  190.2072 C   0  0  0  0  0  0  0  0  0  0  0  0
  153.3792  135.6580  191.0641 C   0  0  0  0  0  0  0  0  0  0  0  0
  154.4435  136.5091  190.8652 C   0  0  0  0  0  0  0  0  0  0  0  0
  155.5100  136.4085  191.7494 C   0  0  0  0  0  0  0  0  0  0  0  0
  156.5540  137.2270  191.5492 N   0  0  0  0  0  0  0  0  0  0  0  0
  156.5723  138.1018  190.5460 C   0  0  0  0  0  0  0  0  0  0  0  0
  155.5042  138.2243  189.6359 C   0  0  0  0  0  0  0  0  0  0  0  0
  154.4309  137.4139  189.8062 C   0  0  0  0  0  0  0  0  0  0  0  0
  153.9652  138.9938  184.2106 C   0  0  0  0  0  0  0  0  0  0  0  0
  156.8953  141.3930  182.1935 C   0  0  0  0  0  0  0  0  0  0  0  0
  155.5698  141.6407  181.9850 C   0  0  0  0  0  0  0  0  0  0  0  0
  154.5898  140.8817  182.6291 C   0  0  0  0  0  0  0  0  0  0  0  0
  154.8840  139.8644  183.4915 C   0  0  0  0  0  0  0  0  0  0  0  0
  156.2608  139.6375  183.6835 C   0  0  0  0  0  0  0  0  0  0  0  0
  157.2221  140.3848  183.0484 C   0  0  0  0  0  0  0  0  0  0  0  0
  158.0941  141.7660  180.0892 C   0  0  0  0  0  0  0  0  0  0  0  0
  157.9966  142.1445  181.5401 C   0  0  0  0  0  0  0  0  0  0  0  0
  157.7699  143.6528  181.7085 C   0  0  0  0  0  0  0  0  0  0  0  0
  159.3465  141.8724  182.1623 C   0  0  0  0  0  0  0  0  0  0  0  0
 24 25  1  0  0  0
 25 26  1  0  0  0
 25 27  1  0  0  0
 25 18  1  0  0  0
 18 19  2  0  0  0
 19 20  1  0  0  0
 20 21  2  0  0  0
 21 17  1  0  0  0
 17  1  1  0  0  0
  1  2  1  0  0  0
  2  3  2  0  0  0
  2  4  1  0  0  0
  4  7  1  0  0  0
  7  8  2  0  0  0
  8  9  1  0  0  0
  9 10  2  0  0  0
 10 11  1  0  0  0
 11 12  2  0  0  0
 12 13  1  0  0  0
 13 14  2  0  0  0
 14 15  1  0  0  0
 15 16  2  0  0  0
 21 22  1  0  0  0
 22 23  2  0  0  0
 23 18  1  0  0  0
 16  7  1  0  0  0
 16 11  1  0  0  0
  1  5  1  0  0  0
  4  6  1  0  0  0
M  END
> <minimizedAffinity>
-7.72317

> <CNNscore>
0.4017754197

> <CNNaffinity>
5.4893817902

> <CNN_VS>
2.2054986954

> <CNNaffinity_variance>
0.0447679162

$$$$
[H]c1nc([H])c2c([H])c([H])c([H])c(N([H])C(=O)N([H])C([H])([H])c3c([H])c([H])c(C(C([H])([H])[H])(C([H])([H])[H])C([H])([H])[H])c([H])c3[H])c2c1[H]


 27 29  0  0  0  0  0  0  0  0999 V2000
  154.0261  140.4776  181.5625 N   0  0  0  0  0  0  0  0  0  0  0  0
  154.9518  141.4364  182.1301 C   0  0  0  0  0  0  0  0  0  0  0  0
  154.5743  142.0946  183.1110 O   0  0  0  0  0  0  0  0  0  0  0  0
  156.2428  141.5850  181.5518 N   0  0  0  0  0  0  0  0  0  0  0  0
  154.4118  139.9411  180.7349 H   0  0  0  0  0  0  0  0  0  0  0  0
  156.4566  140.9595  180.7029 H   0  0  0  0  0  0  0  0  0  0  0  0
  157.1972  142.5065  182.0186 C   0  0  0  0  0  0  0  0  0  0  0  0
  157.2004  143.8413  181.7322 C   0  0  0  0  0  0  0  0  0  0  0  0
  158.2172  144.7048  182.1788 C   0  0  0  0  0  0  0  0  0  0  0  0
  159.2557  144.2354  182.9256 C   0  0  0  0  0  0  0  0  0  0  0  0
  159.2922  142.8943  183.2367 C   0  0  0  0  0  0  0  0  0  0  0  0
  160.3580  142.4511  184.0095 C   0  0  0  0  0  0  0  0  0  0  0  0
  160.3882  141.1476  184.3255 N   0  0  0  0  0  0  0  0  0  0  0  0
  159.4386  140.3087  183.9176 C   0  0  0  0  0  0  0  0  0  0  0  0
  158.3479  140.7319  183.1331 C   0  0  0  0  0  0  0  0  0  0  0  0
  158.2831  142.0427  182.7932 C   0  0  0  0  0  0  0  0  0  0  0  0
  152.7385  140.3220  182.1085 C   0  0  0  0  0  0  0  0  0  0  0  0
  149.4480  138.6234  179.9411 C   0  0  0  0  0  0  0  0  0  0  0  0
  150.3653  139.3839  179.2762 C   0  0  0  0  0  0  0  0  0  0  0  0
  151.4510  139.9480  179.9503 C   0  0  0  0  0  0  0  0  0  0  0  0
  151.6641  139.7806  181.2888 C   0  0  0  0  0  0  0  0  0  0  0  0
  150.6989  138.9899  181.9424 C   0  0  0  0  0  0  0  0  0  0  0  0
  149.6321  138.4371  181.2772 C   0  0  0  0  0  0  0  0  0  0  0  0
  148.2967  136.5086  179.4871 C   0  0  0  0  0  0  0  0  0  0  0  0
  148.2621  137.9994  179.3018 C   0  0  0  0  0  0  0  0  0  0  0  0
  146.9775  138.6036  179.8844 C   0  0  0  0  0  0  0  0  0  0  0  0
  148.1873  138.2610  177.8154 C   0  0  0  0  0  0  0  0  0  0  0  0
 24 25  1  0  0  0
 25 26  1  0  0  0
 25 27  1  0  0  0
 25 18  1  0  0  0
 18 19  2  0  0  0
 19 20  1  0  0  0
 20 21  2  0  0  0
 21 17  1  0  0  0
 17  1  1  0  0  0
  1  2  1  0  0  0
  2  3  2  0  0  0
  2  4  1  0  0  0
  4  7  1  0  0  0
  7  8  2  0  0  0
  8  9  1  0  0  0
  9 10  2  0  0  0
 10 11  1  0  0  0
 11 12  2  0  0  0
 12 13  1  0  0  0
 13 14  2  0  0  0
 14 15  1  0  0  0
 15 16  2  0  0  0
 21 22  1  0  0  0
 22 23  2  0  0  0
 23 18  1  0  0  0
 16  7  1  0  0  0
 16 11  1  0  0  0
  1  5  1  0  0  0
  4  6  1  0  0  0
M  END
> <minimizedAffinity>
-8.96912

> <CNNscore>
0.3863290548

> <CNNaffinity>
5.6714324951

> <CNN_VS>
2.1910390854

> <CNNaffinity_variance>
0.0729584247

$$$$
[H]c1nc([H])c2c([H])c([H])c([H])c(N([H])C(=O)N([H])C([H])([H])c3c([H])c([H])c(C(C([H])([H])[H])(C([H])([H])[H])C([H])([H])[H])c([H])c3[H])c2c1[H]


 27 29  0  0  0  0  0  0  0  0999 V2000
  154.0801  137.9435  184.4371 N   0  0  0  0  0  0  0  0  0  0  0  0
  153.4297  137.2198  183.3640 C   0  0  0  0  0  0  0  0  0  0  0  0
  152.8440  137.8798  182.4926 O   0  0  0  0  0  0  0  0  0  0  0  0
  153.4872  135.7987  183.3471 N   0  0  0  0  0  0  0  0  0  0  0  0
  154.5706  137.3239  185.1421 H   0  0  0  0  0  0  0  0  0  0  0  0
  154.0237  135.3365  184.1571 H   0  0  0  0  0  0  0  0  0  0  0  0
  152.8655  135.0119  182.3609 C   0  0  0  0  0  0  0  0  0  0  0  0
  151.5166  134.9119  182.1762 C   0  0  0  0  0  0  0  0  0  0  0  0
  150.9499  134.0602  181.2106 C   0  0  0  0  0  0  0  0  0  0  0  0
  151.7373  133.2885  180.4100 C   0  0  0  0  0  0  0  0  0  0  0  0
  153.1041  133.3576  180.5637 C   0  0  0  0  0  0  0  0  0  0  0  0
  153.8779  132.5672  179.7235 C   0  0  0  0  0  0  0  0  0  0  0  0
  155.2101  132.6434  179.8621 N   0  0  0  0  0  0  0  0  0  0  0  0
  155.7729  133.4419  180.7663 C   0  0  0  0  0  0  0  0  0  0  0  0
  155.0117  134.2530  181.6304 C   0  0  0  0  0  0  0  0  0  0  0  0
  153.6614  134.2029  181.5204 C   0  0  0  0  0  0  0  0  0  0  0  0
  154.0257  139.3489  184.4832 C   0  0  0  0  0  0  0  0  0  0  0  0
  156.9432  141.4690  182.1586 C   0  0  0  0  0  0  0  0  0  0  0  0
  155.6511  141.9073  182.1709 C   0  0  0  0  0  0  0  0  0  0  0  0
  154.6771  141.2434  182.9205 C   0  0  0  0  0  0  0  0  0  0  0  0
  154.9449  140.1368  183.6748 C   0  0  0  0  0  0  0  0  0  0  0  0
  156.2878  139.7133  183.6392 C   0  0  0  0  0  0  0  0  0  0  0  0
  157.2431  140.3676  182.9008 C   0  0  0  0  0  0  0  0  0  0  0  0
  157.8065  143.5928  181.2935 C   0  0  0  0  0  0  0  0  0  0  0  0
  158.0334  142.1100  181.3807 C   0  0  0  0  0  0  0  0  0  0  0  0
  159.3896  141.7906  182.0236 C   0  0  0  0  0  0  0  0  0  0  0  0
  158.1314  141.5912  179.9648 C   0  0  0  0  0  0  0  0  0  0  0  0
 24 25  1  0  0  0
 25 26  1  0  0  0
 25 27  1  0  0  0
 25 18  1  0  0  0
 18 19  2  0  0  0
 19 20  1  0  0  0
 20 21  2  0  0  0
 21 17  1  0  0  0
 17  1  1  0  0  0
  1  2  1  0  0  0
  2  3  2  0  0  0
  2  4  1  0  0  0
  4  7  1  0  0  0
  7  8  2  0  0  0
  8  9  1  0  0  0
  9 10  2  0  0  0
 10 11  1  0  0  0
 11 12  2  0  0  0
 12 13  1  0  0  0
 13 14  2  0  0  0
 14 15  1  0  0  0
 15 16  2  0  0  0
 21 22  1  0  0  0
 22 23  2  0  0  0
 23 18  1  0  0  0
 16  7  1  0  0  0
 16 11  1  0  0  0
  1  5  1  0  0  0
  4  6  1  0  0  0
M  END
> <minimizedAffinity>
-6.43645

> <CNNscore>
0.3707503378

> <CNNaffinity>
5.4743261337

> <CNN_VS>
2.0296082497

> <CNNaffinity_variance>
0.1622602940

$$$$
[H]c1nc([H])c2c([H])c([H])c([H])c(N([H])C(=O)N([H])C([H])([H])c3c([H])c([H])c(C(C([H])([H])[H])(C([H])([H])[H])C([H])([H])[H])c([H])c3[H])c2c1[H]


 27 29  0  0  0  0  0  0  0  0999 V2000
  155.9731  139.8047  183.4046 N   0  0  0  0  0  0  0  0  0  0  0  0
  156.5379  141.1370  183.4716 C   0  0  0  0  0  0  0  0  0  0  0  0
  155.8524  142.0308  183.9902 O   0  0  0  0  0  0  0  0  0  0  0  0
  157.8407  141.3684  182.9496 N   0  0  0  0  0  0  0  0  0  0  0  0
  156.6114  139.0856  182.9607 H   0  0  0  0  0  0  0  0  0  0  0  0
  158.3388  140.5153  182.5232 H   0  0  0  0  0  0  0  0  0  0  0  0
  158.4593  142.6314  182.9480 C   0  0  0  0  0  0  0  0  0  0  0  0
  158.2077  143.6241  182.0452 C   0  0  0  0  0  0  0  0  0  0  0  0
  158.9029  144.8470  182.0573 C   0  0  0  0  0  0  0  0  0  0  0  0
  159.8707  145.0923  182.9845 C   0  0  0  0  0  0  0  0  0  0  0  0
  160.1574  144.1171  183.9137 C   0  0  0  0  0  0  0  0  0  0  0  0
  161.1406  144.4042  184.8519 C   0  0  0  0  0  0  0  0  0  0  0  0
  161.4118  143.4611  185.7668 N   0  0  0  0  0  0  0  0  0  0  0  0
  160.7683  142.2959  185.7794 C   0  0  0  0  0  0  0  0  0  0  0  0
  159.7679  141.9795  184.8396 C   0  0  0  0  0  0  0  0  0  0  0  0
  159.4662  142.9078  183.8989 C   0  0  0  0  0  0  0  0  0  0  0  0
  154.6809  139.5536  183.9019 C   0  0  0  0  0  0  0  0  0  0  0  0
  151.2673  139.1007  181.3421 C   0  0  0  0  0  0  0  0  0  0  0  0
  152.0527  140.2096  181.2193 C   0  0  0  0  0  0  0  0  0  0  0  0
  153.1740  140.3864  182.0334 C   0  0  0  0  0  0  0  0  0  0  0  0
  153.5523  139.4828  182.9850 C   0  0  0  0  0  0  0  0  0  0  0  0
  152.7199  138.3508  183.0833 C   0  0  0  0  0  0  0  0  0  0  0  0
  151.6178  138.1800  182.2820 C   0  0  0  0  0  0  0  0  0  0  0  0
  150.2488  139.3641  179.1290 C   0  0  0  0  0  0  0  0  0  0  0  0
  150.0543  138.8436  180.5252 C   0  0  0  0  0  0  0  0  0  0  0  0
  149.7372  137.3423  180.5211 C   0  0  0  0  0  0  0  0  0  0  0  0
  148.8173  139.5108  181.0801 C   0  0  0  0  0  0  0  0  0  0  0  0
 24 25  1  0  0  0
 25 26  1  0  0  0
 25 27  1  0  0  0
 25 18  1  0  0  0
 18 19  2  0  0  0
 19 20  1  0  0  0
 20 21  2  0  0  0
 21 17  1  0  0  0
 17  1  1  0  0  0
  1  2  1  0  0  0
  2  3  2  0  0  0
  2  4  1  0  0  0
  4  7  1  0  0  0
  7  8  2  0  0  0
  8  9  1  0  0  0
  9 10  2  0  0  0
 10 11  1  0  0  0
 11 12  2  0  0  0
 12 13  1  0  0  0
 13 14  2  0  0  0
 14 15  1  0  0  0
 15 16  2  0  0  0
 21 22  1  0  0  0
 22 23  2  0  0  0
 23 18  1  0  0  0
 16  7  1  0  0  0
 16 11  1  0  0  0
  1  5  1  0  0  0
  4  6  1  0  0  0
M  END
> <minimizedAffinity>
-8.90843

> <CNNscore>
0.3520205617

> <CNNaffinity>
5.9986362457

> <CNN_VS>
2.1116433144

> <CNNaffinity_variance>
0.0333099291

$$$$
[H]c1nc([H])c2c([H])c([H])c([H])c(N([H])C(=O)N([H])C([H])([H])c3c([H])c([H])c(C(C([H])([H])[H])(C([H])([H])[H])C([H])([H])[H])c([H])c3[H])c2c1[H]


 27 29  0  0  0  0  0  0  0  0999 V2000
  154.2963  137.7449  185.2439 N   0  0  0  0  0  0  0  0  0  0  0  0
  154.2534  137.7219  186.6917 C   0  0  0  0  0  0  0  0  0  0  0  0
  153.8181  138.7266  187.2738 O   0  0  0  0  0  0  0  0  0  0  0  0
  154.7036  136.5636  187.3837 N   0  0  0  0  0  0  0  0  0  0  0  0
  154.6678  136.8543  184.8076 H   0  0  0  0  0  0  0  0  0  0  0  0
  155.0603  135.7543  186.7710 H   0  0  0  0  0  0  0  0  0  0  0  0
  154.7226  136.4601  188.7862 C   0  0  0  0  0  0  0  0  0  0  0  0
  153.8461  137.0822  189.6280 C   0  0  0  0  0  0  0  0  0  0  0  0
  153.9520  136.9897  191.0277 C   0  0  0  0  0  0  0  0  0  0  0  0
  154.9498  136.2654  191.6075 C   0  0  0  0  0  0  0  0  0  0  0  0
  155.8570  135.6224  190.7949 C   0  0  0  0  0  0  0  0  0  0  0  0
  156.8541  134.8829  191.4180 C   0  0  0  0  0  0  0  0  0  0  0  0
  157.7306  134.2443  190.6282 N   0  0  0  0  0  0  0  0  0  0  0  0
  157.6529  134.3132  189.3011 C   0  0  0  0  0  0  0  0  0  0  0  0
  156.6524  135.0561  188.6443 C   0  0  0  0  0  0  0  0  0  0  0  0
  155.7482  135.7157  189.4093 C   0  0  0  0  0  0  0  0  0  0  0  0
  153.8692  138.8843  184.5371 C   0  0  0  0  0  0  0  0  0  0  0  0
  156.5410  141.7819  182.8412 C   0  0  0  0  0  0  0  0  0  0  0  0
  157.0324  140.8395  183.6970 C   0  0  0  0  0  0  0  0  0  0  0  0
  156.1913  139.8787  184.2633 C   0  0  0  0  0  0  0  0  0  0  0  0
  154.8515  139.8178  184.0051 C   0  0  0  0  0  0  0  0  0  0  0  0
  154.3794  140.8044  183.1177 C   0  0  0  0  0  0  0  0  0  0  0  0
  155.2086  141.7482  182.5629 C   0  0  0  0  0  0  0  0  0  0  0  0
  156.5969  144.1332  182.1539 C   0  0  0  0  0  0  0  0  0  0  0  0
  157.3644  142.8425  182.2073 C   0  0  0  0  0  0  0  0  0  0  0  0
  158.6818  143.0089  182.9763 C   0  0  0  0  0  0  0  0  0  0  0  0
  157.7693  142.5070  180.7907 C   0  0  0  0  0  0  0  0  0  0  0  0
 24 25  1  0  0  0
 25 26  1  0  0  0
 25 27  1  0  0  0
 25 18  1  0  0  0
 18 19  2  0  0  0
 19 20  1  0  0  0
 20 21  2  0  0  0
 21 17  1  0  0  0
 17  1  1  0  0  0
  1  2  1  0  0  0
  2  3  2  0  0  0
  2  4  1  0  0  0
  4  7  1  0  0  0
  7  8  2  0  0  0
  8  9  1  0  0  0
  9 10  2  0  0  0
 10 11  1  0  0  0
 11 12  2  0  0  0
 12 13  1  0  0  0
 13 14  2  0  0  0
 14 15  1  0  0  0
 15 16  2  0  0  0
 21 22  1  0  0  0
 22 23  2  0  0  0
 23 18  1  0  0  0
 16  7  1  0  0  0
 16 11  1  0  0  0
  1  5  1  0  0  0
  4  6  1  0  0  0
M  END
> <minimizedAffinity>
-7.05342

> <CNNscore>
0.3485289216

> <CNNaffinity>
5.4205765724

> <CNN_VS>
1.8892277479

> <CNNaffinity_variance>
0.0836978927

$$$$
[H]c1c([H])c(N([H])C(=O)N([H])c2c([H])c([H])c([H])c3c2c([H])nn3[H])c([H])c([H])c1C(=C1C([H])([H])C([H])([H])SC([H])([H])C1([H])[H])N1C([H])([H])C([H])([H])OC([H])([H])C1([H])[H]


 35 39  0  0  0  0  0  0  0  0999 V2000
  154.9672  139.0777  184.2692 C   0  0  0  0  0  0  0  0  0  0  0  0
  155.9460  139.1030  185.2963 C   0  0  0  0  0  0  0  0  0  0  0  0
  155.9090  138.1931  186.3026 C   0  0  0  0  0  0  0  0  0  0  0  0
  154.9554  137.2280  186.3839 C   0  0  0  0  0  0  0  0  0  0  0  0
  153.9864  137.1623  185.4146 C   0  0  0  0  0  0  0  0  0  0  0  0
  154.0228  138.0982  184.3780 C   0  0  0  0  0  0  0  0  0  0  0  0
  154.9590  136.2782  187.5169 C   0  0  0  0  0  0  0  0  0  0  0  0
  154.6109  136.6265  188.7107 C   0  0  0  0  0  0  0  0  0  0  0  0
  154.6719  135.5420  189.7765 C   0  0  0  0  0  0  0  0  0  0  0  0
  155.8473  135.8683  190.6457 C   0  0  0  0  0  0  0  0  0  0  0  0
  155.5370  137.4785  191.4138 S   0  0  0  0  0  0  0  0  0  0  0  0
  154.9686  138.6221  190.1433 C   0  0  0  0  0  0  0  0  0  0  0  0
  154.1409  137.9392  189.0813 C   0  0  0  0  0  0  0  0  0  0  0  0
  155.3970  134.9497  187.1815 N   0  0  0  0  0  0  0  0  0  0  0  0
  156.7656  134.5028  187.2610 C   0  0  0  0  0  0  0  0  0  0  0  0
  156.8819  133.2670  186.3660 C   0  0  0  0  0  0  0  0  0  0  0  0
  156.0714  132.2360  186.7702 O   0  0  0  0  0  0  0  0  0  0  0  0
  154.8366  132.6153  187.2399 C   0  0  0  0  0  0  0  0  0  0  0  0
  154.4108  133.9788  186.7338 C   0  0  0  0  0  0  0  0  0  0  0  0
  157.0547  140.9629  184.0607 O   0  0  0  0  0  0  0  0  0  0  0  0
  156.1525  141.0016  183.2233 C   0  0  0  0  0  0  0  0  0  0  0  0
  155.0603  140.0677  183.2843 N   0  0  0  0  0  0  0  0  0  0  0  0
  156.1377  141.9459  182.1746 N   0  0  0  0  0  0  0  0  0  0  0  0
  154.2909  140.1327  182.5439 H   0  0  0  0  0  0  0  0  0  0  0  0
  155.2770  141.8549  181.5194 H   0  0  0  0  0  0  0  0  0  0  0  0
  157.0889  142.9293  181.9310 C   0  0  0  0  0  0  0  0  0  0  0  0
  157.3117  144.0083  182.7103 C   0  0  0  0  0  0  0  0  0  0  0  0
  158.3067  144.9230  182.3506 C   0  0  0  0  0  0  0  0  0  0  0  0
  159.0603  144.7521  181.2291 C   0  0  0  0  0  0  0  0  0  0  0  0
  158.8497  143.6609  180.4226 C   0  0  0  0  0  0  0  0  0  0  0  0
  159.4332  143.2606  179.2910 N   0  0  0  0  0  0  0  0  0  0  0  0
  158.8624  142.1477  178.9189 N   0  0  0  0  0  0  0  0  0  0  0  0
  157.9027  141.7993  179.7903 C   0  0  0  0  0  0  0  0  0  0  0  0
  157.8835  142.7781  180.7770 C   0  0  0  0  0  0  0  0  0  0  0  0
  160.2085  143.7906  178.8315 H   0  0  0  0  0  0  0  0  0  0  0  0
 20 21  2  0  0  0
 21 22  1  0  0  0
 22  1  1  0  0  0
  1  2  2  0  0  0
  2  3  1  0  0  0
  3  4  2  0  0  0
  4  5  1  0  0  0
  5  6  2  0  0  0
  4  7  1  0  0  0
  7  8  2  0  0  0
  8  9  1  0  0  0
  9 10  1  0  0  0
 10 11  1  0  0  0
 11 12  1  0  0  0
 12 13  1  0  0  0
  7 14  1  0  0  0
 14 15  1  0  0  0
 15 16  1  0  0  0
 16 17  1  0  0  0
 17 18  1  0  0  0
 18 19  1  0  0  0
 21 23  1  0  0  0
 23 26  1  0  0  0
 26 27  2  0  0  0
 27 28  1  0  0  0
 28 29  2  0  0  0
 29 30  1  0  0  0
 30 31  1  0  0  0
 31 32  1  0  0  0
 32 33  2  0  0  0
 33 34  1  0  0  0
  6  1  1  0  0  0
 13  8  1  0  0  0
 19 14  1  0  0  0
 34 26  1  0  0  0
 34 30  2  0  0  0
 22 24  1  0  0  0
 23 25  1  0  0  0
 31 35  1  0  0  0
M  END
> <minimizedAffinity>
-7.83728

> <CNNscore>
0.5168771744

> <CNNaffinity>
6.3414812088

> <CNN_VS>
3.2777669430

> <CNNaffinity_variance>
0.1329043806

$$$$
[H]c1c([H])c(N([H])C(=O)N([H])c2c([H])c([H])c([H])c3c2c([H])nn3[H])c([H])c([H])c1C(=C1C([H])([H])C([H])([H])SC([H])([H])C1([H])[H])N1C([H])([H])C([H])([H])OC([H])([H])C1([H])[H]


 35 39  0  0  0  0  0  0  0  0999 V2000
  154.9752  139.2397  184.8427 C   0  0  0  0  0  0  0  0  0  0  0  0
  153.6537  139.2686  185.3590 C   0  0  0  0  0  0  0  0  0  0  0  0
  153.3391  138.5716  186.4801 C   0  0  0  0  0  0  0  0  0  0  0  0
  154.2490  137.8230  187.1577 C   0  0  0  0  0  0  0  0  0  0  0  0
  155.5404  137.7626  186.6979 C   0  0  0  0  0  0  0  0  0  0  0  0
  155.8660  138.4794  185.5438 C   0  0  0  0  0  0  0  0  0  0  0  0
  153.8380  137.0708  188.3624 C   0  0  0  0  0  0  0  0  0  0  0  0
  154.2817  137.3587  189.5406 C   0  0  0  0  0  0  0  0  0  0  0  0
  153.7752  136.4922  190.6843 C   0  0  0  0  0  0  0  0  0  0  0  0
  154.9221  135.6207  191.0953 C   0  0  0  0  0  0  0  0  0  0  0  0
  156.2558  136.6994  191.6756 S   0  0  0  0  0  0  0  0  0  0  0  0
  156.4759  138.0335  190.4854 C   0  0  0  0  0  0  0  0  0  0  0  0
  155.1764  138.4502  189.8394 C   0  0  0  0  0  0  0  0  0  0  0  0
  152.9240  135.9894  188.1087 N   0  0  0  0  0  0  0  0  0  0  0  0
  151.4996  136.0651  188.3199 C   0  0  0  0  0  0  0  0  0  0  0  0
  150.9904  134.6265  188.4322 C   0  0  0  0  0  0  0  0  0  0  0  0
  151.2155  133.8895  187.2966 O   0  0  0  0  0  0  0  0  0  0  0  0
  152.4152  134.1340  186.6717 C   0  0  0  0  0  0  0  0  0  0  0  0
  153.4502  134.7310  187.6037 C   0  0  0  0  0  0  0  0  0  0  0  0
  156.8114  141.3654  184.5889 O   0  0  0  0  0  0  0  0  0  0  0  0
  156.1638  141.0366  183.5943 C   0  0  0  0  0  0  0  0  0  0  0  0
  155.2097  139.9628  183.6676 N   0  0  0  0  0  0  0  0  0  0  0  0
  156.3170  141.6812  182.3483 N   0  0  0  0  0  0  0  0  0  0  0  0
  154.6605  139.7065  182.7861 H   0  0  0  0  0  0  0  0  0  0  0  0
  155.6761  141.2801  181.5693 H   0  0  0  0  0  0  0  0  0  0  0  0
  157.1785  142.7325  182.0591 C   0  0  0  0  0  0  0  0  0  0  0  0
  157.3679  143.8208  182.8343 C   0  0  0  0  0  0  0  0  0  0  0  0
  158.2713  144.8074  182.4260 C   0  0  0  0  0  0  0  0  0  0  0  0
  158.9681  144.6978  181.2611 C   0  0  0  0  0  0  0  0  0  0  0  0
  158.7901  143.5983  180.4578 C   0  0  0  0  0  0  0  0  0  0  0  0
  159.3337  143.2476  179.2905 N   0  0  0  0  0  0  0  0  0  0  0  0
  158.8241  142.0981  178.9416 N   0  0  0  0  0  0  0  0  0  0  0  0
  157.9449  141.6761  179.8640 C   0  0  0  0  0  0  0  0  0  0  0  0
  157.9129  142.6457  180.8594 C   0  0  0  0  0  0  0  0  0  0  0  0
  160.0402  143.8352  178.7916 H   0  0  0  0  0  0  0  0  0  0  0  0
 20 21  2  0  0  0
 21 22  1  0  0  0
 22  1  1  0  0  0
  1  2  2  0  0  0
  2  3  1  0  0  0
  3  4  2  0  0  0
  4  5  1  0  0  0
  5  6  2  0  0  0
  4  7  1  0  0  0
  7  8  2  0  0  0
  8  9  1  0  0  0
  9 10  1  0  0  0
 10 11  1  0  0  0
 11 12  1  0  0  0
 12 13  1  0  0  0
  7 14  1  0  0  0
 14 15  1  0  0  0
 15 16  1  0  0  0
 16 17  1  0  0  0
 17 18  1  0  0  0
 18 19  1  0  0  0
 21 23  1  0  0  0
 23 26  1  0  0  0
 26 27  2  0  0  0
 27 28  1  0  0  0
 28 29  2  0  0  0
 29 30  1  0  0  0
 30 31  1  0  0  0
 31 32  1  0  0  0
 32 33  2  0  0  0
 33 34  1  0  0  0
  6  1  1  0  0  0
 13  8  1  0  0  0
 19 14  1  0  0  0
 34 26  1  0  0  0
 34 30  2  0  0  0
 22 24  1  0  0  0
 23 25  1  0  0  0
 31 35  1  0  0  0
M  END
> <minimizedAffinity>
-8.08297

> <CNNscore>
0.4382214844

> <CNNaffinity>
6.1577510834

> <CNN_VS>
2.6984589100

> <CNNaffinity_variance>
0.0965066701

$$$$
[H]c1c([H])c(N([H])C(=O)N([H])c2c([H])c([H])c([H])c3c2c([H])nn3[H])c([H])c([H])c1C(=C1C([H])([H])C([H])([H])SC([H])([H])C1([H])[H])N1C([H])([H])C([H])([H])OC([H])([H])C1([H])[H]


 35 39  0  0  0  0  0  0  0  0999 V2000
  154.2146  137.2637  185.2811 C   0  0  0  0  0  0  0  0  0  0  0  0
  154.4482  138.2417  186.2824 C   0  0  0  0  0  0  0  0  0  0  0  0
  154.7656  137.8668  187.5475 C   0  0  0  0  0  0  0  0  0  0  0  0
  154.8755  136.5645  187.9207 C   0  0  0  0  0  0  0  0  0  0  0  0
  154.6585  135.5813  186.9884 C   0  0  0  0  0  0  0  0  0  0  0  0
  154.3315  135.9653  185.6857 C   0  0  0  0  0  0  0  0  0  0  0  0
  155.2054  136.2215  189.3205 C   0  0  0  0  0  0  0  0  0  0  0  0
  156.3711  135.7881  189.6686 C   0  0  0  0  0  0  0  0  0  0  0  0
  156.5610  135.4692  191.1444 C   0  0  0  0  0  0  0  0  0  0  0  0
  156.6104  133.9760  191.2520 C   0  0  0  0  0  0  0  0  0  0  0  0
  158.0404  133.4001  190.3021 S   0  0  0  0  0  0  0  0  0  0  0  0
  158.0349  134.2216  188.6990 C   0  0  0  0  0  0  0  0  0  0  0  0
  157.4910  135.6280  188.7735 C   0  0  0  0  0  0  0  0  0  0  0  0
  154.1205  136.3933  190.2494 N   0  0  0  0  0  0  0  0  0  0  0  0
  153.9932  137.5126  191.1494 C   0  0  0  0  0  0  0  0  0  0  0  0
  153.0461  137.0764  192.2694 C   0  0  0  0  0  0  0  0  0  0  0  0
  151.7935  136.7499  191.8134 O   0  0  0  0  0  0  0  0  0  0  0  0
  151.7662  136.0867  190.6098 C   0  0  0  0  0  0  0  0  0  0  0  0
  153.0728  135.3855  190.2975 C   0  0  0  0  0  0  0  0  0  0  0  0
  151.7853  136.7064  183.9608 O   0  0  0  0  0  0  0  0  0  0  0  0
  152.6075  137.4206  183.3856 C   0  0  0  0  0  0  0  0  0  0  0  0
  153.8650  137.7332  184.0097 N   0  0  0  0  0  0  0  0  0  0  0  0
  152.3685  137.9641  182.1054 N   0  0  0  0  0  0  0  0  0  0  0  0
  154.5582  138.3522  183.4800 H   0  0  0  0  0  0  0  0  0  0  0  0
  153.1872  138.5703  181.7304 H   0  0  0  0  0  0  0  0  0  0  0  0
  151.2275  137.7913  181.3311 C   0  0  0  0  0  0  0  0  0  0  0  0
  150.3091  136.8176  181.5029 C   0  0  0  0  0  0  0  0  0  0  0  0
  149.2005  136.7598  180.6521 C   0  0  0  0  0  0  0  0  0  0  0  0
  149.0228  137.6649  179.6502 C   0  0  0  0  0  0  0  0  0  0  0  0
  149.9456  138.6637  179.4585 C   0  0  0  0  0  0  0  0  0  0  0  0
  150.0133  139.6590  178.5720 N   0  0  0  0  0  0  0  0  0  0  0  0
  151.1002  140.3386  178.8163 N   0  0  0  0  0  0  0  0  0  0  0  0
  151.7604  139.8079  179.8576 C   0  0  0  0  0  0  0  0  0  0  0  0
  151.0180  138.7140  180.2867 C   0  0  0  0  0  0  0  0  0  0  0  0
  149.2895  139.8146  177.8337 H   0  0  0  0  0  0  0  0  0  0  0  0
 20 21  2  0  0  0
 21 22  1  0  0  0
 22  1  1  0  0  0
  1  2  2  0  0  0
  2  3  1  0  0  0
  3  4  2  0  0  0
  4  5  1  0  0  0
  5  6  2  0  0  0
  4  7  1  0  0  0
  7  8  2  0  0  0
  8  9  1  0  0  0
  9 10  1  0  0  0
 10 11  1  0  0  0
 11 12  1  0  0  0
 12 13  1  0  0  0
  7 14  1  0  0  0
 14 15  1  0  0  0
 15 16  1  0  0  0
 16 17  1  0  0  0
 17 18  1  0  0  0
 18 19  1  0  0  0
 21 23  1  0  0  0
 23 26  1  0  0  0
 26 27  2  0  0  0
 27 28  1  0  0  0
 28 29  2  0  0  0
 29 30  1  0  0  0
 30 31  1  0  0  0
 31 32  1  0  0  0
 32 33  2  0  0  0
 33 34  1  0  0  0
  6  1  1  0  0  0
 13  8  1  0  0  0
 19 14  1  0  0  0
 34 26  1  0  0  0
 34 30  2  0  0  0
 22 24  1  0  0  0
 23 25  1  0  0  0
 31 35  1  0  0  0
M  END
> <minimizedAffinity>
-7.11014

> <CNNscore>
0.4346176684

> <CNNaffinity>
5.5883240700

> <CNN_VS>
2.4287843704

> <CNNaffinity_variance>
0.0642025247

$$$$
[H]c1c([H])c(N([H])C(=O)N([H])c2c([H])c([H])c([H])c3c2c([H])nn3[H])c([H])c([H])c1C(=C1C([H])([H])C([H])([H])SC([H])([H])C1([H])[H])N1C([H])([H])C([H])([H])OC([H])([H])C1([H])[H]


 35 39  0  0  0  0  0  0  0  0999 V2000
  155.0524  139.4022  184.5778 C   0  0  0  0  0  0  0  0  0  0  0  0
  153.8136  138.7557  184.8252 C   0  0  0  0  0  0  0  0  0  0  0  0
  153.6988  137.8544  185.8333 C   0  0  0  0  0  0  0  0  0  0  0  0
  154.7382  137.5258  186.6451 C   0  0  0  0  0  0  0  0  0  0  0  0
  155.9571  138.1237  186.4458 C   0  0  0  0  0  0  0  0  0  0  0  0
  156.0772  139.0516  185.4085 C   0  0  0  0  0  0  0  0  0  0  0  0
  154.5531  136.5211  187.7139 C   0  0  0  0  0  0  0  0  0  0  0  0
  154.5371  136.8396  188.9654 C   0  0  0  0  0  0  0  0  0  0  0  0
  154.3448  135.6968  189.9516 C   0  0  0  0  0  0  0  0  0  0  0  0
  155.6703  135.4833  190.6159 C   0  0  0  0  0  0  0  0  0  0  0  0
  156.0963  137.0042  191.5016 S   0  0  0  0  0  0  0  0  0  0  0  0
  155.8156  138.4060  190.4057 C   0  0  0  0  0  0  0  0  0  0  0  0
  154.6482  138.1850  189.4740 C   0  0  0  0  0  0  0  0  0  0  0  0
  154.4118  135.1687  187.2447 N   0  0  0  0  0  0  0  0  0  0  0  0
  153.1461  134.5060  187.0498 C   0  0  0  0  0  0  0  0  0  0  0  0
  153.4273  133.0018  187.0537 C   0  0  0  0  0  0  0  0  0  0  0  0
  154.2729  132.6134  186.0450 O   0  0  0  0  0  0  0  0  0  0  0  0
  155.2954  133.4904  185.7717 C   0  0  0  0  0  0  0  0  0  0  0  0
  155.6109  134.4043  186.9387 C   0  0  0  0  0  0  0  0  0  0  0  0
  157.4047  140.2906  183.3003 O   0  0  0  0  0  0  0  0  0  0  0  0
  156.3246  140.7122  182.8851 C   0  0  0  0  0  0  0  0  0  0  0  0
  155.0937  140.2967  183.5022 N   0  0  0  0  0  0  0  0  0  0  0  0
  156.2328  141.6101  181.8002 N   0  0  0  0  0  0  0  0  0  0  0  0
  154.1737  140.6862  183.1196 H   0  0  0  0  0  0  0  0  0  0  0  0
  155.2139  141.8914  181.5533 H   0  0  0  0  0  0  0  0  0  0  0  0
  157.2899  142.1326  181.0648 C   0  0  0  0  0  0  0  0  0  0  0  0
  157.8277  141.5678  179.9635 C   0  0  0  0  0  0  0  0  0  0  0  0
  158.8907  142.2034  179.3137 C   0  0  0  0  0  0  0  0  0  0  0  0
  159.3994  143.3832  179.7654 C   0  0  0  0  0  0  0  0  0  0  0  0
  158.8664  143.9747  180.8843 C   0  0  0  0  0  0  0  0  0  0  0  0
  159.1682  145.1048  181.5268 N   0  0  0  0  0  0  0  0  0  0  0  0
  158.3568  145.2159  182.5427 N   0  0  0  0  0  0  0  0  0  0  0  0
  157.5149  144.1713  182.5862 C   0  0  0  0  0  0  0  0  0  0  0  0
  157.8363  143.3532  181.5096 C   0  0  0  0  0  0  0  0  0  0  0  0
  159.9336  145.7476  181.2199 H   0  0  0  0  0  0  0  0  0  0  0  0
 20 21  2  0  0  0
 21 22  1  0  0  0
 22  1  1  0  0  0
  1  2  2  0  0  0
  2  3  1  0  0  0
  3  4  2  0  0  0
  4  5  1  0  0  0
  5  6  2  0  0  0
  4  7  1  0  0  0
  7  8  2  0  0  0
  8  9  1  0  0  0
  9 10  1  0  0  0
 10 11  1  0  0  0
 11 12  1  0  0  0
 12 13  1  0  0  0
  7 14  1  0  0  0
 14 15  1  0  0  0
 15 16  1  0  0  0
 16 17  1  0  0  0
 17 18  1  0  0  0
 18 19  1  0  0  0
 21 23  1  0  0  0
 23 26  1  0  0  0
 26 27  2  0  0  0
 27 28  1  0  0  0
 28 29  2  0  0  0
 29 30  1  0  0  0
 30 31  1  0  0  0
 31 32  1  0  0  0
 32 33  2  0  0  0
 33 34  1  0  0  0
  6  1  1  0  0  0
 13  8  1  0  0  0
 19 14  1  0  0  0
 34 26  1  0  0  0
 34 30  2  0  0  0
 22 24  1  0  0  0
 23 25  1  0  0  0
 31 35  1  0  0  0
M  END
> <minimizedAffinity>
-8.19400

> <CNNscore>
0.3507484198

> <CNNaffinity>
6.1158146858

> <CNN_VS>
2.1451122761

> <CNNaffinity_variance>
0.0686196238

$$$$
[H]c1c([H])c(N([H])C(=O)N([H])c2c([H])c([H])c([H])c3c2c([H])nn3[H])c([H])c([H])c1C(=C1C([H])([H])C([H])([H])SC([H])([H])C1([H])[H])N1C([H])([H])C([H])([H])OC([H])([H])C1([H])[H]


 35 39  0  0  0  0  0  0  0  0999 V2000
  152.0188  135.7434  186.4154 C   0  0  0  0  0  0  0  0  0  0  0  0
  151.4282  136.6059  187.3752 C   0  0  0  0  0  0  0  0  0  0  0  0
  151.7902  136.5304  188.6810 C   0  0  0  0  0  0  0  0  0  0  0  0
  152.7168  135.6457  189.1351 C   0  0  0  0  0  0  0  0  0  0  0  0
  153.3163  134.7899  188.2458 C   0  0  0  0  0  0  0  0  0  0  0  0
  152.9448  134.8660  186.9012 C   0  0  0  0  0  0  0  0  0  0  0  0
  153.0531  135.6003  190.5741 C   0  0  0  0  0  0  0  0  0  0  0  0
  152.2799  135.0442  191.4464 C   0  0  0  0  0  0  0  0  0  0  0  0
  152.7545  135.0811  192.8918 C   0  0  0  0  0  0  0  0  0  0  0  0
  151.8808  136.0710  193.5992 C   0  0  0  0  0  0  0  0  0  0  0  0
  150.1775  135.4616  193.5191 S   0  0  0  0  0  0  0  0  0  0  0  0
  149.8288  134.9488  191.8279 C   0  0  0  0  0  0  0  0  0  0  0  0
  151.0416  134.3711  191.1387 C   0  0  0  0  0  0  0  0  0  0  0  0
  154.2954  136.2388  190.9179 N   0  0  0  0  0  0  0  0  0  0  0  0
  155.5603  135.5532  191.0130 C   0  0  0  0  0  0  0  0  0  0  0  0
  156.4771  136.4297  191.8693 C   0  0  0  0  0  0  0  0  0  0  0  0
  156.7015  137.6664  191.3184 O   0  0  0  0  0  0  0  0  0  0  0  0
  155.6148  138.2329  190.6958 C   0  0  0  0  0  0  0  0  0  0  0  0
  154.2976  137.6680  191.1879 C   0  0  0  0  0  0  0  0  0  0  0  0
  152.5117  137.9560  184.7374 O   0  0  0  0  0  0  0  0  0  0  0  0
  151.8558  137.0181  184.2827 C   0  0  0  0  0  0  0  0  0  0  0  0
  151.5699  135.8664  185.0955 N   0  0  0  0  0  0  0  0  0  0  0  0
  151.3562  137.0177  182.9628 N   0  0  0  0  0  0  0  0  0  0  0  0
  150.9932  135.0719  184.6707 H   0  0  0  0  0  0  0  0  0  0  0  0
  150.7966  136.1227  182.7098 H   0  0  0  0  0  0  0  0  0  0  0  0
  151.5175  138.0212  182.0150 C   0  0  0  0  0  0  0  0  0  0  0  0
  152.4691  138.9776  182.0468 C   0  0  0  0  0  0  0  0  0  0  0  0
  152.5221  139.9293  181.0233 C   0  0  0  0  0  0  0  0  0  0  0  0
  151.6344  139.9159  179.9906 C   0  0  0  0  0  0  0  0  0  0  0  0
  150.6584  138.9512  179.9394 C   0  0  0  0  0  0  0  0  0  0  0  0
  149.6833  138.7128  179.0600 N   0  0  0  0  0  0  0  0  0  0  0  0
  149.0206  137.6668  179.4716 N   0  0  0  0  0  0  0  0  0  0  0  0
  149.5427  137.2028  180.6179 C   0  0  0  0  0  0  0  0  0  0  0  0
  150.6125  138.0316  180.9348 C   0  0  0  0  0  0  0  0  0  0  0  0
  149.5287  139.2991  178.2081 H   0  0  0  0  0  0  0  0  0  0  0  0
 20 21  2  0  0  0
 21 22  1  0  0  0
 22  1  1  0  0  0
  1  2  2  0  0  0
  2  3  1  0  0  0
  3  4  2  0  0  0
  4  5  1  0  0  0
  5  6  2  0  0  0
  4  7  1  0  0  0
  7  8  2  0  0  0
  8  9  1  0  0  0
  9 10  1  0  0  0
 10 11  1  0  0  0
 11 12  1  0  0  0
 12 13  1  0  0  0
  7 14  1  0  0  0
 14 15  1  0  0  0
 15 16  1  0  0  0
 16 17  1  0  0  0
 17 18  1  0  0  0
 18 19  1  0  0  0
 21 23  1  0  0  0
 23 26  1  0  0  0
 26 27  2  0  0  0
 27 28  1  0  0  0
 28 29  2  0  0  0
 29 30  1  0  0  0
 30 31  1  0  0  0
 31 32  1  0  0  0
 32 33  2  0  0  0
 33 34  1  0  0  0
  6  1  1  0  0  0
 13  8  1  0  0  0
 19 14  1  0  0  0
 34 26  1  0  0  0
 34 30  2  0  0  0
 22 24  1  0  0  0
 23 25  1  0  0  0
 31 35  1  0  0  0
M  END
> <minimizedAffinity>
-6.80156

> <CNNscore>
0.3154228926

> <CNNaffinity>
5.3793988228

> <CNN_VS>
1.6967855692

> <CNNaffinity_variance>
0.0199201088

$$$$
[H]c1c([H])c(N([H])C(=O)N([H])c2c([H])c([H])c([H])c3c2c([H])nn3[H])c([H])c([H])c1C(=C1C([H])([H])C([H])([H])SC([H])([H])C1([H])[H])N1C([H])([H])C([H])([H])OC([H])([H])C1([H])[H]


 35 39  0  0  0  0  0  0  0  0999 V2000
  155.5233  139.7560  184.4772 C   0  0  0  0  0  0  0  0  0  0  0  0
  154.4906  139.6724  183.5075 C   0  0  0  0  0  0  0  0  0  0  0  0
  153.6102  138.6399  183.5294 C   0  0  0  0  0  0  0  0  0  0  0  0
  153.6646  137.6493  184.4585 C   0  0  0  0  0  0  0  0  0  0  0  0
  154.6455  137.6851  185.4173 C   0  0  0  0  0  0  0  0  0  0  0  0
  155.5528  138.7471  185.3962 C   0  0  0  0  0  0  0  0  0  0  0  0
  152.6869  136.5410  184.4161 C   0  0  0  0  0  0  0  0  0  0  0  0
  151.7648  136.3994  185.3092 C   0  0  0  0  0  0  0  0  0  0  0  0
  150.8356  135.2065  185.1385 C   0  0  0  0  0  0  0  0  0  0  0  0
  151.2120  134.2211  186.2020 C   0  0  0  0  0  0  0  0  0  0  0  0
  150.9278  135.0062  187.8089 S   0  0  0  0  0  0  0  0  0  0  0  0
  151.6389  136.6609  187.7746 C   0  0  0  0  0  0  0  0  0  0  0  0
  151.5407  137.3027  186.4115 C   0  0  0  0  0  0  0  0  0  0  0  0
  152.8613  135.6322  183.3148 N   0  0  0  0  0  0  0  0  0  0  0  0
  152.1406  135.7203  182.0689 C   0  0  0  0  0  0  0  0  0  0  0  0
  152.2226  134.3416  181.4101 C   0  0  0  0  0  0  0  0  0  0  0  0
  153.5106  133.9574  181.1327 O   0  0  0  0  0  0  0  0  0  0  0  0
  154.4406  134.3081  182.0822 C   0  0  0  0  0  0  0  0  0  0  0  0
  153.8237  134.5495  183.4451 C   0  0  0  0  0  0  0  0  0  0  0  0
  158.3301  139.5821  184.6932 O   0  0  0  0  0  0  0  0  0  0  0  0
  157.8322  140.6884  184.4817 C   0  0  0  0  0  0  0  0  0  0  0  0
  156.4061  140.8365  184.3676 N   0  0  0  0  0  0  0  0  0  0  0  0
  158.6162  141.8533  184.3410 N   0  0  0  0  0  0  0  0  0  0  0  0
  156.0067  141.8127  184.1887 H   0  0  0  0  0  0  0  0  0  0  0  0
  158.0332  142.7509  184.1600 H   0  0  0  0  0  0  0  0  0  0  0  0
  160.0018  141.9338  184.4128 C   0  0  0  0  0  0  0  0  0  0  0  0
  160.8551  141.5781  183.4298 C   0  0  0  0  0  0  0  0  0  0  0  0
  162.2324  141.7139  183.6321 C   0  0  0  0  0  0  0  0  0  0  0  0
  162.7370  142.1981  184.8007 C   0  0  0  0  0  0  0  0  0  0  0  0
  161.8858  142.5659  185.8135 C   0  0  0  0  0  0  0  0  0  0  0  0
  162.1093  143.0592  187.0333 N   0  0  0  0  0  0  0  0  0  0  0  0
  160.9525  143.2411  187.6091 N   0  0  0  0  0  0  0  0  0  0  0  0
  159.9571  142.8743  186.7867 C   0  0  0  0  0  0  0  0  0  0  0  0
  160.5518  142.4316  185.6111 C   0  0  0  0  0  0  0  0  0  0  0  0
  163.0685  143.2457  187.4053 H   0  0  0  0  0  0  0  0  0  0  0  0
 20 21  2  0  0  0
 21 22  1  0  0  0
 22  1  1  0  0  0
  1  2  2  0  0  0
  2  3  1  0  0  0
  3  4  2  0  0  0
  4  5  1  0  0  0
  5  6  2  0  0  0
  4  7  1  0  0  0
  7  8  2  0  0  0
  8  9  1  0  0  0
  9 10  1  0  0  0
 10 11  1  0  0  0
 11 12  1  0  0  0
 12 13  1  0  0  0
  7 14  1  0  0  0
 14 15  1  0  0  0
 15 16  1  0  0  0
 16 17  1  0  0  0
 17 18  1  0  0  0
 18 19  1  0  0  0
 21 23  1  0  0  0
 23 26  1  0  0  0
 26 27  2  0  0  0
 27 28  1  0  0  0
 28 29  2  0  0  0
 29 30  1  0  0  0
 30 31  1  0  0  0
 31 32  1  0  0  0
 32 33  2  0  0  0
 33 34  1  0  0  0
  6  1  1  0  0  0
 13  8  1  0  0  0
 19 14  1  0  0  0
 34 26  1  0  0  0
 34 30  2  0  0  0
 22 24  1  0  0  0
 23 25  1  0  0  0
 31 35  1  0  0  0
M  END
> <minimizedAffinity>
-7.59332

> <CNNscore>
0.2808424234

> <CNNaffinity>
6.1295251846

> <CNN_VS>
1.7214306593

> <CNNaffinity_variance>
0.0515432246

$$$$
[H]c1c([H])c(N([H])C(=O)N([H])c2c([H])c([H])c([H])c3c2c([H])nn3[H])c([H])c([H])c1C(=C1C([H])([H])C([H])([H])SC([H])([H])C1([H])[H])N1C([H])([H])C([H])([H])OC([H])([H])C1([H])[H]


 35 39  0  0  0  0  0  0  0  0999 V2000
  155.1823  139.3908  184.7179 C   0  0  0  0  0  0  0  0  0  0  0  0
  153.9335  138.8161  185.0698 C   0  0  0  0  0  0  0  0  0  0  0  0
  153.8545  137.9077  186.0750 C   0  0  0  0  0  0  0  0  0  0  0  0
  154.9404  137.5048  186.7862 C   0  0  0  0  0  0  0  0  0  0  0  0
  156.1709  138.0313  186.4835 C   0  0  0  0  0  0  0  0  0  0  0  0
  156.2541  138.9664  185.4489 C   0  0  0  0  0  0  0  0  0  0  0  0
  154.7907  136.4965  187.8571 C   0  0  0  0  0  0  0  0  0  0  0  0
  154.3053  135.3205  187.6350 C   0  0  0  0  0  0  0  0  0  0  0  0
  154.2050  134.3923  188.8367 C   0  0  0  0  0  0  0  0  0  0  0  0
  152.7496  134.2975  189.1781 C   0  0  0  0  0  0  0  0  0  0  0  0
  151.8946  133.5702  187.7572 S   0  0  0  0  0  0  0  0  0  0  0  0
  152.4507  134.4059  186.2615 C   0  0  0  0  0  0  0  0  0  0  0  0
  153.8978  134.8289  186.3414 C   0  0  0  0  0  0  0  0  0  0  0  0
  155.2116  136.9405  189.1590 N   0  0  0  0  0  0  0  0  0  0  0  0
  156.4885  136.6248  189.7498 C   0  0  0  0  0  0  0  0  0  0  0  0
  156.3410  136.8260  191.2596 C   0  0  0  0  0  0  0  0  0  0  0  0
  156.0209  138.1169  191.5981 O   0  0  0  0  0  0  0  0  0  0  0  0
  155.1433  138.7424  190.7449 C   0  0  0  0  0  0  0  0  0  0  0  0
  154.3066  137.7645  189.9449 C   0  0  0  0  0  0  0  0  0  0  0  0
  157.4773  140.2492  183.3211 O   0  0  0  0  0  0  0  0  0  0  0  0
  156.3845  140.6970  182.9719 C   0  0  0  0  0  0  0  0  0  0  0  0
  155.1816  140.2978  183.6520 N   0  0  0  0  0  0  0  0  0  0  0  0
  156.2505  141.6101  181.9042 N   0  0  0  0  0  0  0  0  0  0  0  0
  154.2498  140.7099  183.3260 H   0  0  0  0  0  0  0  0  0  0  0  0
  155.2253  141.9143  181.7179 H   0  0  0  0  0  0  0  0  0  0  0  0
  157.2754  142.1212  181.1169 C   0  0  0  0  0  0  0  0  0  0  0  0
  157.7485  141.5529  179.9881 C   0  0  0  0  0  0  0  0  0  0  0  0
  158.7851  142.1767  179.2862 C   0  0  0  0  0  0  0  0  0  0  0  0
  159.3318  143.3483  179.7143 C   0  0  0  0  0  0  0  0  0  0  0  0
  158.8646  143.9431  180.8605 C   0  0  0  0  0  0  0  0  0  0  0  0
  159.2138  145.0672  181.4895 N   0  0  0  0  0  0  0  0  0  0  0  0
  158.4569  145.1857  182.5459 N   0  0  0  0  0  0  0  0  0  0  0  0
  157.6048  144.1520  182.6299 C   0  0  0  0  0  0  0  0  0  0  0  0
  157.8598  143.3332  181.5361 C   0  0  0  0  0  0  0  0  0  0  0  0
  159.9709  145.7009  181.1454 H   0  0  0  0  0  0  0  0  0  0  0  0
 20 21  2  0  0  0
 21 22  1  0  0  0
 22  1  1  0  0  0
  1  2  2  0  0  0
  2  3  1  0  0  0
  3  4  2  0  0  0
  4  5  1  0  0  0
  5  6  2  0  0  0
  4  7  1  0  0  0
  7  8  2  0  0  0
  8  9  1  0  0  0
  9 10  1  0  0  0
 10 11  1  0  0  0
 11 12  1  0  0  0
 12 13  1  0  0  0
  7 14  1  0  0  0
 14 15  1  0  0  0
 15 16  1  0  0  0
 16 17  1  0  0  0
 17 18  1  0  0  0
 18 19  1  0  0  0
 21 23  1  0  0  0
 23 26  1  0  0  0
 26 27  2  0  0  0
 27 28  1  0  0  0
 28 29  2  0  0  0
 29 30  1  0  0  0
 30 31  1  0  0  0
 31 32  1  0  0  0
 32 33  2  0  0  0
 33 34  1  0  0  0
  6  1  1  0  0  0
 13  8  1  0  0  0
 19 14  1  0  0  0
 34 26  1  0  0  0
 34 30  2  0  0  0
 22 24  1  0  0  0
 23 25  1  0  0  0
 31 35  1  0  0  0
M  END
> <minimizedAffinity>
-8.13964

> <CNNscore>
0.2365596592

> <CNNaffinity>
6.0436301231

> <CNN_VS>
1.4296790361

> <CNNaffinity_variance>
0.0543523207

$$$$
[H]c1c([H])c(N([H])C(=O)N([H])c2c([H])c([H])c([H])c3c2c([H])nn3[H])c([H])c([H])c1C(=C1C([H])([H])C([H])([H])SC([H])([H])C1([H])[H])N1C([H])([H])C([H])([H])OC([H])([H])C1([H])[H]


 35 39  0  0  0  0  0  0  0  0999 V2000
  155.0992  140.5179  183.8123 C   0  0  0  0  0  0  0  0  0  0  0  0
  154.9366  139.2119  184.3430 C   0  0  0  0  0  0  0  0  0  0  0  0
  153.9532  138.3997  183.8791 C   0  0  0  0  0  0  0  0  0  0  0  0
  153.0873  138.7804  182.9030 C   0  0  0  0  0  0  0  0  0  0  0  0
  153.2034  140.0344  182.3581 C   0  0  0  0  0  0  0  0  0  0  0  0
  154.2150  140.8718  182.8345 C   0  0  0  0  0  0  0  0  0  0  0  0
  152.0247  137.8552  182.4548 C   0  0  0  0  0  0  0  0  0  0  0  0
  151.5667  137.8631  181.2473 C   0  0  0  0  0  0  0  0  0  0  0  0
  150.4682  136.8577  180.9341 C   0  0  0  0  0  0  0  0  0  0  0  0
  149.1992  137.6432  180.8060 C   0  0  0  0  0  0  0  0  0  0  0  0
  149.3997  138.7960  179.4241 S   0  0  0  0  0  0  0  0  0  0  0  0
  150.9946  139.6175  179.5869 C   0  0  0  0  0  0  0  0  0  0  0  0
  152.0472  138.7190  180.1901 C   0  0  0  0  0  0  0  0  0  0  0  0
  151.5370  136.9662  183.4752 N   0  0  0  0  0  0  0  0  0  0  0  0
  150.4804  137.2949  184.3997 C   0  0  0  0  0  0  0  0  0  0  0  0
  150.6192  136.3426  185.5894 C   0  0  0  0  0  0  0  0  0  0  0  0
  150.4836  135.0232  185.2368 O   0  0  0  0  0  0  0  0  0  0  0  0
  151.0460  134.6819  184.0299 C   0  0  0  0  0  0  0  0  0  0  0  0
  152.1329  135.6450  183.5969 C   0  0  0  0  0  0  0  0  0  0  0  0
  157.8527  140.1880  183.2989 O   0  0  0  0  0  0  0  0  0  0  0  0
  157.5094  141.0906  184.0632 C   0  0  0  0  0  0  0  0  0  0  0  0
  156.1189  141.3012  184.3649 N   0  0  0  0  0  0  0  0  0  0  0  0
  158.4418  141.9549  184.6757 N   0  0  0  0  0  0  0  0  0  0  0  0
  155.8560  142.0910  185.0368 H   0  0  0  0  0  0  0  0  0  0  0  0
  157.9863  142.6975  185.3233 H   0  0  0  0  0  0  0  0  0  0  0  0
  159.8226  141.9286  184.5211 C   0  0  0  0  0  0  0  0  0  0  0  0
  160.4764  141.4719  183.4325 C   0  0  0  0  0  0  0  0  0  0  0  0
  161.8743  141.5059  183.4052 C   0  0  0  0  0  0  0  0  0  0  0  0
  162.5963  141.9904  184.4534 C   0  0  0  0  0  0  0  0  0  0  0  0
  161.9503  142.4600  185.5705 C   0  0  0  0  0  0  0  0  0  0  0  0
  162.4048  142.9775  186.7137 N   0  0  0  0  0  0  0  0  0  0  0  0
  161.3734  143.2703  187.4577 N   0  0  0  0  0  0  0  0  0  0  0  0
  160.2334  142.9539  186.8236 C   0  0  0  0  0  0  0  0  0  0  0  0
  160.5951  142.4240  185.5907 C   0  0  0  0  0  0  0  0  0  0  0  0
  163.4226  143.1011  186.9182 H   0  0  0  0  0  0  0  0  0  0  0  0
 20 21  2  0  0  0
 21 22  1  0  0  0
 22  1  1  0  0  0
  1  2  2  0  0  0
  2  3  1  0  0  0
  3  4  2  0  0  0
  4  5  1  0  0  0
  5  6  2  0  0  0
  4  7  1  0  0  0
  7  8  2  0  0  0
  8  9  1  0  0  0
  9 10  1  0  0  0
 10 11  1  0  0  0
 11 12  1  0  0  0
 12 13  1  0  0  0
  7 14  1  0  0  0
 14 15  1  0  0  0
 15 16  1  0  0  0
 16 17  1  0  0  0
 17 18  1  0  0  0
 18 19  1  0  0  0
 21 23  1  0  0  0
 23 26  1  0  0  0
 26 27  2  0  0  0
 27 28  1  0  0  0
 28 29  2  0  0  0
 29 30  1  0  0  0
 30 31  1  0  0  0
 31 32  1  0  0  0
 32 33  2  0  0  0
 33 34  1  0  0  0
  6  1  1  0  0  0
 13  8  1  0  0  0
 19 14  1  0  0  0
 34 26  1  0  0  0
 34 30  2  0  0  0
 22 24  1  0  0  0
 23 25  1  0  0  0
 31 35  1  0  0  0
M  END
> <minimizedAffinity>
-8.69921

> <CNNscore>
0.2311388850

> <CNNaffinity>
6.1634116173

> <CNN_VS>
1.4246040583

> <CNNaffinity_variance>
0.0205067396

$$$$
[H]c1c([H])c(N([H])C(=O)N([H])c2c([H])c([H])c([H])c3c2c([H])nn3[H])c([H])c([H])c1C(=C1C([H])([H])C([H])([H])SC([H])([H])C1([H])[H])N1C([H])([H])C([H])([H])OC([H])([H])C1([H])[H]


 35 39  0  0  0  0  0  0  0  0999 V2000
  153.5047  139.9695  182.6320 C   0  0  0  0  0  0  0  0  0  0  0  0
  153.9082  139.3828  183.8595 C   0  0  0  0  0  0  0  0  0  0  0  0
  153.5093  138.1268  184.1841 C   0  0  0  0  0  0  0  0  0  0  0  0
  152.7190  137.3757  183.3726 C   0  0  0  0  0  0  0  0  0  0  0  0
  152.3019  137.8990  182.1746 C   0  0  0  0  0  0  0  0  0  0  0  0
  152.7115  139.1917  181.8389 C   0  0  0  0  0  0  0  0  0  0  0  0
  152.3028  136.0208  183.7931 C   0  0  0  0  0  0  0  0  0  0  0  0
  151.4190  135.8249  184.7142 C   0  0  0  0  0  0  0  0  0  0  0  0
  151.0975  134.3749  185.0456 C   0  0  0  0  0  0  0  0  0  0  0  0
  151.7129  134.0998  186.3833 C   0  0  0  0  0  0  0  0  0  0  0  0
  150.9308  135.2016  187.5888 S   0  0  0  0  0  0  0  0  0  0  0  0
  150.8897  136.8672  186.9042 C   0  0  0  0  0  0  0  0  0  0  0  0
  150.7049  136.8705  185.4057 C   0  0  0  0  0  0  0  0  0  0  0  0
  152.9742  134.9496  183.1068 N   0  0  0  0  0  0  0  0  0  0  0  0
  152.4412  134.2642  181.9556 C   0  0  0  0  0  0  0  0  0  0  0  0
  153.1715  132.9228  181.8599 C   0  0  0  0  0  0  0  0  0  0  0  0
  154.5255  133.0626  181.6852 O   0  0  0  0  0  0  0  0  0  0  0  0
  155.1000  134.0954  182.3873 C   0  0  0  0  0  0  0  0  0  0  0  0
  154.2769  134.5168  183.5877 C   0  0  0  0  0  0  0  0  0  0  0  0
  156.1990  140.7670  182.3875 O   0  0  0  0  0  0  0  0  0  0  0  0
  155.3261  141.6273  182.2659 C   0  0  0  0  0  0  0  0  0  0  0  0
  153.9361  141.2780  182.3861 N   0  0  0  0  0  0  0  0  0  0  0  0
  155.6324  142.9802  182.0059 N   0  0  0  0  0  0  0  0  0  0  0  0
  153.2042  142.0510  182.2799 H   0  0  0  0  0  0  0  0  0  0  0  0
  154.7570  143.6171  181.9272 H   0  0  0  0  0  0  0  0  0  0  0  0
  156.9001  143.5284  181.8518 C   0  0  0  0  0  0  0  0  0  0  0  0
  157.4687  144.4239  182.6860 C   0  0  0  0  0  0  0  0  0  0  0  0
  158.7578  144.8941  182.4154 C   0  0  0  0  0  0  0  0  0  0  0  0
  159.4576  144.4696  181.3268 C   0  0  0  0  0  0  0  0  0  0  0  0
  158.8972  143.5586  180.4655 C   0  0  0  0  0  0  0  0  0  0  0  0
  159.3531  142.9877  179.3487 N   0  0  0  0  0  0  0  0  0  0  0  0
  158.4252  142.1863  178.9019 N   0  0  0  0  0  0  0  0  0  0  0  0
  157.3529  142.2153  179.7088 C   0  0  0  0  0  0  0  0  0  0  0  0
  157.6472  143.1069  180.7336 C   0  0  0  0  0  0  0  0  0  0  0  0
  160.2990  143.1890  178.9512 H   0  0  0  0  0  0  0  0  0  0  0  0
 20 21  2  0  0  0
 21 22  1  0  0  0
 22  1  1  0  0  0
  1  2  2  0  0  0
  2  3  1  0  0  0
  3  4  2  0  0  0
  4  5  1  0  0  0
  5  6  2  0  0  0
  4  7  1  0  0  0
  7  8  2  0  0  0
  8  9  1  0  0  0
  9 10  1  0  0  0
 10 11  1  0  0  0
 11 12  1  0  0  0
 12 13  1  0  0  0
  7 14  1  0  0  0
 14 15  1  0  0  0
 15 16  1  0  0  0
 16 17  1  0  0  0
 17 18  1  0  0  0
 18 19  1  0  0  0
 21 23  1  0  0  0
 23 26  1  0  0  0
 26 27  2  0  0  0
 27 28  1  0  0  0
 28 29  2  0  0  0
 29 30  1  0  0  0
 30 31  1  0  0  0
 31 32  1  0  0  0
 32 33  2  0  0  0
 33 34  1  0  0  0
  6  1  1  0  0  0
 13  8  1  0  0  0
 19 14  1  0  0  0
 34 26  1  0  0  0
 34 30  2  0  0  0
 22 24  1  0  0  0
 23 25  1  0  0  0
 31 35  1  0  0  0
M  END
> <minimizedAffinity>
-7.00648

> <CNNscore>
0.2296383530

> <CNNaffinity>
6.0082001686

> <CNN_VS>
1.3797131777

> <CNNaffinity_variance>
0.0332937762

$$$$
[H]c1c([H])c2c([H])c(c1OC(F)(F)F)C([H])(N([H])C([H])([H])C([H])([H])n1c(Br)nc3c([H])c(Cl)c([H])c([H])c31)C([H])([H])N([H])C(=O)C2([H])[H]


 33 36  0  0  0  0  0  0  0  0999 V2000
  157.2269  135.2970  189.0967 C   0  0  0  0  0  0  0  0  0  0  0  0
  157.7131  134.4130  190.2067 C   0  0  0  0  0  0  0  0  0  0  0  0
  156.9137  134.2867  191.4697 C   0  0  0  0  0  0  0  0  0  0  0  0
  155.6282  135.0443  191.6227 C   0  0  0  0  0  0  0  0  0  0  0  0
  154.3504  135.4536  192.4467 C   0  0  0  0  0  0  0  0  0  0  0  0
  153.2320  136.3767  192.0638 C   0  0  0  0  0  0  0  0  0  0  0  0
  152.1951  136.5000  193.1407 O   0  0  0  0  0  0  0  0  0  0  0  0
  152.9070  137.2056  190.8565 N   0  0  0  0  0  0  0  0  0  0  0  0
  153.5660  137.4545  189.5322 C   0  0  0  0  0  0  0  0  0  0  0  0
  154.8228  136.9778  188.8666 C   0  0  0  0  0  0  0  0  0  0  0  0
  155.1420  135.9283  190.5126 C   0  0  0  0  0  0  0  0  0  0  0  0
  155.9413  136.0546  189.2496 C   0  0  0  0  0  0  0  0  0  0  0  0
  151.6214  137.9632  191.0095 H   0  0  0  0  0  0  0  0  0  0  0  0
  155.7488  136.9793  187.6865 N   0  0  0  0  0  0  0  0  0  0  0  0
  157.0207  136.1853  187.7302 H   0  0  0  0  0  0  0  0  0  0  0  0
  155.4029  137.7748  186.4628 C   0  0  0  0  0  0  0  0  0  0  0  0
  155.0570  138.5703  185.2390 C   0  0  0  0  0  0  0  0  0  0  0  0
  154.7111  139.3658  184.0153 N   0  0  0  0  0  0  0  0  0  0  0  0
  155.5062  140.5054  183.4507 C   0  0  0  0  0  0  0  0  0  0  0  0
  156.7869  141.0497  184.0107 Br  0  0  0  0  0  0  0  0  0  0  0  0
  154.7958  141.0052  182.2278 N   0  0  0  0  0  0  0  0  0  0  0  0
  153.5616  140.1745  182.0366 C   0  0  0  0  0  0  0  0  0  0  0  0
  152.4787  140.2098  180.9992 C   0  0  0  0  0  0  0  0  0  0  0  0
  151.3434  139.2317  181.0667 C   0  0  0  0  0  0  0  0  0  0  0  0
  150.2605  139.2670  180.0294 Cl  0  0  0  0  0  0  0  0  0  0  0  0
  151.2911  138.2185  182.1715 C   0  0  0  0  0  0  0  0  0  0  0  0
  152.3739  138.1832  183.2088 C   0  0  0  0  0  0  0  0  0  0  0  0
  153.5092  139.1612  183.1414 C   0  0  0  0  0  0  0  0  0  0  0  0
  158.0262  135.4233  187.8337 O   0  0  0  0  0  0  0  0  0  0  0  0
  160.2518  133.4929  187.2676 F   0  0  0  0  0  0  0  0  0  0  0  0
  159.1390  134.4582  187.5507 C   0  0  0  0  0  0  0  0  0  0  0  0
  160.1218  135.4120  188.1624 F   0  0  0  0  0  0  0  0  0  0  0  0
  158.1561  133.5043  186.9390 F   0  0  0  0  0  0  0  0  0  0  0  0
 30 31  1  0  0  0
 31 32  1  0  0  0
 31 33  1  0  0  0
 31 29  1  0  0  0
 29  1  1  0  0  0
  1  2  2  0  0  0
  2  3  1  0  0  0
  3  4  2  0  0  0
  4  5  1  0  0  0
  5  6  1  0  0  0
  6  7  2  0  0  0
  6  8  1  0  0  0
  8  9  1  0  0  0
  9 10  1  0  0  0
 10 14  1  0  0  0
 14 16  1  0  0  0
 16 17  1  0  0  0
 17 18  1  0  0  0
 18 19  1  0  0  0
 19 20  1  0  0  0
 19 21  2  0  0  0
 21 22  1  0  0  0
 22 23  2  0  0  0
 23 24  1  0  0  0
 24 25  1  0  0  0
 24 26  2  0  0  0
 26 27  1  0  0  0
 27 28  2  0  0  0
  4 11  1  0  0  0
 11 12  2  0  0  0
 12  1  1  0  0  0
 12 10  1  0  0  0
 28 18  1  0  0  0
 28 22  1  0  0  0
  8 13  1  0  0  0
 14 15  1  0  0  0
M  END
> <minimizedAffinity>
-7.11306

> <CNNscore>
0.3680025339

> <CNNaffinity>
5.8369116783

> <CNN_VS>
2.1479983330

> <CNNaffinity_variance>
0.1329900473

$$$$
[H]c1c([H])c2c([H])c(c1OC(F)(F)F)C([H])(N([H])C([H])([H])C([H])([H])n1c(Br)nc3c([H])c(Cl)c([H])c([H])c31)C([H])([H])N([H])C(=O)C2([H])[H]


 33 36  0  0  0  0  0  0  0  0999 V2000
  155.8187  136.3647  190.5057 C   0  0  0  0  0  0  0  0  0  0  0  0
  156.2477  135.8959  191.8644 C   0  0  0  0  0  0  0  0  0  0  0  0
  157.2469  134.7846  191.9936 C   0  0  0  0  0  0  0  0  0  0  0  0
  157.8171  134.1421  190.7640 C   0  0  0  0  0  0  0  0  0  0  0  0
  158.7548  133.0938  190.0560 C   0  0  0  0  0  0  0  0  0  0  0  0
  158.9660  132.8493  188.5913 C   0  0  0  0  0  0  0  0  0  0  0  0
  159.9523  131.7498  188.3292 O   0  0  0  0  0  0  0  0  0  0  0  0
  158.4225  133.4462  187.3270 N   0  0  0  0  0  0  0  0  0  0  0  0
  157.4425  134.5349  187.0040 C   0  0  0  0  0  0  0  0  0  0  0  0
  156.6002  135.4776  187.8113 C   0  0  0  0  0  0  0  0  0  0  0  0
  157.3881  134.6108  189.4052 C   0  0  0  0  0  0  0  0  0  0  0  0
  156.3889  135.7221  189.2761 C   0  0  0  0  0  0  0  0  0  0  0  0
  158.9927  132.8036  186.0974 H   0  0  0  0  0  0  0  0  0  0  0  0
  155.5989  136.5925  187.8783 N   0  0  0  0  0  0  0  0  0  0  0  0
  154.8408  136.8443  189.1479 H   0  0  0  0  0  0  0  0  0  0  0  0
  155.3558  137.4555  186.6758 C   0  0  0  0  0  0  0  0  0  0  0  0
  155.1126  138.3185  185.4732 C   0  0  0  0  0  0  0  0  0  0  0  0
  154.8695  139.1815  184.2707 N   0  0  0  0  0  0  0  0  0  0  0  0
  155.7787  140.2603  183.7614 C   0  0  0  0  0  0  0  0  0  0  0  0
  157.0907  140.6655  184.3651 Br  0  0  0  0  0  0  0  0  0  0  0  0
  155.1456  140.8628  182.5423 N   0  0  0  0  0  0  0  0  0  0  0  0
  153.8451  140.1564  182.2982 C   0  0  0  0  0  0  0  0  0  0  0  0
  152.7942  140.3250  181.2412 C   0  0  0  0  0  0  0  0  0  0  0  0
  151.5726  139.4545  181.2525 C   0  0  0  0  0  0  0  0  0  0  0  0
  150.5218  139.6232  180.1956 Cl  0  0  0  0  0  0  0  0  0  0  0  0
  151.4020  138.4155  182.3208 C   0  0  0  0  0  0  0  0  0  0  0  0
  152.4529  138.2468  183.3778 C   0  0  0  0  0  0  0  0  0  0  0  0
  153.6744  139.1172  183.3665 C   0  0  0  0  0  0  0  0  0  0  0  0
  154.8195  137.4760  190.3766 O   0  0  0  0  0  0  0  0  0  0  0  0
  152.9212  138.0553  192.6262 F   0  0  0  0  0  0  0  0  0  0  0  0
  153.8704  137.7656  191.5014 C   0  0  0  0  0  0  0  0  0  0  0  0
  153.0741  136.5459  191.1435 F   0  0  0  0  0  0  0  0  0  0  0  0
  154.6667  138.9853  191.8593 F   0  0  0  0  0  0  0  0  0  0  0  0
 30 31  1  0  0  0
 31 32  1  0  0  0
 31 33  1  0  0  0
 31 29  1  0  0  0
 29  1  1  0  0  0
  1  2  2  0  0  0
  2  3  1  0  0  0
  3  4  2  0  0  0
  4  5  1  0  0  0
  5  6  1  0  0  0
  6  7  2  0  0  0
  6  8  1  0  0  0
  8  9  1  0  0  0
  9 10  1  0  0  0
 10 14  1  0  0  0
 14 16  1  0  0  0
 16 17  1  0  0  0
 17 18  1  0  0  0
 18 19  1  0  0  0
 19 20  1  0  0  0
 19 21  2  0  0  0
 21 22  1  0  0  0
 22 23  2  0  0  0
 23 24  1  0  0  0
 24 25  1  0  0  0
 24 26  2  0  0  0
 26 27  1  0  0  0
 27 28  2  0  0  0
  4 11  1  0  0  0
 11 12  2  0  0  0
 12  1  1  0  0  0
 12 10  1  0  0  0
 28 18  1  0  0  0
 28 22  1  0  0  0
  8 13  1  0  0  0
 14 15  1  0  0  0
M  END
> <minimizedAffinity>
-7.05561

> <CNNscore>
0.3613304794

> <CNNaffinity>
5.9067330360

> <CNN_VS>
2.1342825890

> <CNNaffinity_variance>
0.1220700964

$$$$
[H]c1c([H])c2c([H])c(c1OC(F)(F)F)C([H])(N([H])C([H])([H])C([H])([H])n1c(Br)nc3c([H])c(Cl)c([H])c([H])c31)C([H])([H])N([H])C(=O)C2([H])[H]


 33 36  0  0  0  0  0  0  0  0999 V2000
  155.7361  136.1316  190.4810 C   0  0  0  0  0  0  0  0  0  0  0  0
  156.2597  135.7840  191.8430 C   0  0  0  0  0  0  0  0  0  0  0  0
  157.3436  134.7576  191.9903 C   0  0  0  0  0  0  0  0  0  0  0  0
  157.9039  134.0788  190.7756 C   0  0  0  0  0  0  0  0  0  0  0  0
  158.8840  133.0564  190.0877 C   0  0  0  0  0  0  0  0  0  0  0  0
  159.0465  132.7329  188.6321 C   0  0  0  0  0  0  0  0  0  0  0  0
  160.0989  131.6920  188.3893 O   0  0  0  0  0  0  0  0  0  0  0  0
  158.4034  133.2061  187.3621 N   0  0  0  0  0  0  0  0  0  0  0  0
  157.3316  134.1987  187.0220 C   0  0  0  0  0  0  0  0  0  0  0  0
  156.4588  135.1294  187.8107 C   0  0  0  0  0  0  0  0  0  0  0  0
  157.3802  134.4265  189.4137 C   0  0  0  0  0  0  0  0  0  0  0  0
  156.2964  135.4529  189.2664 C   0  0  0  0  0  0  0  0  0  0  0  0
  158.9637  132.5273  186.1475 H   0  0  0  0  0  0  0  0  0  0  0  0
  155.3814  136.1720  187.8589 N   0  0  0  0  0  0  0  0  0  0  0  0
  154.5160  136.3004  189.0772 H   0  0  0  0  0  0  0  0  0  0  0  0
  155.1695  137.0861  186.6887 C   0  0  0  0  0  0  0  0  0  0  0  0
  154.9576  138.0003  185.5183 C   0  0  0  0  0  0  0  0  0  0  0  0
  154.7457  138.9144  184.3481 N   0  0  0  0  0  0  0  0  0  0  0  0
  153.6144  138.8415  183.3660 C   0  0  0  0  0  0  0  0  0  0  0  0
  152.4962  137.8417  183.3816 Br  0  0  0  0  0  0  0  0  0  0  0  0
  153.7975  139.9440  182.3654 N   0  0  0  0  0  0  0  0  0  0  0  0
  155.0420  140.6982  182.7292 C   0  0  0  0  0  0  0  0  0  0  0  0
  155.7173  141.8822  182.1030 C   0  0  0  0  0  0  0  0  0  0  0  0
  156.9787  142.4298  182.7022 C   0  0  0  0  0  0  0  0  0  0  0  0
  157.6539  143.6138  182.0760 Cl  0  0  0  0  0  0  0  0  0  0  0  0
  157.5647  141.7934  183.9276 C   0  0  0  0  0  0  0  0  0  0  0  0
  156.8895  140.6095  184.5538 C   0  0  0  0  0  0  0  0  0  0  0  0
  155.6281  140.0618  183.9546 C   0  0  0  0  0  0  0  0  0  0  0  0
  154.6522  137.1580  190.3338 O   0  0  0  0  0  0  0  0  0  0  0  0
  154.9356  139.8385  191.6508 F   0  0  0  0  0  0  0  0  0  0  0  0
  154.7939  138.4982  190.9923 C   0  0  0  0  0  0  0  0  0  0  0  0
  153.8195  138.0800  192.0532 F   0  0  0  0  0  0  0  0  0  0  0  0
  155.7683  138.9165  189.9314 F   0  0  0  0  0  0  0  0  0  0  0  0
 30 31  1  0  0  0
 31 32  1  0  0  0
 31 33  1  0  0  0
 31 29  1  0  0  0
 29  1  1  0  0  0
  1  2  2  0  0  0
  2  3  1  0  0  0
  3  4  2  0  0  0
  4  5  1  0  0  0
  5  6  1  0  0  0
  6  7  2  0  0  0
  6  8  1  0  0  0
  8  9  1  0  0  0
  9 10  1  0  0  0
 10 14  1  0  0  0
 14 16  1  0  0  0
 16 17  1  0  0  0
 17 18  1  0  0  0
 18 19  1  0  0  0
 19 20  1  0  0  0
 19 21  2  0  0  0
 21 22  1  0  0  0
 22 23  2  0  0  0
 23 24  1  0  0  0
 24 25  1  0  0  0
 24 26  2  0  0  0
 26 27  1  0  0  0
 27 28  2  0  0  0
  4 11  1  0  0  0
 11 12  2  0  0  0
 12  1  1  0  0  0
 12 10  1  0  0  0
 28 18  1  0  0  0
 28 22  1  0  0  0
  8 13  1  0  0  0
 14 15  1  0  0  0
M  END
> <minimizedAffinity>
-7.52877

> <CNNscore>
0.3310818076

> <CNNaffinity>
6.0653557777

> <CNN_VS>
2.0081288815

> <CNNaffinity_variance>
0.0847327113

$$$$
[H]c1c([H])c2c([H])c(c1OC(F)(F)F)C([H])(N([H])C([H])([H])C([H])([H])n1c(Br)nc3c([H])c(Cl)c([H])c([H])c31)C([H])([H])N([H])C(=O)C2([H])[H]


 33 36  0  0  0  0  0  0  0  0999 V2000
  152.7560  138.1034  182.3688 C   0  0  0  0  0  0  0  0  0  0  0  0
  151.9954  136.9187  181.8512 C   0  0  0  0  0  0  0  0  0  0  0  0
  151.5548  135.8395  182.7953 C   0  0  0  0  0  0  0  0  0  0  0  0
  151.8748  135.9450  184.2569 C   0  0  0  0  0  0  0  0  0  0  0  0
  151.8248  135.3911  185.7300 C   0  0  0  0  0  0  0  0  0  0  0  0
  152.3858  135.9887  186.9861 C   0  0  0  0  0  0  0  0  0  0  0  0
  152.1218  135.1391  188.1938 O   0  0  0  0  0  0  0  0  0  0  0  0
  153.1490  137.2367  187.3181 N   0  0  0  0  0  0  0  0  0  0  0  0
  153.6673  138.4039  186.5312 C   0  0  0  0  0  0  0  0  0  0  0  0
  153.6370  138.8066  185.0867 C   0  0  0  0  0  0  0  0  0  0  0  0
  152.6354  137.1297  184.7745 C   0  0  0  0  0  0  0  0  0  0  0  0
  153.0760  138.2089  183.8304 C   0  0  0  0  0  0  0  0  0  0  0  0
  153.4690  137.3422  188.7798 H   0  0  0  0  0  0  0  0  0  0  0  0
  153.9924  139.7793  184.0015 N   0  0  0  0  0  0  0  0  0  0  0  0
  152.9270  140.3010  183.0835 H   0  0  0  0  0  0  0  0  0  0  0  0
  155.4131  140.2303  183.8344 C   0  0  0  0  0  0  0  0  0  0  0  0
  156.8340  140.6814  183.6673 C   0  0  0  0  0  0  0  0  0  0  0  0
  158.2548  141.1324  183.5002 N   0  0  0  0  0  0  0  0  0  0  0  0
  159.0180  141.1822  182.2099 C   0  0  0  0  0  0  0  0  0  0  0  0
  158.4945  140.7897  180.8601 Br  0  0  0  0  0  0  0  0  0  0  0  0
  160.3967  141.6934  182.5064 N   0  0  0  0  0  0  0  0  0  0  0  0
  160.4855  141.9595  183.9798 C   0  0  0  0  0  0  0  0  0  0  0  0
  161.6009  142.4728  184.8416 C   0  0  0  0  0  0  0  0  0  0  0  0
  161.3923  142.6394  186.3178 C   0  0  0  0  0  0  0  0  0  0  0  0
  162.5075  143.1526  187.1795 Cl  0  0  0  0  0  0  0  0  0  0  0  0
  160.0684  142.2926  186.9319 C   0  0  0  0  0  0  0  0  0  0  0  0
  158.9532  141.7794  186.0702 C   0  0  0  0  0  0  0  0  0  0  0  0
  159.1617  141.6128  184.5941 C   0  0  0  0  0  0  0  0  0  0  0  0
  153.1965  139.1826  181.4248 O   0  0  0  0  0  0  0  0  0  0  0  0
  151.1582  140.7321  179.8614 F   0  0  0  0  0  0  0  0  0  0  0  0
  152.1774  139.9573  180.6431 C   0  0  0  0  0  0  0  0  0  0  0  0
  152.0353  140.9211  181.7837 F   0  0  0  0  0  0  0  0  0  0  0  0
  152.3195  138.9936  179.5026 F   0  0  0  0  0  0  0  0  0  0  0  0
 30 31  1  0  0  0
 31 32  1  0  0  0
 31 33  1  0  0  0
 31 29  1  0  0  0
 29  1  1  0  0  0
  1  2  2  0  0  0
  2  3  1  0  0  0
  3  4  2  0  0  0
  4  5  1  0  0  0
  5  6  1  0  0  0
  6  7  2  0  0  0
  6  8  1  0  0  0
  8  9  1  0  0  0
  9 10  1  0  0  0
 10 14  1  0  0  0
 14 16  1  0  0  0
 16 17  1  0  0  0
 17 18  1  0  0  0
 18 19  1  0  0  0
 19 20  1  0  0  0
 19 21  2  0  0  0
 21 22  1  0  0  0
 22 23  2  0  0  0
 23 24  1  0  0  0
 24 25  1  0  0  0
 24 26  2  0  0  0
 26 27  1  0  0  0
 27 28  2  0  0  0
  4 11  1  0  0  0
 11 12  2  0  0  0
 12  1  1  0  0  0
 12 10  1  0  0  0
 28 18  1  0  0  0
 28 22  1  0  0  0
  8 13  1  0  0  0
 14 15  1  0  0  0
M  END
> <minimizedAffinity>
-8.33406

> <CNNscore>
0.2883285582

> <CNNaffinity>
6.3110499382

> <CNN_VS>
1.8196558952

> <CNNaffinity_variance>
0.0579417646

$$$$
[H]c1c([H])c2c([H])c(c1OC(F)(F)F)C([H])(N([H])C([H])([H])C([H])([H])n1c(Br)nc3c([H])c(Cl)c([H])c([H])c31)C([H])([H])N([H])C(=O)C2([H])[H]


 33 36  0  0  0  0  0  0  0  0999 V2000
  152.7259  137.2885  184.2623 C   0  0  0  0  0  0  0  0  0  0  0  0
  151.8039  136.1065  184.2105 C   0  0  0  0  0  0  0  0  0  0  0  0
  150.8124  135.9772  183.0923 C   0  0  0  0  0  0  0  0  0  0  0  0
  150.7429  137.0299  182.0261 C   0  0  0  0  0  0  0  0  0  0  0  0
  150.1282  137.6251  180.7043 C   0  0  0  0  0  0  0  0  0  0  0  0
  150.4868  138.8874  179.9777 C   0  0  0  0  0  0  0  0  0  0  0  0
  149.6565  139.0965  178.7460 O   0  0  0  0  0  0  0  0  0  0  0  0
  151.4809  139.9897  180.1936 N   0  0  0  0  0  0  0  0  0  0  0  0
  152.5281  140.2863  181.2258 C   0  0  0  0  0  0  0  0  0  0  0  0
  153.0151  139.6035  182.4694 C   0  0  0  0  0  0  0  0  0  0  0  0
  151.6649  138.2118  182.0779 C   0  0  0  0  0  0  0  0  0  0  0  0
  152.6564  138.3412  183.1960 C   0  0  0  0  0  0  0  0  0  0  0  0
  151.4114  141.0424  179.1273 H   0  0  0  0  0  0  0  0  0  0  0  0
  153.9338  139.5633  183.6544 N   0  0  0  0  0  0  0  0  0  0  0  0
  153.4588  138.9803  184.9522 H   0  0  0  0  0  0  0  0  0  0  0  0
  155.3276  140.1061  183.5415 C   0  0  0  0  0  0  0  0  0  0  0  0
  156.7214  140.6489  183.4286 C   0  0  0  0  0  0  0  0  0  0  0  0
  158.1151  141.1917  183.3158 N   0  0  0  0  0  0  0  0  0  0  0  0
  158.8894  141.3757  182.0443 C   0  0  0  0  0  0  0  0  0  0  0  0
  158.4058  141.0491  180.6624 Br  0  0  0  0  0  0  0  0  0  0  0  0
  160.2321  141.9436  182.3973 N   0  0  0  0  0  0  0  0  0  0  0  0
  160.2877  142.1106  183.8869 C   0  0  0  0  0  0  0  0  0  0  0  0
  161.3607  142.6258  184.7998 C   0  0  0  0  0  0  0  0  0  0  0  0
  161.1253  142.6763  186.2804 C   0  0  0  0  0  0  0  0  0  0  0  0
  162.1982  143.1914  187.1932 Cl  0  0  0  0  0  0  0  0  0  0  0  0
  159.8169  142.2116  186.8480 C   0  0  0  0  0  0  0  0  0  0  0  0
  158.7439  141.6965  185.9352 C   0  0  0  0  0  0  0  0  0  0  0  0
  158.9793  141.6459  184.4546 C   0  0  0  0  0  0  0  0  0  0  0  0
  153.7174  137.4178  185.3804 O   0  0  0  0  0  0  0  0  0  0  0  0
  153.0830  139.1356  187.7567 F   0  0  0  0  0  0  0  0  0  0  0  0
  153.4002  138.2767  186.5686 C   0  0  0  0  0  0  0  0  0  0  0  0
  151.9550  137.8891  186.4629 F   0  0  0  0  0  0  0  0  0  0  0  0
  154.8454  138.6643  186.6742 F   0  0  0  0  0  0  0  0  0  0  0  0
 30 31  1  0  0  0
 31 32  1  0  0  0
 31 33  1  0  0  0
 31 29  1  0  0  0
 29  1  1  0  0  0
  1  2  2  0  0  0
  2  3  1  0  0  0
  3  4  2  0  0  0
  4  5  1  0  0  0
  5  6  1  0  0  0
  6  7  2  0  0  0
  6  8  1  0  0  0
  8  9  1  0  0  0
  9 10  1  0  0  0
 10 14  1  0  0  0
 14 16  1  0  0  0
 16 17  1  0  0  0
 17 18  1  0  0  0
 18 19  1  0  0  0
 19 20  1  0  0  0
 19 21  2  0  0  0
 21 22  1  0  0  0
 22 23  2  0  0  0
 23 24  1  0  0  0
 24 25  1  0  0  0
 24 26  2  0  0  0
 26 27  1  0  0  0
 27 28  2  0  0  0
  4 11  1  0  0  0
 11 12  2  0  0  0
 12  1  1  0  0  0
 12 10  1  0  0  0
 28 18  1  0  0  0
 28 22  1  0  0  0
  8 13  1  0  0  0
 14 15  1  0  0  0
M  END
> <minimizedAffinity>
-8.76519

> <CNNscore>
0.2836087942

> <CNNaffinity>
6.4398941994

> <CNN_VS>
1.8264106512

> <CNNaffinity_variance>
0.0438916124

$$$$
[H]c1c([H])c2c([H])c(c1OC(F)(F)F)C([H])(N([H])C([H])([H])C([H])([H])n1c(Br)nc3c([H])c(Cl)c([H])c([H])c31)C([H])([H])N([H])C(=O)C2([H])[H]


 33 36  0  0  0  0  0  0  0  0999 V2000
  150.7451  137.2663  181.7324 C   0  0  0  0  0  0  0  0  0  0  0  0
  149.8699  136.3783  180.8986 C   0  0  0  0  0  0  0  0  0  0  0  0
  150.1345  134.9029  180.8428 C   0  0  0  0  0  0  0  0  0  0  0  0
  151.2745  134.3155  181.6208 C   0  0  0  0  0  0  0  0  0  0  0  0
  152.1521  133.0927  182.0836 C   0  0  0  0  0  0  0  0  0  0  0  0
  153.3401  133.0722  182.9990 C   0  0  0  0  0  0  0  0  0  0  0  0
  153.8970  131.6920  183.1860 O   0  0  0  0  0  0  0  0  0  0  0  0
  154.1022  134.1080  183.7713 N   0  0  0  0  0  0  0  0  0  0  0  0
  153.9915  135.5935  183.9480 C   0  0  0  0  0  0  0  0  0  0  0  0
  153.0733  136.6583  183.4258 C   0  0  0  0  0  0  0  0  0  0  0  0
  152.1498  135.2035  182.4546 C   0  0  0  0  0  0  0  0  0  0  0  0
  151.8851  136.6789  182.5104 C   0  0  0  0  0  0  0  0  0  0  0  0
  155.2421  133.5206  184.5493 H   0  0  0  0  0  0  0  0  0  0  0  0
  152.6590  138.0985  183.3596 N   0  0  0  0  0  0  0  0  0  0  0  0
  151.2034  138.4604  183.3481 H   0  0  0  0  0  0  0  0  0  0  0  0
  153.7003  139.1767  183.3050 C   0  0  0  0  0  0  0  0  0  0  0  0
  154.7418  140.2550  183.2504 C   0  0  0  0  0  0  0  0  0  0  0  0
  155.7831  141.3331  183.1958 N   0  0  0  0  0  0  0  0  0  0  0  0
  155.5402  142.7780  182.8746 C   0  0  0  0  0  0  0  0  0  0  0  0
  154.2132  143.3984  182.5516 Br  0  0  0  0  0  0  0  0  0  0  0  0
  156.8572  143.4936  182.9330 N   0  0  0  0  0  0  0  0  0  0  0  0
  157.9140  142.4910  183.2903 C   0  0  0  0  0  0  0  0  0  0  0  0
  159.3952  142.6214  183.4888 C   0  0  0  0  0  0  0  0  0  0  0  0
  160.2124  141.4164  183.8497 C   0  0  0  0  0  0  0  0  0  0  0  0
  161.6935  141.5468  184.0482 Cl  0  0  0  0  0  0  0  0  0  0  0  0
  159.5486  140.0812  184.0121 C   0  0  0  0  0  0  0  0  0  0  0  0
  158.0676  139.9508  183.8136 C   0  0  0  0  0  0  0  0  0  0  0  0
  157.2502  141.1557  183.4527 C   0  0  0  0  0  0  0  0  0  0  0  0
  150.4805  138.7417  181.7882 O   0  0  0  0  0  0  0  0  0  0  0  0
  150.5747  140.3787  179.2759 F   0  0  0  0  0  0  0  0  0  0  0  0
  150.5276  139.5602  180.5321 C   0  0  0  0  0  0  0  0  0  0  0  0
  152.0266  139.5096  180.5554 F   0  0  0  0  0  0  0  0  0  0  0  0
  149.0287  139.6107  180.5087 F   0  0  0  0  0  0  0  0  0  0  0  0
 30 31  1  0  0  0
 31 32  1  0  0  0
 31 33  1  0  0  0
 31 29  1  0  0  0
 29  1  1  0  0  0
  1  2  2  0  0  0
  2  3  1  0  0  0
  3  4  2  0  0  0
  4  5  1  0  0  0
  5  6  1  0  0  0
  6  7  2  0  0  0
  6  8  1  0  0  0
  8  9  1  0  0  0
  9 10  1  0  0  0
 10 14  1  0  0  0
 14 16  1  0  0  0
 16 17  1  0  0  0
 17 18  1  0  0  0
 18 19  1  0  0  0
 19 20  1  0  0  0
 19 21  2  0  0  0
 21 22  1  0  0  0
 22 23  2  0  0  0
 23 24  1  0  0  0
 24 25  1  0  0  0
 24 26  2  0  0  0
 26 27  1  0  0  0
 27 28  2  0  0  0
  4 11  1  0  0  0
 11 12  2  0  0  0
 12  1  1  0  0  0
 12 10  1  0  0  0
 28 18  1  0  0  0
 28 22  1  0  0  0
  8 13  1  0  0  0
 14 15  1  0  0  0
M  END
> <minimizedAffinity>
-6.96931

> <CNNscore>
0.2773115635

> <CNNaffinity>
6.2902932167

> <CNN_VS>
1.7443710566

> <CNNaffinity_variance>
0.0390413702

$$$$
[H]c1c([H])c2c([H])c(c1OC(F)(F)F)C([H])(N([H])C([H])([H])C([H])([H])n1c(Br)nc3c([H])c(Cl)c([H])c([H])c31)C([H])([H])N([H])C(=O)C2([H])[H]


 33 36  0  0  0  0  0  0  0  0999 V2000
  157.4221  135.2605  188.9831 C   0  0  0  0  0  0  0  0  0  0  0  0
  157.7785  134.3125  190.0896 C   0  0  0  0  0  0  0  0  0  0  0  0
  156.9197  134.2355  191.3170 C   0  0  0  0  0  0  0  0  0  0  0  0
  155.7046  135.1066  191.4380 C   0  0  0  0  0  0  0  0  0  0  0  0
  154.4373  135.6165  192.2212 C   0  0  0  0  0  0  0  0  0  0  0  0
  153.4257  136.6477  191.8174 C   0  0  0  0  0  0  0  0  0  0  0  0
  152.3613  136.8452  192.8557 O   0  0  0  0  0  0  0  0  0  0  0  0
  153.2287  137.5278  190.6188 N   0  0  0  0  0  0  0  0  0  0  0  0
  153.9617  137.7411  189.3276 C   0  0  0  0  0  0  0  0  0  0  0  0
  155.1953  137.1628  188.7002 C   0  0  0  0  0  0  0  0  0  0  0  0
  155.3482  136.0546  190.3315 C   0  0  0  0  0  0  0  0  0  0  0  0
  156.2070  136.1316  189.1041 C   0  0  0  0  0  0  0  0  0  0  0  0
  152.0135  138.3989  190.7398 H   0  0  0  0  0  0  0  0  0  0  0  0
  156.1652  137.1020  187.5575 N   0  0  0  0  0  0  0  0  0  0  0  0
  157.2833  136.1023  187.5752 H   0  0  0  0  0  0  0  0  0  0  0  0
  156.0170  138.0410  186.3972 C   0  0  0  0  0  0  0  0  0  0  0  0
  155.8687  138.9800  185.2368 C   0  0  0  0  0  0  0  0  0  0  0  0
  155.7204  139.9189  184.0765 N   0  0  0  0  0  0  0  0  0  0  0  0
  154.5682  139.9598  183.1171 C   0  0  0  0  0  0  0  0  0  0  0  0
  153.3618  139.0688  183.1495 Br  0  0  0  0  0  0  0  0  0  0  0  0
  154.8340  141.0480  182.1195 N   0  0  0  0  0  0  0  0  0  0  0  0
  156.1505  141.6797  182.4624 C   0  0  0  0  0  0  0  0  0  0  0  0
  156.9213  142.8002  181.8296 C   0  0  0  0  0  0  0  0  0  0  0  0
  158.2400  143.2228  182.4063 C   0  0  0  0  0  0  0  0  0  0  0  0
  159.0107  144.3433  181.7735 Cl  0  0  0  0  0  0  0  0  0  0  0  0
  158.7877  142.5250  183.6158 C   0  0  0  0  0  0  0  0  0  0  0  0
  158.0170  141.4046  184.2487 C   0  0  0  0  0  0  0  0  0  0  0  0
  156.6984  140.9819  183.6720 C   0  0  0  0  0  0  0  0  0  0  0  0
  158.2809  135.3374  187.7557 O   0  0  0  0  0  0  0  0  0  0  0  0
  160.4917  133.3515  187.3448 F   0  0  0  0  0  0  0  0  0  0  0  0
  159.3863  134.3445  187.5503 C   0  0  0  0  0  0  0  0  0  0  0  0
  160.3584  135.2959  188.1826 F   0  0  0  0  0  0  0  0  0  0  0  0
  158.4142  133.3931  186.9180 F   0  0  0  0  0  0  0  0  0  0  0  0
 30 31  1  0  0  0
 31 32  1  0  0  0
 31 33  1  0  0  0
 31 29  1  0  0  0
 29  1  1  0  0  0
  1  2  2  0  0  0
  2  3  1  0  0  0
  3  4  2  0  0  0
  4  5  1  0  0  0
  5  6  1  0  0  0
  6  7  2  0  0  0
  6  8  1  0  0  0
  8  9  1  0  0  0
  9 10  1  0  0  0
 10 14  1  0  0  0
 14 16  1  0  0  0
 16 17  1  0  0  0
 17 18  1  0  0  0
 18 19  1  0  0  0
 19 20  1  0  0  0
 19 21  2  0  0  0
 21 22  1  0  0  0
 22 23  2  0  0  0
 23 24  1  0  0  0
 24 25  1  0  0  0
 24 26  2  0  0  0
 26 27  1  0  0  0
 27 28  2  0  0  0
  4 11  1  0  0  0
 11 12  2  0  0  0
 12  1  1  0  0  0
 12 10  1  0  0  0
 28 18  1  0  0  0
 28 22  1  0  0  0
  8 13  1  0  0  0
 14 15  1  0  0  0
M  END
> <minimizedAffinity>
-7.69554

> <CNNscore>
0.2577999234

> <CNNaffinity>
6.1154613495

> <CNN_VS>
1.5765655041

> <CNNaffinity_variance>
0.0511654913

$$$$
[H]c1c([H])c2c([H])c(c1OC(F)(F)F)C([H])(N([H])C([H])([H])C([H])([H])n1c(Br)nc3c([H])c(Cl)c([H])c([H])c31)C([H])([H])N([H])C(=O)C2([H])[H]


 33 36  0  0  0  0  0  0  0  0999 V2000
  154.5558  136.0652  189.3516 C   0  0  0  0  0  0  0  0  0  0  0  0
  155.1494  136.2643  190.7146 C   0  0  0  0  0  0  0  0  0  0  0  0
  156.4654  135.6322  191.0592 C   0  0  0  0  0  0  0  0  0  0  0  0
  157.1877  134.8010  190.0406 C   0  0  0  0  0  0  0  0  0  0  0  0
  158.4045  133.9085  189.5909 C   0  0  0  0  0  0  0  0  0  0  0  0
  158.6499  133.2363  188.2727 C   0  0  0  0  0  0  0  0  0  0  0  0
  159.9402  132.4718  188.2495 O   0  0  0  0  0  0  0  0  0  0  0  0
  157.9077  133.1492  186.9720 N   0  0  0  0  0  0  0  0  0  0  0  0
  156.6127  133.6983  186.4510 C   0  0  0  0  0  0  0  0  0  0  0  0
  155.5235  134.5619  187.0148 C   0  0  0  0  0  0  0  0  0  0  0  0
  156.5940  134.6020  188.6776 C   0  0  0  0  0  0  0  0  0  0  0  0
  155.2781  135.2341  188.3331 C   0  0  0  0  0  0  0  0  0  0  0  0
  158.6301  132.3181  185.9535 H   0  0  0  0  0  0  0  0  0  0  0  0
  154.2091  135.2662  186.8527 N   0  0  0  0  0  0  0  0  0  0  0  0
  153.0707  134.9519  187.7775 H   0  0  0  0  0  0  0  0  0  0  0  0
  154.0331  136.2849  185.7658 C   0  0  0  0  0  0  0  0  0  0  0  0
  153.8571  137.3036  184.6789 C   0  0  0  0  0  0  0  0  0  0  0  0
  153.6812  138.3223  183.5921 N   0  0  0  0  0  0  0  0  0  0  0  0
  154.5454  139.5269  183.3644 C   0  0  0  0  0  0  0  0  0  0  0  0
  155.7374  139.9244  184.1837 Br  0  0  0  0  0  0  0  0  0  0  0  0
  154.0084  140.2643  182.1737 N   0  0  0  0  0  0  0  0  0  0  0  0
  152.8123  139.5155  181.6654 C   0  0  0  0  0  0  0  0  0  0  0  0
  151.8812  139.7714  180.5175 C   0  0  0  0  0  0  0  0  0  0  0  0
  150.7477  138.8270  180.2464 C   0  0  0  0  0  0  0  0  0  0  0  0
  149.8167  139.0829  179.0986 Cl  0  0  0  0  0  0  0  0  0  0  0  0
  150.5455  137.6268  181.1230 C   0  0  0  0  0  0  0  0  0  0  0  0
  151.4766  137.3708  182.2708 C   0  0  0  0  0  0  0  0  0  0  0  0
  152.6100  138.3152  182.5420 C   0  0  0  0  0  0  0  0  0  0  0  0
  153.2398  136.6973  189.0071 O   0  0  0  0  0  0  0  0  0  0  0  0
  153.1696  139.3800  187.6659 F   0  0  0  0  0  0  0  0  0  0  0  0
  153.2048  138.0386  188.3365 C   0  0  0  0  0  0  0  0  0  0  0  0
  154.4933  138.4086  189.0093 F   0  0  0  0  0  0  0  0  0  0  0  0
  151.9162  137.6686  187.6638 F   0  0  0  0  0  0  0  0  0  0  0  0
 30 31  1  0  0  0
 31 32  1  0  0  0
 31 33  1  0  0  0
 31 29  1  0  0  0
 29  1  1  0  0  0
  1  2  2  0  0  0
  2  3  1  0  0  0
  3  4  2  0  0  0
  4  5  1  0  0  0
  5  6  1  0  0  0
  6  7  2  0  0  0
  6  8  1  0  0  0
  8  9  1  0  0  0
  9 10  1  0  0  0
 10 14  1  0  0  0
 14 16  1  0  0  0
 16 17  1  0  0  0
 17 18  1  0  0  0
 18 19  1  0  0  0
 19 20  1  0  0  0
 19 21  2  0  0  0
 21 22  1  0  0  0
 22 23  2  0  0  0
 23 24  1  0  0  0
 24 25  1  0  0  0
 24 26  2  0  0  0
 26 27  1  0  0  0
 27 28  2  0  0  0
  4 11  1  0  0  0
 11 12  2  0  0  0
 12  1  1  0  0  0
 12 10  1  0  0  0
 28 18  1  0  0  0
 28 22  1  0  0  0
  8 13  1  0  0  0
 14 15  1  0  0  0
M  END
> <minimizedAffinity>
-6.67577

> <CNNscore>
0.2573855221

> <CNNaffinity>
5.6307082176

> <CNN_VS>
1.4492627382

> <CNNaffinity_variance>
0.0571537241

$$$$
[H]c1c([H])c2c([H])c(c1OC(F)(F)F)C([H])(N([H])C([H])([H])C([H])([H])n1c(Br)nc3c([H])c(Cl)c([H])c([H])c31)C([H])([H])N([H])C(=O)C2([H])[H]


 33 36  0  0  0  0  0  0  0  0999 V2000
  154.4476  140.0080  183.4626 C   0  0  0  0  0  0  0  0  0  0  0  0
  154.0151  141.0416  182.4653 C   0  0  0  0  0  0  0  0  0  0  0  0
  152.8581  140.7645  181.5517 C   0  0  0  0  0  0  0  0  0  0  0  0
  152.1336  139.4537  181.6355 C   0  0  0  0  0  0  0  0  0  0  0  0
  151.0069  138.4604  181.1630 C   0  0  0  0  0  0  0  0  0  0  0  0
  150.6886  137.0824  181.6626 C   0  0  0  0  0  0  0  0  0  0  0  0
  149.5274  136.4643  180.9417 O   0  0  0  0  0  0  0  0  0  0  0  0
  151.2592  136.1772  182.7139 N   0  0  0  0  0  0  0  0  0  0  0  0
  152.3843  136.2754  183.7010 C   0  0  0  0  0  0  0  0  0  0  0  0
  153.4048  137.3191  184.0459 C   0  0  0  0  0  0  0  0  0  0  0  0
  152.5660  138.4202  182.6328 C   0  0  0  0  0  0  0  0  0  0  0  0
  153.7230  138.6973  183.5463 C   0  0  0  0  0  0  0  0  0  0  0  0
  150.5346  134.8665  182.7976 H   0  0  0  0  0  0  0  0  0  0  0  0
  154.5739  137.7706  184.8701 N   0  0  0  0  0  0  0  0  0  0  0  0
  155.5517  138.7589  184.3069 H   0  0  0  0  0  0  0  0  0  0  0  0
  154.7653  137.2337  186.2576 C   0  0  0  0  0  0  0  0  0  0  0  0
  154.9567  136.6967  187.6451 C   0  0  0  0  0  0  0  0  0  0  0  0
  155.1480  136.1598  189.0326 N   0  0  0  0  0  0  0  0  0  0  0  0
  156.3660  135.4481  189.5424 C   0  0  0  0  0  0  0  0  0  0  0  0
  157.6066  135.1484  188.7542 Br  0  0  0  0  0  0  0  0  0  0  0  0
  156.1257  135.0888  190.9787 N   0  0  0  0  0  0  0  0  0  0  0  0
  154.7592  135.5784  191.3567 C   0  0  0  0  0  0  0  0  0  0  0  0
  153.9870  135.5070  192.6407 C   0  0  0  0  0  0  0  0  0  0  0  0
  152.6105  136.0976  192.7218 C   0  0  0  0  0  0  0  0  0  0  0  0
  151.8383  136.0262  194.0058 Cl  0  0  0  0  0  0  0  0  0  0  0  0
  152.0063  136.7595  191.5190 C   0  0  0  0  0  0  0  0  0  0  0  0
  152.7784  136.8309  190.2351 C   0  0  0  0  0  0  0  0  0  0  0  0
  154.1549  136.2403  190.1539 C   0  0  0  0  0  0  0  0  0  0  0  0
  155.6046  140.2851  184.3761 O   0  0  0  0  0  0  0  0  0  0  0  0
  158.1709  141.3669  183.2608 F   0  0  0  0  0  0  0  0  0  0  0  0
  156.8877  140.8259  183.8184 C   0  0  0  0  0  0  0  0  0  0  0  0
  157.2195  139.4708  183.2676 F   0  0  0  0  0  0  0  0  0  0  0  0
  156.5559  142.1811  184.3693 F   0  0  0  0  0  0  0  0  0  0  0  0
 30 31  1  0  0  0
 31 32  1  0  0  0
 31 33  1  0  0  0
 31 29  1  0  0  0
 29  1  1  0  0  0
  1  2  2  0  0  0
  2  3  1  0  0  0
  3  4  2  0  0  0
  4  5  1  0  0  0
  5  6  1  0  0  0
  6  7  2  0  0  0
  6  8  1  0  0  0
  8  9  1  0  0  0
  9 10  1  0  0  0
 10 14  1  0  0  0
 14 16  1  0  0  0
 16 17  1  0  0  0
 17 18  1  0  0  0
 18 19  1  0  0  0
 19 20  1  0  0  0
 19 21  2  0  0  0
 21 22  1  0  0  0
 22 23  2  0  0  0
 23 24  1  0  0  0
 24 25  1  0  0  0
 24 26  2  0  0  0
 26 27  1  0  0  0
 27 28  2  0  0  0
  4 11  1  0  0  0
 11 12  2  0  0  0
 12  1  1  0  0  0
 12 10  1  0  0  0
 28 18  1  0  0  0
 28 22  1  0  0  0
  8 13  1  0  0  0
 14 15  1  0  0  0
M  END
> <minimizedAffinity>
-7.17284

> <CNNscore>
0.2573289871

> <CNNaffinity>
5.6835503578

> <CNN_VS>
1.4625422955

> <CNNaffinity_variance>
0.0848793685

$$$$
[H]c1c([H])c(C([H])(C(=O)N([H])C([H])([H])c2c([H])c([H])c(C(F)(F)F)c([H])c2N2C([H])([H])C([H])([H])C([H])(C([H])([H])[H])C([H])([H])C2([H])[H])C([H])([H])[H])c([H])c(F)c1N([H])S(=O)(=O)C([H])([H])[H]


 37 39  0  0  0  0  0  0  0  0999 V2000
  153.9784  139.5323  183.8884 C   0  0  0  0  0  0  0  0  0  0  0  0
  153.5401  138.6738  183.0987 O   0  0  0  0  0  0  0  0  0  0  0  0
  153.8808  139.1852  185.2668 N   0  0  0  0  0  0  0  0  0  0  0  0
  154.2773  139.8723  185.9971 H   0  0  0  0  0  0  0  0  0  0  0  0
  154.1831  141.2194  182.1040 C   0  0  0  0  0  0  0  0  0  0  0  0
  154.5603  140.8277  183.5934 C   0  0  0  0  0  0  0  0  0  0  0  0
  155.9940  141.0007  183.6854 C   0  0  0  0  0  0  0  0  0  0  0  0
  156.5262  142.2648  183.3984 C   0  0  0  0  0  0  0  0  0  0  0  0
  157.8836  142.4870  183.3282 C   0  0  0  0  0  0  0  0  0  0  0  0
  158.7472  141.4657  183.5424 C   0  0  0  0  0  0  0  0  0  0  0  0
  158.2425  140.2184  183.8348 C   0  0  0  0  0  0  0  0  0  0  0  0
  159.1549  139.2181  184.0433 F   0  0  0  0  0  0  0  0  0  0  0  0
  156.8645  139.9747  183.9094 C   0  0  0  0  0  0  0  0  0  0  0  0
  160.1558  141.6600  183.3501 N   0  0  0  0  0  0  0  0  0  0  0  0
  160.6591  141.3732  182.5085 H   0  0  0  0  0  0  0  0  0  0  0  0
  160.9177  142.4456  184.7091 S   0  0  0  0  0  0  0  0  0  0  0  0
  160.1103  142.1929  186.2417 C   0  0  0  0  0  0  0  0  0  0  0  0
  160.9091  143.9494  184.4163 O   0  0  0  0  0  0  0  0  0  0  0  0
  162.3987  142.0596  184.7553 O   0  0  0  0  0  0  0  0  0  0  0  0
  153.3012  138.0015  185.8163 C   0  0  0  0  0  0  0  0  0  0  0  0
  153.4922  137.8396  187.2882 C   0  0  0  0  0  0  0  0  0  0  0  0
  154.5285  138.4426  187.9915 C   0  0  0  0  0  0  0  0  0  0  0  0
  154.6970  138.2737  189.3440 C   0  0  0  0  0  0  0  0  0  0  0  0
  153.8203  137.4846  190.0444 C   0  0  0  0  0  0  0  0  0  0  0  0
  152.8117  136.9008  189.3565 C   0  0  0  0  0  0  0  0  0  0  0  0
  152.5942  137.0402  187.9745 C   0  0  0  0  0  0  0  0  0  0  0  0
  151.5336  136.3359  187.3671 N   0  0  0  0  0  0  0  0  0  0  0  0
  151.6309  134.9050  187.1261 C   0  0  0  0  0  0  0  0  0  0  0  0
  150.5464  134.1588  187.8785 C   0  0  0  0  0  0  0  0  0  0  0  0
  149.5357  135.0983  188.4797 C   0  0  0  0  0  0  0  0  0  0  0  0
  148.3287  134.2691  188.8351 C   0  0  0  0  0  0  0  0  0  0  0  0
  149.1131  136.1966  187.5533 C   0  0  0  0  0  0  0  0  0  0  0  0
  150.2763  136.9371  186.9276 C   0  0  0  0  0  0  0  0  0  0  0  0
  154.0440  137.2809  191.5256 C   0  0  0  0  0  0  0  0  0  0  0  0
  152.9583  137.6706  192.2559 F   0  0  0  0  0  0  0  0  0  0  0  0
  154.5110  136.0344  191.8238 F   0  0  0  0  0  0  0  0  0  0  0  0
  155.0773  138.1888  191.8604 F   0  0  0  0  0  0  0  0  0  0  0  0
  5  6  1  0  0  0
  6  1  1  0  0  0
  1  2  2  0  0  0
  1  3  1  0  0  0
  3 20  1  0  0  0
 20 21  1  0  0  0
 21 22  2  0  0  0
 22 23  1  0  0  0
 23 24  2  0  0  0
 24 25  1  0  0  0
 25 26  2  0  0  0
 26 27  1  0  0  0
 27 28  1  0  0  0
 28 29  1  0  0  0
 29 30  1  0  0  0
 30 31  1  0  0  0
 30 32  1  0  0  0
 32 33  1  0  0  0
 24 34  1  0  0  0
 34 35  1  0  0  0
 34 36  1  0  0  0
 34 37  1  0  0  0
  6  7  1  0  0  0
  7  8  2  0  0  0
  8  9  1  0  0  0
  9 10  2  0  0  0
 10 14  1  0  0  0
 14 16  1  0  0  0
 16 17  1  0  0  0
 16 18  2  0  0  0
 16 19  2  0  0  0
 10 11  1  0  0  0
 11 12  1  0  0  0
 11 13  2  0  0  0
 26 21  1  0  0  0
 33 27  1  0  0  0
 13  7  1  0  0  0
  3  4  1  0  0  0
 14 15  1  0  0  0
M  END
> <minimizedAffinity>
-8.50333

> <CNNscore>
0.3525526822

> <CNNaffinity>
6.4498887062

> <CNN_VS>
2.2739255428

> <CNNaffinity_variance>
0.0592157021

$$$$
[H]c1c([H])c(C([H])(C(=O)N([H])C([H])([H])c2c([H])c([H])c(C(F)(F)F)c([H])c2N2C([H])([H])C([H])([H])C([H])(C([H])([H])[H])C([H])([H])C2([H])[H])C([H])([H])[H])c([H])c(F)c1N([H])S(=O)(=O)C([H])([H])[H]


 37 39  0  0  0  0  0  0  0  0999 V2000
  154.5980  138.9342  184.5773 C   0  0  0  0  0  0  0  0  0  0  0  0
  153.8311  139.4706  183.7546 O   0  0  0  0  0  0  0  0  0  0  0  0
  155.9028  139.5031  184.6409 N   0  0  0  0  0  0  0  0  0  0  0  0
  156.6003  139.1053  185.3607 H   0  0  0  0  0  0  0  0  0  0  0  0
  152.8130  137.4175  185.3425 C   0  0  0  0  0  0  0  0  0  0  0  0
  154.3436  137.8139  185.4627 C   0  0  0  0  0  0  0  0  0  0  0  0
  154.5936  137.9574  186.8808 C   0  0  0  0  0  0  0  0  0  0  0  0
  155.9221  138.0883  187.3069 C   0  0  0  0  0  0  0  0  0  0  0  0
  156.2641  138.0936  188.6410 C   0  0  0  0  0  0  0  0  0  0  0  0
  155.3009  137.9721  189.5856 C   0  0  0  0  0  0  0  0  0  0  0  0
  153.9888  137.8516  189.1857 C   0  0  0  0  0  0  0  0  0  0  0  0
  153.0513  137.7315  190.1772 F   0  0  0  0  0  0  0  0  0  0  0  0
  153.6236  137.8436  187.8328 C   0  0  0  0  0  0  0  0  0  0  0  0
  155.6594  137.8528  190.9699 N   0  0  0  0  0  0  0  0  0  0  0  0
  155.7421  138.6483  191.6058 H   0  0  0  0  0  0  0  0  0  0  0  0
  155.9344  136.1990  191.4529 S   0  0  0  0  0  0  0  0  0  0  0  0
  154.4913  135.3318  191.9328 C   0  0  0  0  0  0  0  0  0  0  0  0
  156.8806  136.2384  192.6573 O   0  0  0  0  0  0  0  0  0  0  0  0
  156.7186  135.4724  190.3568 O   0  0  0  0  0  0  0  0  0  0  0  0
  156.4162  140.5683  183.8403 C   0  0  0  0  0  0  0  0  0  0  0  0
  157.6679  141.1926  184.3623 C   0  0  0  0  0  0  0  0  0  0  0  0
  158.1414  140.9835  185.6524 C   0  0  0  0  0  0  0  0  0  0  0  0
  159.2888  141.5751  186.1209 C   0  0  0  0  0  0  0  0  0  0  0  0
  160.0083  142.4062  185.3004 C   0  0  0  0  0  0  0  0  0  0  0  0
  159.5452  142.6057  184.0446 C   0  0  0  0  0  0  0  0  0  0  0  0
  158.3786  142.0261  183.5158 C   0  0  0  0  0  0  0  0  0  0  0  0
  157.9757  142.3561  182.2048 N   0  0  0  0  0  0  0  0  0  0  0  0
  157.5332  143.7024  181.8781 C   0  0  0  0  0  0  0  0  0  0  0  0
  158.4336  144.3236  180.8281 C   0  0  0  0  0  0  0  0  0  0  0  0
  159.3903  143.3176  180.2464 C   0  0  0  0  0  0  0  0  0  0  0  0
  159.9308  143.9169  178.9738 C   0  0  0  0  0  0  0  0  0  0  0  0
  158.7541  141.9995  179.9289 C   0  0  0  0  0  0  0  0  0  0  0  0
  157.9542  141.4247  181.0790 C   0  0  0  0  0  0  0  0  0  0  0  0
  161.2481  143.0774  185.8461 C   0  0  0  0  0  0  0  0  0  0  0  0
  161.5080  144.2528  185.2021 F   0  0  0  0  0  0  0  0  0  0  0  0
  161.2472  143.1642  187.2074 F   0  0  0  0  0  0  0  0  0  0  0  0
  162.3093  142.2071  185.4987 F   0  0  0  0  0  0  0  0  0  0  0  0
  5  6  1  0  0  0
  6  1  1  0  0  0
  1  2  2  0  0  0
  1  3  1  0  0  0
  3 20  1  0  0  0
 20 21  1  0  0  0
 21 22  2  0  0  0
 22 23  1  0  0  0
 23 24  2  0  0  0
 24 25  1  0  0  0
 25 26  2  0  0  0
 26 27  1  0  0  0
 27 28  1  0  0  0
 28 29  1  0  0  0
 29 30  1  0  0  0
 30 31  1  0  0  0
 30 32  1  0  0  0
 32 33  1  0  0  0
 24 34  1  0  0  0
 34 35  1  0  0  0
 34 36  1  0  0  0
 34 37  1  0  0  0
  6  7  1  0  0  0
  7  8  2  0  0  0
  8  9  1  0  0  0
  9 10  2  0  0  0
 10 14  1  0  0  0
 14 16  1  0  0  0
 16 17  1  0  0  0
 16 18  2  0  0  0
 16 19  2  0  0  0
 10 11  1  0  0  0
 11 12  1  0  0  0
 11 13  2  0  0  0
 26 21  1  0  0  0
 33 27  1  0  0  0
 13  7  1  0  0  0
  3  4  1  0  0  0
 14 15  1  0  0  0
M  END
> <minimizedAffinity>
-10.01040

> <CNNscore>
0.2858799696

> <CNNaffinity>
6.6973648071

> <CNN_VS>
1.9146424532

> <CNNaffinity_variance>
0.1873596013

$$$$
[H]c1c([H])c(C([H])(C(=O)N([H])C([H])([H])c2c([H])c([H])c(C(F)(F)F)c([H])c2N2C([H])([H])C([H])([H])C([H])(C([H])([H])[H])C([H])([H])C2([H])[H])C([H])([H])[H])c([H])c(F)c1N([H])S(=O)(=O)C([H])([H])[H]


 37 39  0  0  0  0  0  0  0  0999 V2000
  155.8350  137.6000  188.3975 C   0  0  0  0  0  0  0  0  0  0  0  0
  156.3582  136.5081  188.1030 O   0  0  0  0  0  0  0  0  0  0  0  0
  155.7226  138.5224  187.3173 N   0  0  0  0  0  0  0  0  0  0  0  0
  155.2444  139.4711  187.5019 H   0  0  0  0  0  0  0  0  0  0  0  0
  156.5641  138.1648  190.6825 C   0  0  0  0  0  0  0  0  0  0  0  0
  155.3387  138.0544  189.6824 C   0  0  0  0  0  0  0  0  0  0  0  0
  154.3434  137.2679  190.3787 C   0  0  0  0  0  0  0  0  0  0  0  0
  154.7468  136.5421  191.5074 C   0  0  0  0  0  0  0  0  0  0  0  0
  153.9037  135.6630  192.1502 C   0  0  0  0  0  0  0  0  0  0  0  0
  152.6410  135.4826  191.6943 C   0  0  0  0  0  0  0  0  0  0  0  0
  152.2241  136.1942  190.5917 C   0  0  0  0  0  0  0  0  0  0  0  0
  150.9394  135.9776  190.1685 F   0  0  0  0  0  0  0  0  0  0  0  0
  153.0691  137.0919  189.9254 C   0  0  0  0  0  0  0  0  0  0  0  0
  151.7987  134.4802  192.2815 N   0  0  0  0  0  0  0  0  0  0  0  0
  151.7280  133.5223  191.9331 H   0  0  0  0  0  0  0  0  0  0  0  0
  150.9100  135.0730  193.6610 S   0  0  0  0  0  0  0  0  0  0  0  0
  150.1186  133.8294  194.6055 C   0  0  0  0  0  0  0  0  0  0  0  0
  149.8274  136.0137  193.1224 O   0  0  0  0  0  0  0  0  0  0  0  0
  151.8219  135.9633  194.5096 O   0  0  0  0  0  0  0  0  0  0  0  0
  156.1829  138.3382  185.9782 C   0  0  0  0  0  0  0  0  0  0  0  0
  155.1914  138.7022  184.9229 C   0  0  0  0  0  0  0  0  0  0  0  0
  153.9148  138.1561  184.8579 C   0  0  0  0  0  0  0  0  0  0  0  0
  153.0187  138.4929  183.8733 C   0  0  0  0  0  0  0  0  0  0  0  0
  153.3781  139.4002  182.9093 C   0  0  0  0  0  0  0  0  0  0  0  0
  154.6210  139.9311  182.9770 C   0  0  0  0  0  0  0  0  0  0  0  0
  155.5755  139.6214  183.9617 C   0  0  0  0  0  0  0  0  0  0  0  0
  156.8570  140.2068  183.8907 N   0  0  0  0  0  0  0  0  0  0  0  0
  157.9689  139.4942  183.2818 C   0  0  0  0  0  0  0  0  0  0  0  0
  158.5052  140.2569  182.0861 C   0  0  0  0  0  0  0  0  0  0  0  0
  157.9059  141.6341  181.9871 C   0  0  0  0  0  0  0  0  0  0  0  0
  158.7800  142.4221  181.0460 C   0  0  0  0  0  0  0  0  0  0  0  0
  157.8355  142.3528  183.2991 C   0  0  0  0  0  0  0  0  0  0  0  0
  157.1980  141.5330  184.4011 C   0  0  0  0  0  0  0  0  0  0  0  0
  152.3913  139.7302  181.8125 C   0  0  0  0  0  0  0  0  0  0  0  0
  151.1121  139.4249  182.1790 F   0  0  0  0  0  0  0  0  0  0  0  0
  152.5541  140.9901  181.3156 F   0  0  0  0  0  0  0  0  0  0  0  0
  152.7122  138.8381  180.7612 F   0  0  0  0  0  0  0  0  0  0  0  0
  5  6  1  0  0  0
  6  1  1  0  0  0
  1  2  2  0  0  0
  1  3  1  0  0  0
  3 20  1  0  0  0
 20 21  1  0  0  0
 21 22  2  0  0  0
 22 23  1  0  0  0
 23 24  2  0  0  0
 24 25  1  0  0  0
 25 26  2  0  0  0
 26 27  1  0  0  0
 27 28  1  0  0  0
 28 29  1  0  0  0
 29 30  1  0  0  0
 30 31  1  0  0  0
 30 32  1  0  0  0
 32 33  1  0  0  0
 24 34  1  0  0  0
 34 35  1  0  0  0
 34 36  1  0  0  0
 34 37  1  0  0  0
  6  7  1  0  0  0
  7  8  2  0  0  0
  8  9  1  0  0  0
  9 10  2  0  0  0
 10 14  1  0  0  0
 14 16  1  0  0  0
 16 17  1  0  0  0
 16 18  2  0  0  0
 16 19  2  0  0  0
 10 11  1  0  0  0
 11 12  1  0  0  0
 11 13  2  0  0  0
 26 21  1  0  0  0
 33 27  1  0  0  0
 13  7  1  0  0  0
  3  4  1  0  0  0
 14 15  1  0  0  0
M  END
> <minimizedAffinity>
-8.35262

> <CNNscore>
0.2423046380

> <CNNaffinity>
6.1075687408

> <CNN_VS>
1.4798922539

> <CNNaffinity_variance>
0.0313638449

$$$$
[H]c1c([H])c(C([H])(C(=O)N([H])C([H])([H])c2c([H])c([H])c(C(F)(F)F)c([H])c2N2C([H])([H])C([H])([H])C([H])(C([H])([H])[H])C([H])([H])C2([H])[H])C([H])([H])[H])c([H])c(F)c1N([H])S(=O)(=O)C([H])([H])[H]


 37 39  0  0  0  0  0  0  0  0999 V2000
  153.9564  139.8168  183.0252 C   0  0  0  0  0  0  0  0  0  0  0  0
  153.5489  139.5184  181.8861 O   0  0  0  0  0  0  0  0  0  0  0  0
  153.8295  138.7832  183.9978 N   0  0  0  0  0  0  0  0  0  0  0  0
  154.1989  138.9692  184.9937 H   0  0  0  0  0  0  0  0  0  0  0  0
  154.0978  142.2172  182.4868 C   0  0  0  0  0  0  0  0  0  0  0  0
  154.5283  141.0664  183.4890 C   0  0  0  0  0  0  0  0  0  0  0  0
  155.9645  141.1863  183.6185 C   0  0  0  0  0  0  0  0  0  0  0  0
  156.5577  142.4108  183.2835 C   0  0  0  0  0  0  0  0  0  0  0  0
  157.9247  142.5742  183.2459 C   0  0  0  0  0  0  0  0  0  0  0  0
  158.7378  141.5319  183.5412 C   0  0  0  0  0  0  0  0  0  0  0  0
  158.1727  140.3233  183.8816 C   0  0  0  0  0  0  0  0  0  0  0  0
  159.0356  139.2998  184.1717 F   0  0  0  0  0  0  0  0  0  0  0  0
  156.7841  140.1396  183.9239 C   0  0  0  0  0  0  0  0  0  0  0  0
  160.1586  141.6590  183.3850 N   0  0  0  0  0  0  0  0  0  0  0  0
  160.6716  141.3295  182.5652 H   0  0  0  0  0  0  0  0  0  0  0  0
  160.9170  142.4432  184.7466 S   0  0  0  0  0  0  0  0  0  0  0  0
  160.0623  142.2556  186.2629 C   0  0  0  0  0  0  0  0  0  0  0  0
  160.9755  143.9395  184.4227 O   0  0  0  0  0  0  0  0  0  0  0  0
  162.3799  142.0005  184.8388 O   0  0  0  0  0  0  0  0  0  0  0  0
  153.2522  137.4910  183.8087 C   0  0  0  0  0  0  0  0  0  0  0  0
  151.9782  137.2627  184.5528 C   0  0  0  0  0  0  0  0  0  0  0  0
  150.7335  137.2222  183.9353 C   0  0  0  0  0  0  0  0  0  0  0  0
  149.5694  137.0230  184.6363 C   0  0  0  0  0  0  0  0  0  0  0  0
  149.6162  136.8556  185.9970 C   0  0  0  0  0  0  0  0  0  0  0  0
  150.8299  136.8938  186.5943 C   0  0  0  0  0  0  0  0  0  0  0  0
  152.0499  137.0944  185.9250 C   0  0  0  0  0  0  0  0  0  0  0  0
  153.2446  137.1645  186.6717 N   0  0  0  0  0  0  0  0  0  0  0  0
  153.7335  138.4374  187.1775 C   0  0  0  0  0  0  0  0  0  0  0  0
  153.8081  138.4205  188.6918 C   0  0  0  0  0  0  0  0  0  0  0  0
  153.5798  137.0403  189.2472 C   0  0  0  0  0  0  0  0  0  0  0  0
  154.0673  137.0592  190.6730 C   0  0  0  0  0  0  0  0  0  0  0  0
  154.3083  135.9657  188.5005 C   0  0  0  0  0  0  0  0  0  0  0  0
  154.0900  136.0194  187.0030 C   0  0  0  0  0  0  0  0  0  0  0  0
  148.3211  136.6748  186.7556 C   0  0  0  0  0  0  0  0  0  0  0  0
  148.5067  135.9581  187.9027 F   0  0  0  0  0  0  0  0  0  0  0  0
  147.6369  137.8433  186.9208 F   0  0  0  0  0  0  0  0  0  0  0  0
  147.5255  135.8573  185.9173 F   0  0  0  0  0  0  0  0  0  0  0  0
  5  6  1  0  0  0
  6  1  1  0  0  0
  1  2  2  0  0  0
  1  3  1  0  0  0
  3 20  1  0  0  0
 20 21  1  0  0  0
 21 22  2  0  0  0
 22 23  1  0  0  0
 23 24  2  0  0  0
 24 25  1  0  0  0
 25 26  2  0  0  0
 26 27  1  0  0  0
 27 28  1  0  0  0
 28 29  1  0  0  0
 29 30  1  0  0  0
 30 31  1  0  0  0
 30 32  1  0  0  0
 32 33  1  0  0  0
 24 34  1  0  0  0
 34 35  1  0  0  0
 34 36  1  0  0  0
 34 37  1  0  0  0
  6  7  1  0  0  0
  7  8  2  0  0  0
  8  9  1  0  0  0
  9 10  2  0  0  0
 10 14  1  0  0  0
 14 16  1  0  0  0
 16 17  1  0  0  0
 16 18  2  0  0  0
 16 19  2  0  0  0
 10 11  1  0  0  0
 11 12  1  0  0  0
 11 13  2  0  0  0
 26 21  1  0  0  0
 33 27  1  0  0  0
 13  7  1  0  0  0
  3  4  1  0  0  0
 14 15  1  0  0  0
M  END
> <minimizedAffinity>
-8.20517

> <CNNscore>
0.2347116023

> <CNNaffinity>
6.4178972244

> <CNN_VS>
1.5063549280

> <CNNaffinity_variance>
0.1201355234

$$$$
[H]c1c([H])c(C([H])(C(=O)N([H])C([H])([H])c2c([H])c([H])c(C(F)(F)F)c([H])c2N2C([H])([H])C([H])([H])C([H])(C([H])([H])[H])C([H])([H])C2([H])[H])C([H])([H])[H])c([H])c(F)c1N([H])S(=O)(=O)C([H])([H])[H]


 37 39  0  0  0  0  0  0  0  0999 V2000
  154.6831  139.3950  183.9747 C   0  0  0  0  0  0  0  0  0  0  0  0
  154.0218  139.9803  183.0956 O   0  0  0  0  0  0  0  0  0  0  0  0
  155.8731  140.0672  184.3776 N   0  0  0  0  0  0  0  0  0  0  0  0
  156.4687  139.6278  185.1619 H   0  0  0  0  0  0  0  0  0  0  0  0
  152.9248  137.6956  184.2787 C   0  0  0  0  0  0  0  0  0  0  0  0
  154.4092  138.1296  184.6285 C   0  0  0  0  0  0  0  0  0  0  0  0
  154.5076  138.0378  186.0693 C   0  0  0  0  0  0  0  0  0  0  0  0
  153.4100  138.4554  186.8338 C   0  0  0  0  0  0  0  0  0  0  0  0
  153.4636  138.5314  188.2079 C   0  0  0  0  0  0  0  0  0  0  0  0
  154.6024  138.1938  188.8591 C   0  0  0  0  0  0  0  0  0  0  0  0
  155.6883  137.7723  188.1248 C   0  0  0  0  0  0  0  0  0  0  0  0
  156.8166  137.4421  188.8279 F   0  0  0  0  0  0  0  0  0  0  0  0
  155.6511  137.6900  186.7264 C   0  0  0  0  0  0  0  0  0  0  0  0
  154.7066  138.3873  190.2771 N   0  0  0  0  0  0  0  0  0  0  0  0
  154.8999  139.2901  190.7146 H   0  0  0  0  0  0  0  0  0  0  0  0
  154.4619  136.9123  191.1765 S   0  0  0  0  0  0  0  0  0  0  0  0
  155.9137  136.2502  191.8968 C   0  0  0  0  0  0  0  0  0  0  0  0
  153.9122  135.8760  190.1911 O   0  0  0  0  0  0  0  0  0  0  0  0
  153.3414  137.1198  192.1991 O   0  0  0  0  0  0  0  0  0  0  0  0
  156.3905  141.2894  183.8508 C   0  0  0  0  0  0  0  0  0  0  0  0
  157.7550  141.6496  184.3379 C   0  0  0  0  0  0  0  0  0  0  0  0
  158.2646  141.2215  185.5583 C   0  0  0  0  0  0  0  0  0  0  0  0
  159.5179  141.5719  185.9970 C   0  0  0  0  0  0  0  0  0  0  0  0
  160.3115  142.3733  185.2161 C   0  0  0  0  0  0  0  0  0  0  0  0
  159.8126  142.7865  184.0279 C   0  0  0  0  0  0  0  0  0  0  0  0
  158.5387  142.4577  183.5322 C   0  0  0  0  0  0  0  0  0  0  0  0
  158.1169  142.9962  182.2985 N   0  0  0  0  0  0  0  0  0  0  0  0
  158.1170  144.4331  182.0737 C   0  0  0  0  0  0  0  0  0  0  0  0
  159.0417  144.7974  180.9287 C   0  0  0  0  0  0  0  0  0  0  0  0
  159.5280  143.5774  180.1933 C   0  0  0  0  0  0  0  0  0  0  0  0
  160.0826  144.0558  178.8763 C   0  0  0  0  0  0  0  0  0  0  0  0
  158.4527  142.5691  179.9283 C   0  0  0  0  0  0  0  0  0  0  0  0
  157.6495  142.2081  181.1602 C   0  0  0  0  0  0  0  0  0  0  0  0
  161.6732  142.7786  185.7326 C   0  0  0  0  0  0  0  0  0  0  0  0
  161.7723  142.5996  187.0824 F   0  0  0  0  0  0  0  0  0  0  0  0
  162.6959  142.2357  185.0115 F   0  0  0  0  0  0  0  0  0  0  0  0
  161.7332  144.1778  185.5260 F   0  0  0  0  0  0  0  0  0  0  0  0
  5  6  1  0  0  0
  6  1  1  0  0  0
  1  2  2  0  0  0
  1  3  1  0  0  0
  3 20  1  0  0  0
 20 21  1  0  0  0
 21 22  2  0  0  0
 22 23  1  0  0  0
 23 24  2  0  0  0
 24 25  1  0  0  0
 25 26  2  0  0  0
 26 27  1  0  0  0
 27 28  1  0  0  0
 28 29  1  0  0  0
 29 30  1  0  0  0
 30 31  1  0  0  0
 30 32  1  0  0  0
 32 33  1  0  0  0
 24 34  1  0  0  0
 34 35  1  0  0  0
 34 36  1  0  0  0
 34 37  1  0  0  0
  6  7  1  0  0  0
  7  8  2  0  0  0
  8  9  1  0  0  0
  9 10  2  0  0  0
 10 14  1  0  0  0
 14 16  1  0  0  0
 16 17  1  0  0  0
 16 18  2  0  0  0
 16 19  2  0  0  0
 10 11  1  0  0  0
 11 12  1  0  0  0
 11 13  2  0  0  0
 26 21  1  0  0  0
 33 27  1  0  0  0
 13  7  1  0  0  0
  3  4  1  0  0  0
 14 15  1  0  0  0
M  END
> <minimizedAffinity>
-10.35299

> <CNNscore>
0.2288670838

> <CNNaffinity>
6.7316350937

> <CNN_VS>
1.5406496525

> <CNNaffinity_variance>
0.1637950540

$$$$
[H]c1c([H])c(C([H])(C(=O)N([H])C([H])([H])c2c([H])c([H])c(C(F)(F)F)c([H])c2N2C([H])([H])C([H])([H])C([H])(C([H])([H])[H])C([H])([H])C2([H])[H])C([H])([H])[H])c([H])c(F)c1N([H])S(=O)(=O)C([H])([H])[H]


 37 39  0  0  0  0  0  0  0  0999 V2000
  153.8475  139.9464  182.9422 C   0  0  0  0  0  0  0  0  0  0  0  0
  153.9048  139.5342  181.7677 O   0  0  0  0  0  0  0  0  0  0  0  0
  153.1398  139.0980  183.8421 N   0  0  0  0  0  0  0  0  0  0  0  0
  153.0876  139.3833  184.8806 H   0  0  0  0  0  0  0  0  0  0  0  0
  153.9684  142.3806  182.5788 C   0  0  0  0  0  0  0  0  0  0  0  0
  154.3923  141.1665  183.5063 C   0  0  0  0  0  0  0  0  0  0  0  0
  155.8237  141.2938  183.6766 C   0  0  0  0  0  0  0  0  0  0  0  0
  156.4372  142.4773  183.2448 C   0  0  0  0  0  0  0  0  0  0  0  0
  157.8057  142.6317  183.2421 C   0  0  0  0  0  0  0  0  0  0  0  0
  158.6003  141.6209  183.6686 C   0  0  0  0  0  0  0  0  0  0  0  0
  158.0146  140.4537  184.1052 C   0  0  0  0  0  0  0  0  0  0  0  0
  158.8593  139.4610  184.5265 F   0  0  0  0  0  0  0  0  0  0  0  0
  156.6242  140.2797  184.1138 C   0  0  0  0  0  0  0  0  0  0  0  0
  160.0266  141.7272  183.5535 N   0  0  0  0  0  0  0  0  0  0  0  0
  160.5631  141.3483  182.7708 H   0  0  0  0  0  0  0  0  0  0  0  0
  160.7476  142.5796  184.8943 S   0  0  0  0  0  0  0  0  0  0  0  0
  159.8940  142.4023  186.4125 C   0  0  0  0  0  0  0  0  0  0  0  0
  160.7487  144.0671  184.5273 O   0  0  0  0  0  0  0  0  0  0  0  0
  162.2262  142.1977  185.0042 O   0  0  0  0  0  0  0  0  0  0  0  0
  152.4678  137.8786  183.5252 C   0  0  0  0  0  0  0  0  0  0  0  0
  151.4823  137.9822  182.4084 C   0  0  0  0  0  0  0  0  0  0  0  0
  150.8513  139.1704  182.0587 C   0  0  0  0  0  0  0  0  0  0  0  0
  149.9379  139.2461  181.0359 C   0  0  0  0  0  0  0  0  0  0  0  0
  149.6235  138.1183  180.3211 C   0  0  0  0  0  0  0  0  0  0  0  0
  150.2414  136.9640  180.6633 C   0  0  0  0  0  0  0  0  0  0  0  0
  151.1821  136.8315  181.6997 C   0  0  0  0  0  0  0  0  0  0  0  0
  151.7165  135.5587  181.9898 N   0  0  0  0  0  0  0  0  0  0  0  0
  150.9435  134.5785  182.7360 C   0  0  0  0  0  0  0  0  0  0  0  0
  150.7093  133.3330  181.9036 C   0  0  0  0  0  0  0  0  0  0  0  0
  151.5189  133.3483  180.6349 C   0  0  0  0  0  0  0  0  0  0  0  0
  151.5276  131.9366  180.1075 C   0  0  0  0  0  0  0  0  0  0  0  0
  152.9331  133.8003  180.8318 C   0  0  0  0  0  0  0  0  0  0  0  0
  153.0477  135.1030  181.5953 C   0  0  0  0  0  0  0  0  0  0  0  0
  148.5883  138.2139  179.2235 C   0  0  0  0  0  0  0  0  0  0  0  0
  149.0728  138.8761  178.1323 F   0  0  0  0  0  0  0  0  0  0  0  0
  147.9999  137.0152  178.9451 F   0  0  0  0  0  0  0  0  0  0  0  0
  147.5750  139.0456  179.7579 F   0  0  0  0  0  0  0  0  0  0  0  0
  5  6  1  0  0  0
  6  1  1  0  0  0
  1  2  2  0  0  0
  1  3  1  0  0  0
  3 20  1  0  0  0
 20 21  1  0  0  0
 21 22  2  0  0  0
 22 23  1  0  0  0
 23 24  2  0  0  0
 24 25  1  0  0  0
 25 26  2  0  0  0
 26 27  1  0  0  0
 27 28  1  0  0  0
 28 29  1  0  0  0
 29 30  1  0  0  0
 30 31  1  0  0  0
 30 32  1  0  0  0
 32 33  1  0  0  0
 24 34  1  0  0  0
 34 35  1  0  0  0
 34 36  1  0  0  0
 34 37  1  0  0  0
  6  7  1  0  0  0
  7  8  2  0  0  0
  8  9  1  0  0  0
  9 10  2  0  0  0
 10 14  1  0  0  0
 14 16  1  0  0  0
 16 17  1  0  0  0
 16 18  2  0  0  0
 16 19  2  0  0  0
 10 11  1  0  0  0
 11 12  1  0  0  0
 11 13  2  0  0  0
 26 21  1  0  0  0
 33 27  1  0  0  0
 13  7  1  0  0  0
  3  4  1  0  0  0
 14 15  1  0  0  0
M  END
> <minimizedAffinity>
-8.00252

> <CNNscore>
0.2285147607

> <CNNaffinity>
6.0822968483

> <CNN_VS>
1.3898946047

> <CNNaffinity_variance>
0.1642227173

$$$$
[H]c1c([H])c(C([H])(C(=O)N([H])C([H])([H])c2c([H])c([H])c(C(F)(F)F)c([H])c2N2C([H])([H])C([H])([H])C([H])(C([H])([H])[H])C([H])([H])C2([H])[H])C([H])([H])[H])c([H])c(F)c1N([H])S(=O)(=O)C([H])([H])[H]


 37 39  0  0  0  0  0  0  0  0999 V2000
  153.9941  139.7013  183.8405 C   0  0  0  0  0  0  0  0  0  0  0  0
  153.3887  138.9276  183.0739 O   0  0  0  0  0  0  0  0  0  0  0  0
  154.1203  139.2394  185.1825 N   0  0  0  0  0  0  0  0  0  0  0  0
  154.6667  139.8488  185.8844 H   0  0  0  0  0  0  0  0  0  0  0  0
  154.2342  141.3777  182.0505 C   0  0  0  0  0  0  0  0  0  0  0  0
  154.5733  140.9995  183.5525 C   0  0  0  0  0  0  0  0  0  0  0  0
  156.0024  141.1852  183.6828 C   0  0  0  0  0  0  0  0  0  0  0  0
  156.5437  142.4236  183.3127 C   0  0  0  0  0  0  0  0  0  0  0  0
  157.9025  142.6448  183.2746 C   0  0  0  0  0  0  0  0  0  0  0  0
  158.7585  141.6480  183.6038 C   0  0  0  0  0  0  0  0  0  0  0  0
  158.2445  140.4269  183.9788 C   0  0  0  0  0  0  0  0  0  0  0  0
  159.1495  139.4508  184.3024 F   0  0  0  0  0  0  0  0  0  0  0  0
  156.8650  140.1846  184.0223 C   0  0  0  0  0  0  0  0  0  0  0  0
  160.1731  141.8316  183.4483 N   0  0  0  0  0  0  0  0  0  0  0  0
  160.6979  141.5302  182.6250 H   0  0  0  0  0  0  0  0  0  0  0  0
  160.9017  142.6315  184.8171 S   0  0  0  0  0  0  0  0  0  0  0  0
  160.0606  142.3896  186.3333 C   0  0  0  0  0  0  0  0  0  0  0  0
  160.8951  144.1326  184.5108 O   0  0  0  0  0  0  0  0  0  0  0  0
  162.3824  142.2507  184.9001 O   0  0  0  0  0  0  0  0  0  0  0  0
  153.5922  138.0303  185.7287 C   0  0  0  0  0  0  0  0  0  0  0  0
  154.5535  137.2528  186.5657 C   0  0  0  0  0  0  0  0  0  0  0  0
  155.3591  137.8346  187.5377 C   0  0  0  0  0  0  0  0  0  0  0  0
  156.2471  137.1065  188.2910 C   0  0  0  0  0  0  0  0  0  0  0  0
  156.3575  135.7538  188.0918 C   0  0  0  0  0  0  0  0  0  0  0  0
  155.5702  135.1908  187.1460 C   0  0  0  0  0  0  0  0  0  0  0  0
  154.6465  135.8888  186.3484 C   0  0  0  0  0  0  0  0  0  0  0  0
  153.9211  135.1914  185.3597 N   0  0  0  0  0  0  0  0  0  0  0  0
  154.2741  135.3102  183.9539 C   0  0  0  0  0  0  0  0  0  0  0  0
  154.6679  133.9617  183.3834 C   0  0  0  0  0  0  0  0  0  0  0  0
  154.3736  132.8409  184.3441 C   0  0  0  0  0  0  0  0  0  0  0  0
  154.4161  131.5626  183.5473 C   0  0  0  0  0  0  0  0  0  0  0  0
  153.0348  132.9548  185.0059 C   0  0  0  0  0  0  0  0  0  0  0  0
  152.7824  134.3143  185.6233 C   0  0  0  0  0  0  0  0  0  0  0  0
  157.3670  134.9757  188.9048 C   0  0  0  0  0  0  0  0  0  0  0  0
  158.6347  135.1453  188.4273 F   0  0  0  0  0  0  0  0  0  0  0  0
  157.2343  135.1779  190.2472 F   0  0  0  0  0  0  0  0  0  0  0  0
  157.0470  133.6171  188.6686 F   0  0  0  0  0  0  0  0  0  0  0  0
  5  6  1  0  0  0
  6  1  1  0  0  0
  1  2  2  0  0  0
  1  3  1  0  0  0
  3 20  1  0  0  0
 20 21  1  0  0  0
 21 22  2  0  0  0
 22 23  1  0  0  0
 23 24  2  0  0  0
 24 25  1  0  0  0
 25 26  2  0  0  0
 26 27  1  0  0  0
 27 28  1  0  0  0
 28 29  1  0  0  0
 29 30  1  0  0  0
 30 31  1  0  0  0
 30 32  1  0  0  0
 32 33  1  0  0  0
 24 34  1  0  0  0
 34 35  1  0  0  0
 34 36  1  0  0  0
 34 37  1  0  0  0
  6  7  1  0  0  0
  7  8  2  0  0  0
  8  9  1  0  0  0
  9 10  2  0  0  0
 10 14  1  0  0  0
 14 16  1  0  0  0
 16 17  1  0  0  0
 16 18  2  0  0  0
 16 19  2  0  0  0
 10 11  1  0  0  0
 11 12  1  0  0  0
 11 13  2  0  0  0
 26 21  1  0  0  0
 33 27  1  0  0  0
 13  7  1  0  0  0
  3  4  1  0  0  0
 14 15  1  0  0  0
M  END
> <minimizedAffinity>
-7.74926

> <CNNscore>
0.2260083705

> <CNNaffinity>
6.3711509705

> <CNN_VS>
1.4399334192

> <CNNaffinity_variance>
0.1785936207

$$$$
[H]c1c([H])c(C([H])(C(=O)N([H])C([H])([H])c2c([H])c([H])c(C(F)(F)F)c([H])c2N2C([H])([H])C([H])([H])C([H])(C([H])([H])[H])C([H])([H])C2([H])[H])C([H])([H])[H])c([H])c(F)c1N([H])S(=O)(=O)C([H])([H])[H]


 37 39  0  0  0  0  0  0  0  0999 V2000
  153.8464  139.3257  184.0199 C   0  0  0  0  0  0  0  0  0  0  0  0
  153.4499  138.4184  183.2634 O   0  0  0  0  0  0  0  0  0  0  0  0
  153.7772  139.0211  185.4100 N   0  0  0  0  0  0  0  0  0  0  0  0
  154.1408  139.7532  186.1133 H   0  0  0  0  0  0  0  0  0  0  0  0
  153.9129  140.9763  182.1914 C   0  0  0  0  0  0  0  0  0  0  0  0
  154.3553  140.6398  183.6764 C   0  0  0  0  0  0  0  0  0  0  0  0
  155.7811  140.8833  183.7176 C   0  0  0  0  0  0  0  0  0  0  0  0
  156.2406  142.1693  183.4036 C   0  0  0  0  0  0  0  0  0  0  0  0
  157.5822  142.4568  183.2849 C   0  0  0  0  0  0  0  0  0  0  0  0
  158.5016  141.4807  183.4765 C   0  0  0  0  0  0  0  0  0  0  0  0
  158.0690  140.2128  183.7948 C   0  0  0  0  0  0  0  0  0  0  0  0
  159.0359  139.2601  183.9788 F   0  0  0  0  0  0  0  0  0  0  0  0
  156.7079  139.9030  183.9186 C   0  0  0  0  0  0  0  0  0  0  0  0
  159.8917  141.7418  183.2343 N   0  0  0  0  0  0  0  0  0  0  0  0
  160.3808  141.4676  182.3802 H   0  0  0  0  0  0  0  0  0  0  0  0
  160.6576  142.5846  184.5562 S   0  0  0  0  0  0  0  0  0  0  0  0
  162.3453  142.1847  184.7934 C   0  0  0  0  0  0  0  0  0  0  0  0
  159.8997  142.1969  185.8300 O   0  0  0  0  0  0  0  0  0  0  0  0
  160.4273  144.0904  184.4012 O   0  0  0  0  0  0  0  0  0  0  0  0
  153.2664  137.8273  186.0041 C   0  0  0  0  0  0  0  0  0  0  0  0
  153.7766  137.5480  187.3792 C   0  0  0  0  0  0  0  0  0  0  0  0
  154.0043  138.5431  188.3226 C   0  0  0  0  0  0  0  0  0  0  0  0
  154.4853  138.2703  189.5797 C   0  0  0  0  0  0  0  0  0  0  0  0
  154.7570  136.9738  189.9364 C   0  0  0  0  0  0  0  0  0  0  0  0
  154.5322  136.0077  189.0159 C   0  0  0  0  0  0  0  0  0  0  0  0
  154.0419  136.2321  187.7175 C   0  0  0  0  0  0  0  0  0  0  0  0
  153.8998  135.1415  186.8341 N   0  0  0  0  0  0  0  0  0  0  0  0
  152.6500  134.4016  186.7588 C   0  0  0  0  0  0  0  0  0  0  0  0
  152.0571  134.4895  185.3661 C   0  0  0  0  0  0  0  0  0  0  0  0
  153.0162  135.1146  184.3888 C   0  0  0  0  0  0  0  0  0  0  0  0
  152.5063  134.7872  183.0091 C   0  0  0  0  0  0  0  0  0  0  0  0
  154.4196  134.6084  184.5193 C   0  0  0  0  0  0  0  0  0  0  0  0
  154.9454  134.6512  185.9387 C   0  0  0  0  0  0  0  0  0  0  0  0
  155.3210  136.6974  191.3115 C   0  0  0  0  0  0  0  0  0  0  0  0
  154.3308  136.5305  192.2364 F   0  0  0  0  0  0  0  0  0  0  0  0
  156.2661  135.7139  191.3080 F   0  0  0  0  0  0  0  0  0  0  0  0
  155.9860  137.8936  191.6734 F   0  0  0  0  0  0  0  0  0  0  0  0
  5  6  1  0  0  0
  6  1  1  0  0  0
  1  2  2  0  0  0
  1  3  1  0  0  0
  3 20  1  0  0  0
 20 21  1  0  0  0
 21 22  2  0  0  0
 22 23  1  0  0  0
 23 24  2  0  0  0
 24 25  1  0  0  0
 25 26  2  0  0  0
 26 27  1  0  0  0
 27 28  1  0  0  0
 28 29  1  0  0  0
 29 30  1  0  0  0
 30 31  1  0  0  0
 30 32  1  0  0  0
 32 33  1  0  0  0
 24 34  1  0  0  0
 34 35  1  0  0  0
 34 36  1  0  0  0
 34 37  1  0  0  0
  6  7  1  0  0  0
  7  8  2  0  0  0
  8  9  1  0  0  0
  9 10  2  0  0  0
 10 14  1  0  0  0
 14 16  1  0  0  0
 16 17  1  0  0  0
 16 18  2  0  0  0
 16 19  2  0  0  0
 10 11  1  0  0  0
 11 12  1  0  0  0
 11 13  2  0  0  0
 26 21  1  0  0  0
 33 27  1  0  0  0
 13  7  1  0  0  0
  3  4  1  0  0  0
 14 15  1  0  0  0
M  END
> <minimizedAffinity>
-8.07490

> <CNNscore>
0.2250127047

> <CNNaffinity>
6.4018645287

> <CNN_VS>
1.4405008554

> <CNNaffinity_variance>
0.1288095713

$$$$
[H]c1c([H])c(C([H])(C(=O)N([H])C([H])([H])c2c([H])c([H])c(C(F)(F)F)c([H])c2N2C([H])([H])C([H])([H])C([H])(C([H])([H])[H])C([H])([H])C2([H])[H])C([H])([H])[H])c([H])c(F)c1N([H])S(=O)(=O)C([H])([H])[H]


 37 39  0  0  0  0  0  0  0  0999 V2000
  154.5375  138.0529  186.4405 C   0  0  0  0  0  0  0  0  0  0  0  0
  155.5485  138.3076  187.1228 O   0  0  0  0  0  0  0  0  0  0  0  0
  153.8801  136.8335  186.7736 N   0  0  0  0  0  0  0  0  0  0  0  0
  152.9776  136.5767  186.2424 H   0  0  0  0  0  0  0  0  0  0  0  0
  153.1179  137.8357  184.4380 C   0  0  0  0  0  0  0  0  0  0  0  0
  153.9528  138.8211  185.3579 C   0  0  0  0  0  0  0  0  0  0  0  0
  154.8177  139.5500  184.4554 C   0  0  0  0  0  0  0  0  0  0  0  0
  154.2439  140.5400  183.6466 C   0  0  0  0  0  0  0  0  0  0  0  0
  154.9610  141.1879  182.6654 C   0  0  0  0  0  0  0  0  0  0  0  0
  156.2630  140.8745  182.4620 C   0  0  0  0  0  0  0  0  0  0  0  0
  156.8463  139.9104  183.2534 C   0  0  0  0  0  0  0  0  0  0  0  0
  158.1645  139.6283  183.0098 F   0  0  0  0  0  0  0  0  0  0  0  0
  156.1311  139.2410  184.2555 C   0  0  0  0  0  0  0  0  0  0  0  0
  156.9813  141.4547  181.3637 N   0  0  0  0  0  0  0  0  0  0  0  0
  157.0341  141.0343  180.4340 H   0  0  0  0  0  0  0  0  0  0  0  0
  157.7525  142.9617  181.7860 S   0  0  0  0  0  0  0  0  0  0  0  0
  158.8237  142.8686  183.1676 C   0  0  0  0  0  0  0  0  0  0  0  0
  156.6353  143.9540  182.1244 O   0  0  0  0  0  0  0  0  0  0  0  0
  158.4398  143.5460  180.5488 O   0  0  0  0  0  0  0  0  0  0  0  0
  154.2855  135.8786  187.7549 C   0  0  0  0  0  0  0  0  0  0  0  0
  153.6884  136.0839  189.1079 C   0  0  0  0  0  0  0  0  0  0  0  0
  152.3609  136.4450  189.3065 C   0  0  0  0  0  0  0  0  0  0  0  0
  151.8302  136.6416  190.5579 C   0  0  0  0  0  0  0  0  0  0  0  0
  152.6237  136.4801  191.6652 C   0  0  0  0  0  0  0  0  0  0  0  0
  153.9149  136.1267  191.4678 C   0  0  0  0  0  0  0  0  0  0  0  0
  154.5076  135.9135  190.2108 C   0  0  0  0  0  0  0  0  0  0  0  0
  155.8805  135.5978  190.1384 N   0  0  0  0  0  0  0  0  0  0  0  0
  156.3831  134.3356  190.6572 C   0  0  0  0  0  0  0  0  0  0  0  0
  157.0246  133.5184  189.5528 C   0  0  0  0  0  0  0  0  0  0  0  0
  157.1734  134.3136  188.2836 C   0  0  0  0  0  0  0  0  0  0  0  0
  158.1574  133.5703  187.4175 C   0  0  0  0  0  0  0  0  0  0  0  0
  157.6783  135.7062  188.5046 C   0  0  0  0  0  0  0  0  0  0  0  0
  156.9070  136.4650  189.5640 C   0  0  0  0  0  0  0  0  0  0  0  0
  152.0314  136.7372  193.0321 C   0  0  0  0  0  0  0  0  0  0  0  0
  150.6711  136.8402  192.9789 F   0  0  0  0  0  0  0  0  0  0  0  0
  152.4987  135.8767  193.9818 F   0  0  0  0  0  0  0  0  0  0  0  0
  152.4997  138.0244  193.3895 F   0  0  0  0  0  0  0  0  0  0  0  0
  5  6  1  0  0  0
  6  1  1  0  0  0
  1  2  2  0  0  0
  1  3  1  0  0  0
  3 20  1  0  0  0
 20 21  1  0  0  0
 21 22  2  0  0  0
 22 23  1  0  0  0
 23 24  2  0  0  0
 24 25  1  0  0  0
 25 26  2  0  0  0
 26 27  1  0  0  0
 27 28  1  0  0  0
 28 29  1  0  0  0
 29 30  1  0  0  0
 30 31  1  0  0  0
 30 32  1  0  0  0
 32 33  1  0  0  0
 24 34  1  0  0  0
 34 35  1  0  0  0
 34 36  1  0  0  0
 34 37  1  0  0  0
  6  7  1  0  0  0
  7  8  2  0  0  0
  8  9  1  0  0  0
  9 10  2  0  0  0
 10 14  1  0  0  0
 14 16  1  0  0  0
 16 17  1  0  0  0
 16 18  2  0  0  0
 16 19  2  0  0  0
 10 11  1  0  0  0
 11 12  1  0  0  0
 11 13  2  0  0  0
 26 21  1  0  0  0
 33 27  1  0  0  0
 13  7  1  0  0  0
  3  4  1  0  0  0
 14 15  1  0  0  0
M  END
> <minimizedAffinity>
-8.05581

> <CNNscore>
0.2145386487

> <CNNaffinity>
5.9656610489

> <CNN_VS>
1.2798649073

> <CNNaffinity_variance>
0.1351349801

$$$$
[H]OC(C([H])([H])[H])(C([H])([H])[H])C([H])([H])Oc1c([H])c([H])c([H])c(-c2c(-c3c([H])c([H])c(S(=O)(=O)C([H])([H])[H])c([H])c3[H])nc(C(C([H])([H])[H])(C([H])([H])[H])C([H])([H])[H])n2[H])c1[H]


 33 35  0  0  0  0  0  0  0  0999 V2000
  155.4044  141.0997  182.7558 C   0  0  0  0  0  0  0  0  0  0  0  0
  154.3349  140.9550  182.0008 N   0  0  0  0  0  0  0  0  0  0  0  0
  153.5876  139.8660  182.4175 C   0  0  0  0  0  0  0  0  0  0  0  0
  154.2524  139.3454  183.4746 C   0  0  0  0  0  0  0  0  0  0  0  0
  155.3703  140.1308  183.6565 N   0  0  0  0  0  0  0  0  0  0  0  0
  156.0806  139.9751  184.3993 H   0  0  0  0  0  0  0  0  0  0  0  0
  153.9737  138.2286  184.3679 C   0  0  0  0  0  0  0  0  0  0  0  0
  153.9673  136.9201  183.9428 C   0  0  0  0  0  0  0  0  0  0  0  0
  153.7431  135.9451  184.9095 C   0  0  0  0  0  0  0  0  0  0  0  0
  153.5343  136.2203  186.2406 C   0  0  0  0  0  0  0  0  0  0  0  0
  153.5416  137.5536  186.6828 C   0  0  0  0  0  0  0  0  0  0  0  0
  153.7602  138.5009  185.7265 C   0  0  0  0  0  0  0  0  0  0  0  0
  153.3379  137.7977  188.0312 O   0  0  0  0  0  0  0  0  0  0  0  0
  153.9930  138.7479  188.8166 C   0  0  0  0  0  0  0  0  0  0  0  0
  154.8845  137.9437  189.7737 C   0  0  0  0  0  0  0  0  0  0  0  0
  156.2591  137.7603  189.1003 C   0  0  0  0  0  0  0  0  0  0  0  0
  155.1291  138.6796  191.0481 C   0  0  0  0  0  0  0  0  0  0  0  0
  154.3044  136.7075  189.9194 O   0  0  0  0  0  0  0  0  0  0  0  0
  154.3011  136.2350  189.0482 H   0  0  0  0  0  0  0  0  0  0  0  0
  152.3599  139.4813  181.7334 C   0  0  0  0  0  0  0  0  0  0  0  0
  151.3586  138.7482  182.3076 C   0  0  0  0  0  0  0  0  0  0  0  0
  150.2437  138.3585  181.6108 C   0  0  0  0  0  0  0  0  0  0  0  0
  150.1304  138.7223  180.2795 C   0  0  0  0  0  0  0  0  0  0  0  0
  151.1165  139.4648  179.6566 C   0  0  0  0  0  0  0  0  0  0  0  0
  152.2143  139.8260  180.4134 C   0  0  0  0  0  0  0  0  0  0  0  0
  148.6764  138.1967  179.4395 S   0  0  0  0  0  0  0  0  0  0  0  0
  147.2545  138.8598  180.2810 C   0  0  0  0  0  0  0  0  0  0  0  0
  148.6333  136.6774  179.5894 O   0  0  0  0  0  0  0  0  0  0  0  0
  148.7771  138.6241  178.0209 O   0  0  0  0  0  0  0  0  0  0  0  0
  155.7697  143.5461  182.4624 C   0  0  0  0  0  0  0  0  0  0  0  0
  156.4086  142.1927  182.5626 C   0  0  0  0  0  0  0  0  0  0  0  0
  157.4386  142.1937  183.6556 C   0  0  0  0  0  0  0  0  0  0  0  0
  157.1753  141.9662  181.2481 C   0  0  0  0  0  0  0  0  0  0  0  0
 30 31  1  0  0  0
 31 32  1  0  0  0
 31 33  1  0  0  0
 31  1  1  0  0  0
  1  2  2  0  0  0
  2  3  1  0  0  0
  3  4  2  0  0  0
  4  5  1  0  0  0
  4  7  1  0  0  0
  7  8  2  0  0  0
  8  9  1  0  0  0
  9 10  2  0  0  0
 10 11  1  0  0  0
 11 13  1  0  0  0
 13 14  1  0  0  0
 14 15  1  0  0  0
 15 16  1  0  0  0
 15 17  1  0  0  0
 15 18  1  0  0  0
 11 12  2  0  0  0
  3 20  1  0  0  0
 20 21  2  0  0  0
 21 22  1  0  0  0
 22 23  2  0  0  0
 23 24  1  0  0  0
 24 25  2  0  0  0
 23 26  1  0  0  0
 26 27  1  0  0  0
 26 28  2  0  0  0
 26 29  2  0  0  0
  5  1  1  0  0  0
 12  7  1  0  0  0
 25 20  1  0  0  0
  5  6  1  0  0  0
 18 19  1  0  0  0
M  END
> <minimizedAffinity>
-8.12370

> <CNNscore>
0.6922525764

> <CNNaffinity>
6.4953031540

> <CNN_VS>
4.4963903427

> <CNNaffinity_variance>
0.0234912913

$$$$
[H]OC(C([H])([H])[H])(C([H])([H])[H])C([H])([H])Oc1c([H])c([H])c([H])c(-c2c(-c3c([H])c([H])c(S(=O)(=O)C([H])([H])[H])c([H])c3[H])nc(C(C([H])([H])[H])(C([H])([H])[H])C([H])([H])[H])n2[H])c1[H]


 33 35  0  0  0  0  0  0  0  0999 V2000
  154.0308  137.8162  186.0751 C   0  0  0  0  0  0  0  0  0  0  0  0
  154.9925  138.6800  185.8218 N   0  0  0  0  0  0  0  0  0  0  0  0
  154.8039  139.2700  184.5832 C   0  0  0  0  0  0  0  0  0  0  0  0
  153.6703  138.7257  184.0840 C   0  0  0  0  0  0  0  0  0  0  0  0
  153.2187  137.8312  185.0304 N   0  0  0  0  0  0  0  0  0  0  0  0
  152.3601  137.2543  184.9281 H   0  0  0  0  0  0  0  0  0  0  0  0
  152.9238  138.9470  182.8526 C   0  0  0  0  0  0  0  0  0  0  0  0
  153.1727  140.0078  182.0125 C   0  0  0  0  0  0  0  0  0  0  0  0
  152.4267  140.0710  180.8401 C   0  0  0  0  0  0  0  0  0  0  0  0
  151.4748  139.1433  180.4871 C   0  0  0  0  0  0  0  0  0  0  0  0
  151.2165  138.0562  181.3384 C   0  0  0  0  0  0  0  0  0  0  0  0
  151.9520  138.0054  182.4856 C   0  0  0  0  0  0  0  0  0  0  0  0
  150.2587  137.1335  180.9504 O   0  0  0  0  0  0  0  0  0  0  0  0
  149.0820  136.8143  181.6306 C   0  0  0  0  0  0  0  0  0  0  0  0
  147.9487  137.4362  180.8022 C   0  0  0  0  0  0  0  0  0  0  0  0
  147.7370  138.8808  181.2969 C   0  0  0  0  0  0  0  0  0  0  0  0
  148.3091  137.5290  179.3576 C   0  0  0  0  0  0  0  0  0  0  0  0
  146.8118  136.7144  181.0716 O   0  0  0  0  0  0  0  0  0  0  0  0
  146.5709  136.8147  182.0278 H   0  0  0  0  0  0  0  0  0  0  0  0
  155.7431  140.2538  184.0601 C   0  0  0  0  0  0  0  0  0  0  0  0
  155.4859  141.5944  183.9811 C   0  0  0  0  0  0  0  0  0  0  0  0
  156.3756  142.4798  183.4291 C   0  0  0  0  0  0  0  0  0  0  0  0
  157.5759  141.9966  182.9360 C   0  0  0  0  0  0  0  0  0  0  0  0
  157.8807  140.6493  182.9955 C   0  0  0  0  0  0  0  0  0  0  0  0
  156.9425  139.8094  183.5636 C   0  0  0  0  0  0  0  0  0  0  0  0
  158.6778  143.1808  182.2435 S   0  0  0  0  0  0  0  0  0  0  0  0
  159.1907  142.6174  180.6345 C   0  0  0  0  0  0  0  0  0  0  0  0
  159.9102  143.1823  183.1455 O   0  0  0  0  0  0  0  0  0  0  0  0
  157.9916  144.4975  182.2186 O   0  0  0  0  0  0  0  0  0  0  0  0
  153.8025  137.8890  188.5544 C   0  0  0  0  0  0  0  0  0  0  0  0
  153.9491  137.0206  187.3402 C   0  0  0  0  0  0  0  0  0  0  0  0
  152.8306  136.0196  187.2900 C   0  0  0  0  0  0  0  0  0  0  0  0
  155.2438  136.2109  187.5284 C   0  0  0  0  0  0  0  0  0  0  0  0
 30 31  1  0  0  0
 31 32  1  0  0  0
 31 33  1  0  0  0
 31  1  1  0  0  0
  1  2  2  0  0  0
  2  3  1  0  0  0
  3  4  2  0  0  0
  4  5  1  0  0  0
  4  7  1  0  0  0
  7  8  2  0  0  0
  8  9  1  0  0  0
  9 10  2  0  0  0
 10 11  1  0  0  0
 11 13  1  0  0  0
 13 14  1  0  0  0
 14 15  1  0  0  0
 15 16  1  0  0  0
 15 17  1  0  0  0
 15 18  1  0  0  0
 11 12  2  0  0  0
  3 20  1  0  0  0
 20 21  2  0  0  0
 21 22  1  0  0  0
 22 23  2  0  0  0
 23 24  1  0  0  0
 24 25  2  0  0  0
 23 26  1  0  0  0
 26 27  1  0  0  0
 26 28  2  0  0  0
 26 29  2  0  0  0
  5  1  1  0  0  0
 12  7  1  0  0  0
 25 20  1  0  0  0
  5  6  1  0  0  0
 18 19  1  0  0  0
M  END
> <minimizedAffinity>
-7.20993

> <CNNscore>
0.5816171169

> <CNNaffinity>
6.4714708328

> <CNN_VS>
3.7639181614

> <CNNaffinity_variance>
0.0354458466

$$$$
[H]OC(C([H])([H])[H])(C([H])([H])[H])C([H])([H])Oc1c([H])c([H])c([H])c(-c2c(-c3c([H])c([H])c(S(=O)(=O)C([H])([H])[H])c([H])c3[H])nc(C(C([H])([H])[H])(C([H])([H])[H])C([H])([H])[H])n2[H])c1[H]


 33 35  0  0  0  0  0  0  0  0999 V2000
  155.6340  141.2350  182.6817 C   0  0  0  0  0  0  0  0  0  0  0  0
  154.5671  141.0361  181.9351 N   0  0  0  0  0  0  0  0  0  0  0  0
  153.7939  140.0106  182.4532 C   0  0  0  0  0  0  0  0  0  0  0  0
  154.4397  139.5867  183.5640 C   0  0  0  0  0  0  0  0  0  0  0  0
  155.5727  140.3637  183.6757 N   0  0  0  0  0  0  0  0  0  0  0  0
  156.2742  140.2700  184.4371 H   0  0  0  0  0  0  0  0  0  0  0  0
  154.1309  138.5725  184.5634 C   0  0  0  0  0  0  0  0  0  0  0  0
  153.7054  138.8857  185.8337 C   0  0  0  0  0  0  0  0  0  0  0  0
  153.3894  137.8215  186.6721 C   0  0  0  0  0  0  0  0  0  0  0  0
  153.4779  136.5007  186.2995 C   0  0  0  0  0  0  0  0  0  0  0  0
  153.9093  136.1729  185.0035 C   0  0  0  0  0  0  0  0  0  0  0  0
  154.2183  137.2237  184.1911 C   0  0  0  0  0  0  0  0  0  0  0  0
  153.9787  134.8338  184.6552 O   0  0  0  0  0  0  0  0  0  0  0  0
  154.5261  134.3017  183.4864 C   0  0  0  0  0  0  0  0  0  0  0  0
  153.3415  133.7005  182.7163 C   0  0  0  0  0  0  0  0  0  0  0  0
  152.7998  134.7815  181.7599 C   0  0  0  0  0  0  0  0  0  0  0  0
  153.7645  132.5512  181.8646 C   0  0  0  0  0  0  0  0  0  0  0  0
  152.3675  133.4110  183.6400 O   0  0  0  0  0  0  0  0  0  0  0  0
  152.0513  134.2482  184.0660 H   0  0  0  0  0  0  0  0  0  0  0  0
  152.5633  139.5833  181.8002 C   0  0  0  0  0  0  0  0  0  0  0  0
  151.7192  138.6313  182.3009 C   0  0  0  0  0  0  0  0  0  0  0  0
  150.5995  138.2170  181.6265 C   0  0  0  0  0  0  0  0  0  0  0  0
  150.3160  138.7850  180.3958 C   0  0  0  0  0  0  0  0  0  0  0  0
  151.1393  139.7525  179.8501 C   0  0  0  0  0  0  0  0  0  0  0  0
  152.2514  140.1263  180.5794 C   0  0  0  0  0  0  0  0  0  0  0  0
  148.8643  138.2159  179.5804 S   0  0  0  0  0  0  0  0  0  0  0  0
  147.4376  138.8346  180.4472 C   0  0  0  0  0  0  0  0  0  0  0  0
  148.8703  136.6959  179.7290 O   0  0  0  0  0  0  0  0  0  0  0  0
  148.9274  138.6472  178.1608 O   0  0  0  0  0  0  0  0  0  0  0  0
  156.0717  143.6584  182.3076 C   0  0  0  0  0  0  0  0  0  0  0  0
  156.6624  142.2820  182.3879 C   0  0  0  0  0  0  0  0  0  0  0  0
  157.7735  142.2612  183.3981 C   0  0  0  0  0  0  0  0  0  0  0  0
  157.3151  141.9997  181.0236 C   0  0  0  0  0  0  0  0  0  0  0  0
 30 31  1  0  0  0
 31 32  1  0  0  0
 31 33  1  0  0  0
 31  1  1  0  0  0
  1  2  2  0  0  0
  2  3  1  0  0  0
  3  4  2  0  0  0
  4  5  1  0  0  0
  4  7  1  0  0  0
  7  8  2  0  0  0
  8  9  1  0  0  0
  9 10  2  0  0  0
 10 11  1  0  0  0
 11 13  1  0  0  0
 13 14  1  0  0  0
 14 15  1  0  0  0
 15 16  1  0  0  0
 15 17  1  0  0  0
 15 18  1  0  0  0
 11 12  2  0  0  0
  3 20  1  0  0  0
 20 21  2  0  0  0
 21 22  1  0  0  0
 22 23  2  0  0  0
 23 24  1  0  0  0
 24 25  2  0  0  0
 23 26  1  0  0  0
 26 27  1  0  0  0
 26 28  2  0  0  0
 26 29  2  0  0  0
  5  1  1  0  0  0
 12  7  1  0  0  0
 25 20  1  0  0  0
  5  6  1  0  0  0
 18 19  1  0  0  0
M  END
> <minimizedAffinity>
-7.19937

> <CNNscore>
0.5774316788

> <CNNaffinity>
6.4031143188

> <CNN_VS>
3.6973609924

> <CNNaffinity_variance>
0.0641458333

$$$$
[H]OC(C([H])([H])[H])(C([H])([H])[H])C([H])([H])Oc1c([H])c([H])c([H])c(-c2c(-c3c([H])c([H])c(S(=O)(=O)C([H])([H])[H])c([H])c3[H])nc(C(C([H])([H])[H])(C([H])([H])[H])C([H])([H])[H])n2[H])c1[H]


 33 35  0  0  0  0  0  0  0  0999 V2000
  154.5006  133.8303  181.5098 C   0  0  0  0  0  0  0  0  0  0  0  0
  153.4720  134.6248  181.2956 N   0  0  0  0  0  0  0  0  0  0  0  0
  152.8467  134.9453  182.4889 C   0  0  0  0  0  0  0  0  0  0  0  0
  153.5466  134.3072  183.4551 C   0  0  0  0  0  0  0  0  0  0  0  0
  154.5610  133.6271  182.8160 N   0  0  0  0  0  0  0  0  0  0  0  0
  155.2683  133.0398  183.3010 H   0  0  0  0  0  0  0  0  0  0  0  0
  153.4224  134.2673  184.9062 C   0  0  0  0  0  0  0  0  0  0  0  0
  152.2493  134.5648  185.5606 C   0  0  0  0  0  0  0  0  0  0  0  0
  152.2497  134.4325  186.9454 C   0  0  0  0  0  0  0  0  0  0  0  0
  153.3418  134.0255  187.6754 C   0  0  0  0  0  0  0  0  0  0  0  0
  154.5425  133.7177  187.0144 C   0  0  0  0  0  0  0  0  0  0  0  0
  154.5312  133.8529  185.6575 C   0  0  0  0  0  0  0  0  0  0  0  0
  155.6217  133.3013  187.7766 O   0  0  0  0  0  0  0  0  0  0  0  0
  156.4404  134.1030  188.5742 C   0  0  0  0  0  0  0  0  0  0  0  0
  157.4413  133.1412  189.2305 C   0  0  0  0  0  0  0  0  0  0  0  0
  158.1303  133.8907  190.3880 C   0  0  0  0  0  0  0  0  0  0  0  0
  156.7567  131.9613  189.8344 C   0  0  0  0  0  0  0  0  0  0  0  0
  158.3891  132.8403  188.2834 O   0  0  0  0  0  0  0  0  0  0  0  0
  158.8852  133.6615  188.0342 H   0  0  0  0  0  0  0  0  0  0  0  0
  151.6679  135.8013  182.5224 C   0  0  0  0  0  0  0  0  0  0  0  0
  151.4634  136.8594  181.6808 C   0  0  0  0  0  0  0  0  0  0  0  0
  150.3660  137.6753  181.7828 C   0  0  0  0  0  0  0  0  0  0  0  0
  149.4337  137.4156  182.7732 C   0  0  0  0  0  0  0  0  0  0  0  0
  149.5970  136.3559  183.6462 C   0  0  0  0  0  0  0  0  0  0  0  0
  150.7236  135.5716  183.4909 C   0  0  0  0  0  0  0  0  0  0  0  0
  148.0457  138.4941  182.8518 S   0  0  0  0  0  0  0  0  0  0  0  0
  148.1869  139.7086  181.5578 C   0  0  0  0  0  0  0  0  0  0  0  0
  148.1614  139.2274  184.1865 O   0  0  0  0  0  0  0  0  0  0  0  0
  146.8116  137.6732  182.7608 O   0  0  0  0  0  0  0  0  0  0  0  0
  156.8405  133.5268  180.7115 C   0  0  0  0  0  0  0  0  0  0  0  0
  155.3849  133.3137  180.4184 C   0  0  0  0  0  0  0  0  0  0  0  0
  155.1270  131.8602  180.1422 C   0  0  0  0  0  0  0  0  0  0  0  0
  155.0828  134.0616  179.1082 C   0  0  0  0  0  0  0  0  0  0  0  0
 30 31  1  0  0  0
 31 32  1  0  0  0
 31 33  1  0  0  0
 31  1  1  0  0  0
  1  2  2  0  0  0
  2  3  1  0  0  0
  3  4  2  0  0  0
  4  5  1  0  0  0
  4  7  1  0  0  0
  7  8  2  0  0  0
  8  9  1  0  0  0
  9 10  2  0  0  0
 10 11  1  0  0  0
 11 13  1  0  0  0
 13 14  1  0  0  0
 14 15  1  0  0  0
 15 16  1  0  0  0
 15 17  1  0  0  0
 15 18  1  0  0  0
 11 12  2  0  0  0
  3 20  1  0  0  0
 20 21  2  0  0  0
 21 22  1  0  0  0
 22 23  2  0  0  0
 23 24  1  0  0  0
 24 25  2  0  0  0
 23 26  1  0  0  0
 26 27  1  0  0  0
 26 28  2  0  0  0
 26 29  2  0  0  0
  5  1  1  0  0  0
 12  7  1  0  0  0
 25 20  1  0  0  0
  5  6  1  0  0  0
 18 19  1  0  0  0
M  END
> <minimizedAffinity>
-3.14114

> <CNNscore>
0.5126308203

> <CNNaffinity>
5.9258437157

> <CNN_VS>
3.0377700329

> <CNNaffinity_variance>
1.0330898762

$$$$
[H]OC(C([H])([H])[H])(C([H])([H])[H])C([H])([H])Oc1c([H])c([H])c([H])c(-c2c(-c3c([H])c([H])c(S(=O)(=O)C([H])([H])[H])c([H])c3[H])nc(C(C([H])([H])[H])(C([H])([H])[H])C([H])([H])[H])n2[H])c1[H]


 33 35  0  0  0  0  0  0  0  0999 V2000
  154.5574  137.9721  185.8293 C   0  0  0  0  0  0  0  0  0  0  0  0
  153.5870  137.7162  184.9763 N   0  0  0  0  0  0  0  0  0  0  0  0
  153.5594  138.6669  183.9697 C   0  0  0  0  0  0  0  0  0  0  0  0
  154.5687  139.5249  184.2449 C   0  0  0  0  0  0  0  0  0  0  0  0
  155.1643  139.0670  185.4005 N   0  0  0  0  0  0  0  0  0  0  0  0
  155.9753  139.5250  185.8622 H   0  0  0  0  0  0  0  0  0  0  0  0
  155.0819  140.7036  183.5593 C   0  0  0  0  0  0  0  0  0  0  0  0
  154.2691  141.7284  183.1326 C   0  0  0  0  0  0  0  0  0  0  0  0
  154.8930  142.8227  182.5424 C   0  0  0  0  0  0  0  0  0  0  0  0
  156.2535  142.9280  182.3707 C   0  0  0  0  0  0  0  0  0  0  0  0
  157.0901  141.8869  182.8058 C   0  0  0  0  0  0  0  0  0  0  0  0
  156.4677  140.8185  183.3809 C   0  0  0  0  0  0  0  0  0  0  0  0
  158.4568  142.0269  182.6275 O   0  0  0  0  0  0  0  0  0  0  0  0
  159.3189  142.8315  183.3748 C   0  0  0  0  0  0  0  0  0  0  0  0
  160.0443  141.8754  184.3325 C   0  0  0  0  0  0  0  0  0  0  0  0
  161.3828  142.5283  184.7310 C   0  0  0  0  0  0  0  0  0  0  0  0
  159.2763  141.6728  185.5952 C   0  0  0  0  0  0  0  0  0  0  0  0
  160.3142  140.7286  183.6269 O   0  0  0  0  0  0  0  0  0  0  0  0
  160.9361  140.9326  182.8825 H   0  0  0  0  0  0  0  0  0  0  0  0
  152.5645  138.6179  182.9061 C   0  0  0  0  0  0  0  0  0  0  0  0
  152.3914  139.6003  181.9710 C   0  0  0  0  0  0  0  0  0  0  0  0
  151.4049  139.5415  181.0204 C   0  0  0  0  0  0  0  0  0  0  0  0
  150.5562  138.4473  181.0093 C   0  0  0  0  0  0  0  0  0  0  0  0
  150.6938  137.4285  181.9338 C   0  0  0  0  0  0  0  0  0  0  0  0
  151.7073  137.5474  182.8650 C   0  0  0  0  0  0  0  0  0  0  0  0
  149.3131  138.4263  179.7642 S   0  0  0  0  0  0  0  0  0  0  0  0
  147.8132  139.1095  180.4373 C   0  0  0  0  0  0  0  0  0  0  0  0
  149.0519  136.9529  179.4593 O   0  0  0  0  0  0  0  0  0  0  0  0
  149.8234  139.1682  178.5833 O   0  0  0  0  0  0  0  0  0  0  0  0
  153.8467  137.3107  188.1232 C   0  0  0  0  0  0  0  0  0  0  0  0
  154.8504  137.1206  187.0249 C   0  0  0  0  0  0  0  0  0  0  0  0
  154.9366  135.6669  186.6577 C   0  0  0  0  0  0  0  0  0  0  0  0
  156.2226  137.4999  187.6082 C   0  0  0  0  0  0  0  0  0  0  0  0
 30 31  1  0  0  0
 31 32  1  0  0  0
 31 33  1  0  0  0
 31  1  1  0  0  0
  1  2  2  0  0  0
  2  3  1  0  0  0
  3  4  2  0  0  0
  4  5  1  0  0  0
  4  7  1  0  0  0
  7  8  2  0  0  0
  8  9  1  0  0  0
  9 10  2  0  0  0
 10 11  1  0  0  0
 11 13  1  0  0  0
 13 14  1  0  0  0
 14 15  1  0  0  0
 15 16  1  0  0  0
 15 17  1  0  0  0
 15 18  1  0  0  0
 11 12  2  0  0  0
  3 20  1  0  0  0
 20 21  2  0  0  0
 21 22  1  0  0  0
 22 23  2  0  0  0
 23 24  1  0  0  0
 24 25  2  0  0  0
 23 26  1  0  0  0
 26 27  1  0  0  0
 26 28  2  0  0  0
 26 29  2  0  0  0
  5  1  1  0  0  0
 12  7  1  0  0  0
 25 20  1  0  0  0
  5  6  1  0  0  0
 18 19  1  0  0  0
M  END
> <minimizedAffinity>
-8.17408

> <CNNscore>
0.5067504644

> <CNNaffinity>
6.4991235733

> <CNN_VS>
3.2934339046

> <CNNaffinity_variance>
0.0426108316

$$$$
[H]OC(C([H])([H])[H])(C([H])([H])[H])C([H])([H])Oc1c([H])c([H])c([H])c(-c2c(-c3c([H])c([H])c(S(=O)(=O)C([H])([H])[H])c([H])c3[H])nc(C(C([H])([H])[H])(C([H])([H])[H])C([H])([H])[H])n2[H])c1[H]


 33 35  0  0  0  0  0  0  0  0999 V2000
  151.5720  139.0840  181.6725 C   0  0  0  0  0  0  0  0  0  0  0  0
  152.6504  139.8403  181.6810 N   0  0  0  0  0  0  0  0  0  0  0  0
  153.5167  139.4428  182.6857 C   0  0  0  0  0  0  0  0  0  0  0  0
  152.9162  138.3962  183.2978 C   0  0  0  0  0  0  0  0  0  0  0  0
  151.7165  138.2013  182.6476 N   0  0  0  0  0  0  0  0  0  0  0  0
  151.0291  137.4624  182.8964 H   0  0  0  0  0  0  0  0  0  0  0  0
  153.3204  137.5232  184.3920 C   0  0  0  0  0  0  0  0  0  0  0  0
  153.9131  136.2988  184.1862 C   0  0  0  0  0  0  0  0  0  0  0  0
  154.3026  135.5897  185.3179 C   0  0  0  0  0  0  0  0  0  0  0  0
  154.1294  136.0449  186.6041 C   0  0  0  0  0  0  0  0  0  0  0  0
  153.5271  137.2950  186.8223 C   0  0  0  0  0  0  0  0  0  0  0  0
  153.1476  137.9803  185.7060 C   0  0  0  0  0  0  0  0  0  0  0  0
  153.3754  137.7300  188.1288 O   0  0  0  0  0  0  0  0  0  0  0  0
  154.1936  138.6340  188.8088 C   0  0  0  0  0  0  0  0  0  0  0  0
  154.7350  137.8639  190.0219 C   0  0  0  0  0  0  0  0  0  0  0  0
  156.0585  137.1923  189.6051 C   0  0  0  0  0  0  0  0  0  0  0  0
  155.0594  138.7783  191.1549 C   0  0  0  0  0  0  0  0  0  0  0  0
  153.8222  136.8801  190.3129 O   0  0  0  0  0  0  0  0  0  0  0  0
  153.7656  136.2421  189.5566 H   0  0  0  0  0  0  0  0  0  0  0  0
  154.7795  140.1323  182.9162 C   0  0  0  0  0  0  0  0  0  0  0  0
  155.1270  141.3156  182.3257 C   0  0  0  0  0  0  0  0  0  0  0  0
  156.3497  141.9031  182.5258 C   0  0  0  0  0  0  0  0  0  0  0  0
  157.2622  141.2740  183.3560 C   0  0  0  0  0  0  0  0  0  0  0  0
  156.9549  140.0771  183.9763 C   0  0  0  0  0  0  0  0  0  0  0  0
  155.7067  139.5372  183.7339 C   0  0  0  0  0  0  0  0  0  0  0  0
  158.8118  142.0776  183.5769 S   0  0  0  0  0  0  0  0  0  0  0  0
  158.7899  143.6225  182.6924 C   0  0  0  0  0  0  0  0  0  0  0  0
  159.8483  141.1779  182.9071 O   0  0  0  0  0  0  0  0  0  0  0  0
  159.0528  142.2333  185.0340 O   0  0  0  0  0  0  0  0  0  0  0  0
  149.2171  139.8235  181.3372 C   0  0  0  0  0  0  0  0  0  0  0  0
  150.4503  139.2584  180.6970 C   0  0  0  0  0  0  0  0  0  0  0  0
  150.8603  140.1152  179.5337 C   0  0  0  0  0  0  0  0  0  0  0  0
  150.0575  137.8921  180.1085 C   0  0  0  0  0  0  0  0  0  0  0  0
 30 31  1  0  0  0
 31 32  1  0  0  0
 31 33  1  0  0  0
 31  1  1  0  0  0
  1  2  2  0  0  0
  2  3  1  0  0  0
  3  4  2  0  0  0
  4  5  1  0  0  0
  4  7  1  0  0  0
  7  8  2  0  0  0
  8  9  1  0  0  0
  9 10  2  0  0  0
 10 11  1  0  0  0
 11 13  1  0  0  0
 13 14  1  0  0  0
 14 15  1  0  0  0
 15 16  1  0  0  0
 15 17  1  0  0  0
 15 18  1  0  0  0
 11 12  2  0  0  0
  3 20  1  0  0  0
 20 21  2  0  0  0
 21 22  1  0  0  0
 22 23  2  0  0  0
 23 24  1  0  0  0
 24 25  2  0  0  0
 23 26  1  0  0  0
 26 27  1  0  0  0
 26 28  2  0  0  0
 26 29  2  0  0  0
  5  1  1  0  0  0
 12  7  1  0  0  0
 25 20  1  0  0  0
  5  6  1  0  0  0
 18 19  1  0  0  0
M  END
> <minimizedAffinity>
-7.65746

> <CNNscore>
0.4560187161

> <CNNaffinity>
6.3251409531

> <CNN_VS>
2.8843827248

> <CNNaffinity_variance>
0.0548599362

$$$$
[H]OC(C([H])([H])[H])(C([H])([H])[H])C([H])([H])Oc1c([H])c([H])c([H])c(-c2c(-c3c([H])c([H])c(S(=O)(=O)C([H])([H])[H])c([H])c3[H])nc(C(C([H])([H])[H])(C([H])([H])[H])C([H])([H])[H])n2[H])c1[H]


 33 35  0  0  0  0  0  0  0  0999 V2000
  154.8615  140.8279  182.8067 C   0  0  0  0  0  0  0  0  0  0  0  0
  153.8019  140.7376  182.0294 N   0  0  0  0  0  0  0  0  0  0  0  0
  153.0852  139.5873  182.3140 C   0  0  0  0  0  0  0  0  0  0  0  0
  153.7582  138.9711  183.3129 C   0  0  0  0  0  0  0  0  0  0  0  0
  154.8506  139.7635  183.5928 N   0  0  0  0  0  0  0  0  0  0  0  0
  155.5603  139.5464  184.3206 H   0  0  0  0  0  0  0  0  0  0  0  0
  153.5074  137.7534  184.0727 C   0  0  0  0  0  0  0  0  0  0  0  0
  154.3862  136.6950  184.0925 C   0  0  0  0  0  0  0  0  0  0  0  0
  154.0534  135.6154  184.9042 C   0  0  0  0  0  0  0  0  0  0  0  0
  152.9143  135.5576  185.6726 C   0  0  0  0  0  0  0  0  0  0  0  0
  152.0132  136.6351  185.6595 C   0  0  0  0  0  0  0  0  0  0  0  0
  152.3485  137.6869  184.8589 C   0  0  0  0  0  0  0  0  0  0  0  0
  150.8798  136.5509  186.4516 O   0  0  0  0  0  0  0  0  0  0  0  0
  149.6653  137.2078  186.2451 C   0  0  0  0  0  0  0  0  0  0  0  0
  148.5794  136.1828  186.6023 C   0  0  0  0  0  0  0  0  0  0  0  0
  147.7120  136.7830  187.7265 C   0  0  0  0  0  0  0  0  0  0  0  0
  147.6661  135.9241  185.4515 C   0  0  0  0  0  0  0  0  0  0  0  0
  149.2212  135.0732  187.0949 O   0  0  0  0  0  0  0  0  0  0  0  0
  149.6971  135.3065  187.9324 H   0  0  0  0  0  0  0  0  0  0  0  0
  151.8742  139.2459  181.5789 C   0  0  0  0  0  0  0  0  0  0  0  0
  150.8168  138.5649  182.1152 C   0  0  0  0  0  0  0  0  0  0  0  0
  149.7189  138.2135  181.3726 C   0  0  0  0  0  0  0  0  0  0  0  0
  149.6824  138.5627  180.0331 C   0  0  0  0  0  0  0  0  0  0  0  0
  150.7272  139.2531  179.4473 C   0  0  0  0  0  0  0  0  0  0  0  0
  151.8041  139.5776  180.2493 C   0  0  0  0  0  0  0  0  0  0  0  0
  148.2466  138.0880  179.1335 S   0  0  0  0  0  0  0  0  0  0  0  0
  146.8116  138.7630  179.9426 C   0  0  0  0  0  0  0  0  0  0  0  0
  148.1665  136.5671  179.2465 O   0  0  0  0  0  0  0  0  0  0  0  0
  148.4040  138.5449  177.7293 O   0  0  0  0  0  0  0  0  0  0  0  0
  156.7711  141.8560  181.5815 C   0  0  0  0  0  0  0  0  0  0  0  0
  155.8334  141.9647  182.7471 C   0  0  0  0  0  0  0  0  0  0  0  0
  155.1286  143.2905  182.7138 C   0  0  0  0  0  0  0  0  0  0  0  0
  156.7030  141.9706  184.0163 C   0  0  0  0  0  0  0  0  0  0  0  0
 30 31  1  0  0  0
 31 32  1  0  0  0
 31 33  1  0  0  0
 31  1  1  0  0  0
  1  2  2  0  0  0
  2  3  1  0  0  0
  3  4  2  0  0  0
  4  5  1  0  0  0
  4  7  1  0  0  0
  7  8  2  0  0  0
  8  9  1  0  0  0
  9 10  2  0  0  0
 10 11  1  0  0  0
 11 13  1  0  0  0
 13 14  1  0  0  0
 14 15  1  0  0  0
 15 16  1  0  0  0
 15 17  1  0  0  0
 15 18  1  0  0  0
 11 12  2  0  0  0
  3 20  1  0  0  0
 20 21  2  0  0  0
 21 22  1  0  0  0
 22 23  2  0  0  0
 23 24  1  0  0  0
 24 25  2  0  0  0
 23 26  1  0  0  0
 26 27  1  0  0  0
 26 28  2  0  0  0
 26 29  2  0  0  0
  5  1  1  0  0  0
 12  7  1  0  0  0
 25 20  1  0  0  0
  5  6  1  0  0  0
 18 19  1  0  0  0
M  END
> <minimizedAffinity>
-6.62307

> <CNNscore>
0.4549336433

> <CNNaffinity>
6.1884231567

> <CNN_VS>
2.8153219223

> <CNNaffinity_variance>
0.1044243127

$$$$
[H]OC(C([H])([H])[H])(C([H])([H])[H])C([H])([H])Oc1c([H])c([H])c([H])c(-c2c(-c3c([H])c([H])c(S(=O)(=O)C([H])([H])[H])c([H])c3[H])nc(C(C([H])([H])[H])(C([H])([H])[H])C([H])([H])[H])n2[H])c1[H]


 33 35  0  0  0  0  0  0  0  0999 V2000
  151.8792  139.3678  181.5518 C   0  0  0  0  0  0  0  0  0  0  0  0
  152.2384  138.7564  182.6619 N   0  0  0  0  0  0  0  0  0  0  0  0
  153.3575  139.3601  183.2107 C   0  0  0  0  0  0  0  0  0  0  0  0
  153.6703  140.3814  182.3802 C   0  0  0  0  0  0  0  0  0  0  0  0
  152.7377  140.3574  181.3656 N   0  0  0  0  0  0  0  0  0  0  0  0
  152.7202  141.0268  180.5705 H   0  0  0  0  0  0  0  0  0  0  0  0
  154.7055  141.4060  182.4160 C   0  0  0  0  0  0  0  0  0  0  0  0
  154.4296  142.7341  182.6461 C   0  0  0  0  0  0  0  0  0  0  0  0
  155.5159  143.6006  182.7116 C   0  0  0  0  0  0  0  0  0  0  0  0
  156.8237  143.2018  182.5629 C   0  0  0  0  0  0  0  0  0  0  0  0
  157.1136  141.8473  182.3299 C   0  0  0  0  0  0  0  0  0  0  0  0
  156.0412  141.0074  182.2656 C   0  0  0  0  0  0  0  0  0  0  0  0
  158.4412  141.4755  182.1941 O   0  0  0  0  0  0  0  0  0  0  0  0
  159.5410  142.0576  182.8271 C   0  0  0  0  0  0  0  0  0  0  0  0
  159.9323  141.0826  183.9469 C   0  0  0  0  0  0  0  0  0  0  0  0
  159.4704  141.6891  185.2868 C   0  0  0  0  0  0  0  0  0  0  0  0
  159.2309  139.7734  183.8074 C   0  0  0  0  0  0  0  0  0  0  0  0
  161.3035  141.0087  183.9539 O   0  0  0  0  0  0  0  0  0  0  0  0
  161.6849  141.8942  184.1837 H   0  0  0  0  0  0  0  0  0  0  0  0
  153.9649  138.8605  184.4374 C   0  0  0  0  0  0  0  0  0  0  0  0
  155.2701  139.0687  184.7878 C   0  0  0  0  0  0  0  0  0  0  0  0
  155.8180  138.5325  185.9247 C   0  0  0  0  0  0  0  0  0  0  0  0
  155.0189  137.7541  186.7451 C   0  0  0  0  0  0  0  0  0  0  0  0
  153.6929  137.5175  186.4328 C   0  0  0  0  0  0  0  0  0  0  0  0
  153.2013  138.0860  185.2738 C   0  0  0  0  0  0  0  0  0  0  0  0
  155.7767  137.0972  188.1908 S   0  0  0  0  0  0  0  0  0  0  0  0
  154.5244  136.3355  189.2013 C   0  0  0  0  0  0  0  0  0  0  0  0
  156.3213  138.2990  188.9600 O   0  0  0  0  0  0  0  0  0  0  0  0
  156.8488  136.1597  187.7703 O   0  0  0  0  0  0  0  0  0  0  0  0
  150.7387  139.5309  179.3434 C   0  0  0  0  0  0  0  0  0  0  0  0
  150.6994  138.9556  180.7281 C   0  0  0  0  0  0  0  0  0  0  0  0
  150.5729  137.4608  180.6568 C   0  0  0  0  0  0  0  0  0  0  0  0
  149.4049  139.4669  181.3838 C   0  0  0  0  0  0  0  0  0  0  0  0
 30 31  1  0  0  0
 31 32  1  0  0  0
 31 33  1  0  0  0
 31  1  1  0  0  0
  1  2  2  0  0  0
  2  3  1  0  0  0
  3  4  2  0  0  0
  4  5  1  0  0  0
  4  7  1  0  0  0
  7  8  2  0  0  0
  8  9  1  0  0  0
  9 10  2  0  0  0
 10 11  1  0  0  0
 11 13  1  0  0  0
 13 14  1  0  0  0
 14 15  1  0  0  0
 15 16  1  0  0  0
 15 17  1  0  0  0
 15 18  1  0  0  0
 11 12  2  0  0  0
  3 20  1  0  0  0
 20 21  2  0  0  0
 21 22  1  0  0  0
 22 23  2  0  0  0
 23 24  1  0  0  0
 24 25  2  0  0  0
 23 26  1  0  0  0
 26 27  1  0  0  0
 26 28  2  0  0  0
 26 29  2  0  0  0
  5  1  1  0  0  0
 12  7  1  0  0  0
 25 20  1  0  0  0
  5  6  1  0  0  0
 18 19  1  0  0  0
M  END
> <minimizedAffinity>
-8.89330

> <CNNscore>
0.4541661441

> <CNNaffinity>
6.5418319702

> <CNN_VS>
2.9710786343

> <CNNaffinity_variance>
0.2206360102

$$$$
[H]OC(C([H])([H])[H])(C([H])([H])[H])C([H])([H])Oc1c([H])c([H])c([H])c(-c2c(-c3c([H])c([H])c(S(=O)(=O)C([H])([H])[H])c([H])c3[H])nc(C(C([H])([H])[H])(C([H])([H])[H])C([H])([H])[H])n2[H])c1[H]


 33 35  0  0  0  0  0  0  0  0999 V2000
  153.0811  138.9379  182.8737 C   0  0  0  0  0  0  0  0  0  0  0  0
  154.2240  139.5817  182.7537 N   0  0  0  0  0  0  0  0  0  0  0  0
  154.9227  139.5615  183.9493 C   0  0  0  0  0  0  0  0  0  0  0  0
  154.1502  138.8671  184.8162 C   0  0  0  0  0  0  0  0  0  0  0  0
  153.0198  138.4969  184.1198 N   0  0  0  0  0  0  0  0  0  0  0  0
  152.2353  137.9490  184.5258 H   0  0  0  0  0  0  0  0  0  0  0  0
  154.3329  138.4679  186.2055 C   0  0  0  0  0  0  0  0  0  0  0  0
  153.4600  138.8322  187.2047 C   0  0  0  0  0  0  0  0  0  0  0  0
  153.7189  138.3365  188.4785 C   0  0  0  0  0  0  0  0  0  0  0  0
  154.7809  137.5163  188.7798 C   0  0  0  0  0  0  0  0  0  0  0  0
  155.6751  137.1381  187.7647 C   0  0  0  0  0  0  0  0  0  0  0  0
  155.4129  137.6313  186.5207 C   0  0  0  0  0  0  0  0  0  0  0  0
  156.7293  136.3032  188.0979 O   0  0  0  0  0  0  0  0  0  0  0  0
  156.8585  135.5447  189.2628 C   0  0  0  0  0  0  0  0  0  0  0  0
  157.6833  134.3136  188.8604 C   0  0  0  0  0  0  0  0  0  0  0  0
  158.8246  134.7878  187.9390 C   0  0  0  0  0  0  0  0  0  0  0  0
  158.3285  133.6724  190.0427 C   0  0  0  0  0  0  0  0  0  0  0  0
  156.8533  133.4936  188.1362 O   0  0  0  0  0  0  0  0  0  0  0  0
  156.5757  133.9513  187.3020 H   0  0  0  0  0  0  0  0  0  0  0  0
  156.2153  140.2205  184.0844 C   0  0  0  0  0  0  0  0  0  0  0  0
  157.3103  139.6496  184.6714 C   0  0  0  0  0  0  0  0  0  0  0  0
  158.4929  140.3255  184.8295 C   0  0  0  0  0  0  0  0  0  0  0  0
  158.5783  141.6315  184.3772 C   0  0  0  0  0  0  0  0  0  0  0  0
  157.4979  142.2500  183.7756 C   0  0  0  0  0  0  0  0  0  0  0  0
  156.3353  141.5151  183.6461 C   0  0  0  0  0  0  0  0  0  0  0  0
  160.1217  142.4453  184.6044 S   0  0  0  0  0  0  0  0  0  0  0  0
  160.3323  142.8064  186.3350 C   0  0  0  0  0  0  0  0  0  0  0  0
  160.0043  143.7775  183.8668 O   0  0  0  0  0  0  0  0  0  0  0  0
  161.1917  141.5801  184.0459 O   0  0  0  0  0  0  0  0  0  0  0  0
  152.3899  137.5683  180.9113 C   0  0  0  0  0  0  0  0  0  0  0  0
  152.1035  138.7772  181.7518 C   0  0  0  0  0  0  0  0  0  0  0  0
  150.6899  138.7252  182.2564 C   0  0  0  0  0  0  0  0  0  0  0  0
  152.1825  139.9961  180.8163 C   0  0  0  0  0  0  0  0  0  0  0  0
 30 31  1  0  0  0
 31 32  1  0  0  0
 31 33  1  0  0  0
 31  1  1  0  0  0
  1  2  2  0  0  0
  2  3  1  0  0  0
  3  4  2  0  0  0
  4  5  1  0  0  0
  4  7  1  0  0  0
  7  8  2  0  0  0
  8  9  1  0  0  0
  9 10  2  0  0  0
 10 11  1  0  0  0
 11 13  1  0  0  0
 13 14  1  0  0  0
 14 15  1  0  0  0
 15 16  1  0  0  0
 15 17  1  0  0  0
 15 18  1  0  0  0
 11 12  2  0  0  0
  3 20  1  0  0  0
 20 21  2  0  0  0
 21 22  1  0  0  0
 22 23  2  0  0  0
 23 24  1  0  0  0
 24 25  2  0  0  0
 23 26  1  0  0  0
 26 27  1  0  0  0
 26 28  2  0  0  0
 26 29  2  0  0  0
  5  1  1  0  0  0
 12  7  1  0  0  0
 25 20  1  0  0  0
  5  6  1  0  0  0
 18 19  1  0  0  0
M  END
> <minimizedAffinity>
-8.20428

> <CNNscore>
0.4535701275

> <CNNaffinity>
6.3944864273

> <CNN_VS>
2.9003479481

> <CNNaffinity_variance>
0.0523621142

$$$$
[H]c1c(C(F)(F)F)nc(N2C([H])([H])C([H])([H])C([H])(C([H])([H])[H])C([H])([H])C2([H])[H])c(C([H])([H])N([H])C(=O)C([H])(c2c([H])c([H])c(C([H])([H])[H])c([H])c2[H])c2c([H])c([H])c(N([H])S(=O)(=O)C([H])([H])[H])c(F)c2[H])c1[H]


 43 46  0  0  0  0  0  0  0  0999 V2000
  155.0506  139.2741  183.0759 N   0  0  0  0  0  0  0  0  0  0  0  0
  156.1977  139.3895  183.8798 C   0  0  0  0  0  0  0  0  0  0  0  0
  156.1039  139.2006  185.1346 O   0  0  0  0  0  0  0  0  0  0  0  0
  155.2530  139.4014  182.0234 H   0  0  0  0  0  0  0  0  0  0  0  0
  153.6938  138.9998  183.4194 C   0  0  0  0  0  0  0  0  0  0  0  0
  153.2565  137.1048  184.9382 C   0  0  0  0  0  0  0  0  0  0  0  0
  153.1101  136.6008  186.2101 N   0  0  0  0  0  0  0  0  0  0  0  0
  153.1376  137.3894  187.2861 C   0  0  0  0  0  0  0  0  0  0  0  0
  153.3142  138.7380  187.1295 C   0  0  0  0  0  0  0  0  0  0  0  0
  153.4687  139.3040  185.8690 C   0  0  0  0  0  0  0  0  0  0  0  0
  153.4405  138.4590  184.7643 C   0  0  0  0  0  0  0  0  0  0  0  0
  152.5020  133.4318  180.7054 C   0  0  0  0  0  0  0  0  0  0  0  0
  152.6660  134.2745  181.9436 C   0  0  0  0  0  0  0  0  0  0  0  0
  151.6715  135.4082  181.9948 C   0  0  0  0  0  0  0  0  0  0  0  0
  151.7669  136.1191  183.2847 C   0  0  0  0  0  0  0  0  0  0  0  0
  153.1022  136.2004  183.8601 N   0  0  0  0  0  0  0  0  0  0  0  0
  154.2207  135.4162  183.4368 C   0  0  0  0  0  0  0  0  0  0  0  0
  154.0468  134.9455  181.9987 C   0  0  0  0  0  0  0  0  0  0  0  0
  152.9699  136.8052  188.6674 C   0  0  0  0  0  0  0  0  0  0  0  0
  153.0182  137.8078  189.5848 F   0  0  0  0  0  0  0  0  0  0  0  0
  153.9087  135.8224  188.8725 F   0  0  0  0  0  0  0  0  0  0  0  0
  151.6948  136.2662  188.7184 F   0  0  0  0  0  0  0  0  0  0  0  0
  157.5069  139.7436  183.3013 C   0  0  0  0  0  0  0  0  0  0  0  0
  157.3948  140.5654  182.0356 C   0  0  0  0  0  0  0  0  0  0  0  0
  156.3998  141.4967  181.8365 C   0  0  0  0  0  0  0  0  0  0  0  0
  156.3683  142.2560  180.6748 C   0  0  0  0  0  0  0  0  0  0  0  0
  157.3112  142.1190  179.6774 C   0  0  0  0  0  0  0  0  0  0  0  0
  157.2916  142.9557  178.4279 C   0  0  0  0  0  0  0  0  0  0  0  0
  158.3032  141.1854  179.8776 C   0  0  0  0  0  0  0  0  0  0  0  0
  158.3411  140.4239  181.0399 C   0  0  0  0  0  0  0  0  0  0  0  0
  158.4877  140.3786  184.1988 C   0  0  0  0  0  0  0  0  0  0  0  0
  159.8323  140.1766  184.2387 C   0  0  0  0  0  0  0  0  0  0  0  0
  160.6308  140.8018  185.1989 C   0  0  0  0  0  0  0  0  0  0  0  0
  160.0746  141.6422  186.1338 C   0  0  0  0  0  0  0  0  0  0  0  0
  158.6948  141.8557  186.0979 C   0  0  0  0  0  0  0  0  0  0  0  0
  158.1081  142.6849  187.0181 F   0  0  0  0  0  0  0  0  0  0  0  0
  157.9409  141.2419  185.1616 C   0  0  0  0  0  0  0  0  0  0  0  0
  160.7695  142.3354  187.1528 N   0  0  0  0  0  0  0  0  0  0  0  0
  160.6142  141.9925  188.1545 H   0  0  0  0  0  0  0  0  0  0  0  0
  161.8112  143.6459  186.9237 S   0  0  0  0  0  0  0  0  0  0  0  0
  161.7330  144.2683  185.2850 C   0  0  0  0  0  0  0  0  0  0  0  0
  163.2345  143.2132  187.2440 O   0  0  0  0  0  0  0  0  0  0  0  0
  161.4880  144.7371  187.9337 O   0  0  0  0  0  0  0  0  0  0  0  0
 12 13  1  0  0  0
 13 14  1  0  0  0
 14 15  1  0  0  0
 15 16  1  0  0  0
 16 17  1  0  0  0
 17 18  1  0  0  0
 16  6  1  0  0  0
  6  7  2  0  0  0
  7  8  1  0  0  0
  8  9  2  0  0  0
  9 10  1  0  0  0
 10 11  2  0  0  0
 11  5  1  0  0  0
  5  1  1  0  0  0
  1  2  1  0  0  0
  2  3  2  0  0  0
  2 23  1  0  0  0
 23 24  1  0  0  0
 24 25  2  0  0  0
 25 26  1  0  0  0
 26 27  2  0  0  0
 27 28  1  0  0  0
 27 29  1  0  0  0
 29 30  2  0  0  0
 23 31  1  0  0  0
 31 32  2  0  0  0
 32 33  1  0  0  0
 33 34  2  0  0  0
 34 38  1  0  0  0
 38 40  1  0  0  0
 40 41  1  0  0  0
 40 42  2  0  0  0
 40 43  2  0  0  0
 34 35  1  0  0  0
 35 36  1  0  0  0
 35 37  2  0  0  0
  8 19  1  0  0  0
 19 20  1  0  0  0
 19 21  1  0  0  0
 19 22  1  0  0  0
 18 13  1  0  0  0
 11  6  1  0  0  0
 30 24  1  0  0  0
 37 31  1  0  0  0
  1  4  1  0  0  0
 38 39  1  0  0  0
M  END
> <minimizedAffinity>
-2.00691

> <CNNscore>
0.2648503184

> <CNNaffinity>
6.9304990768

> <CNN_VS>
1.8355449438

> <CNNaffinity_variance>
0.3925709128

$$$$
[H]c1c(C(F)(F)F)nc(N2C([H])([H])C([H])([H])C([H])(C([H])([H])[H])C([H])([H])C2([H])[H])c(C([H])([H])N([H])C(=O)C([H])(c2c([H])c([H])c(C([H])([H])[H])c([H])c2[H])c2c([H])c([H])c(N([H])S(=O)(=O)C([H])([H])[H])c(F)c2[H])c1[H]


 43 46  0  0  0  0  0  0  0  0999 V2000
  153.5036  138.8473  186.1037 N   0  0  0  0  0  0  0  0  0  0  0  0
  154.8479  138.6455  185.7468 C   0  0  0  0  0  0  0  0  0  0  0  0
  155.6707  138.2234  186.6208 O   0  0  0  0  0  0  0  0  0  0  0  0
  152.8841  139.1547  185.2751 H   0  0  0  0  0  0  0  0  0  0  0  0
  152.8367  138.6931  187.3548 C   0  0  0  0  0  0  0  0  0  0  0  0
  153.6289  136.6513  188.4917 C   0  0  0  0  0  0  0  0  0  0  0  0
  154.4037  136.0407  189.4508 N   0  0  0  0  0  0  0  0  0  0  0  0
  155.1142  136.7453  190.3336 C   0  0  0  0  0  0  0  0  0  0  0  0
  155.0758  138.1131  190.2922 C   0  0  0  0  0  0  0  0  0  0  0  0
  154.3117  138.7852  189.3447 C   0  0  0  0  0  0  0  0  0  0  0  0
  153.5839  138.0269  188.4334 C   0  0  0  0  0  0  0  0  0  0  0  0
  150.3920  133.2259  185.3666 C   0  0  0  0  0  0  0  0  0  0  0  0
  151.3154  133.9905  186.2793 C   0  0  0  0  0  0  0  0  0  0  0  0
  150.5637  134.9282  187.1917 C   0  0  0  0  0  0  0  0  0  0  0  0
  151.4841  135.5477  188.1651 C   0  0  0  0  0  0  0  0  0  0  0  0
  152.8291  135.8159  187.6752 N   0  0  0  0  0  0  0  0  0  0  0  0
  153.3827  135.2704  186.4747 C   0  0  0  0  0  0  0  0  0  0  0  0
  152.2853  134.8842  185.4916 C   0  0  0  0  0  0  0  0  0  0  0  0
  155.9510  136.0446  191.3758 C   0  0  0  0  0  0  0  0  0  0  0  0
  156.8022  136.9416  191.9415 F   0  0  0  0  0  0  0  0  0  0  0  0
  156.5832  134.9620  190.8122 F   0  0  0  0  0  0  0  0  0  0  0  0
  155.0802  135.6259  192.3685 F   0  0  0  0  0  0  0  0  0  0  0  0
  155.3304  138.9307  184.3830 C   0  0  0  0  0  0  0  0  0  0  0  0
  154.2129  139.2325  183.4083 C   0  0  0  0  0  0  0  0  0  0  0  0
  154.0241  140.4784  182.8523 C   0  0  0  0  0  0  0  0  0  0  0  0
  153.0098  140.6910  181.9287 C   0  0  0  0  0  0  0  0  0  0  0  0
  152.1530  139.6868  181.5288 C   0  0  0  0  0  0  0  0  0  0  0  0
  151.0674  139.9093  180.5121 C   0  0  0  0  0  0  0  0  0  0  0  0
  152.3420  138.4428  182.0880 C   0  0  0  0  0  0  0  0  0  0  0  0
  153.3575  138.2235  183.0116 C   0  0  0  0  0  0  0  0  0  0  0  0
  156.3782  139.9568  184.2424 C   0  0  0  0  0  0  0  0  0  0  0  0
  156.2151  141.3020  184.1234 C   0  0  0  0  0  0  0  0  0  0  0  0
  157.3073  142.1495  183.9245 C   0  0  0  0  0  0  0  0  0  0  0  0
  158.5824  141.6424  183.8434 C   0  0  0  0  0  0  0  0  0  0  0  0
  158.7576  140.2622  183.9663 C   0  0  0  0  0  0  0  0  0  0  0  0
  160.0155  139.7240  183.8864 F   0  0  0  0  0  0  0  0  0  0  0  0
  157.6888  139.4605  184.1582 C   0  0  0  0  0  0  0  0  0  0  0  0
  159.7678  142.3895  183.6476 N   0  0  0  0  0  0  0  0  0  0  0  0
  160.0150  142.6357  182.6359 H   0  0  0  0  0  0  0  0  0  0  0  0
  160.8155  142.9182  184.8632 S   0  0  0  0  0  0  0  0  0  0  0  0
  160.1718  142.6079  186.4658 C   0  0  0  0  0  0  0  0  0  0  0  0
  161.0697  144.4084  184.6889 O   0  0  0  0  0  0  0  0  0  0  0  0
  162.1749  142.2574  184.6882 O   0  0  0  0  0  0  0  0  0  0  0  0
 12 13  1  0  0  0
 13 14  1  0  0  0
 14 15  1  0  0  0
 15 16  1  0  0  0
 16 17  1  0  0  0
 17 18  1  0  0  0
 16  6  1  0  0  0
  6  7  2  0  0  0
  7  8  1  0  0  0
  8  9  2  0  0  0
  9 10  1  0  0  0
 10 11  2  0  0  0
 11  5  1  0  0  0
  5  1  1  0  0  0
  1  2  1  0  0  0
  2  3  2  0  0  0
  2 23  1  0  0  0
 23 24  1  0  0  0
 24 25  2  0  0  0
 25 26  1  0  0  0
 26 27  2  0  0  0
 27 28  1  0  0  0
 27 29  1  0  0  0
 29 30  2  0  0  0
 23 31  1  0  0  0
 31 32  2  0  0  0
 32 33  1  0  0  0
 33 34  2  0  0  0
 34 38  1  0  0  0
 38 40  1  0  0  0
 40 41  1  0  0  0
 40 42  2  0  0  0
 40 43  2  0  0  0
 34 35  1  0  0  0
 35 36  1  0  0  0
 35 37  2  0  0  0
  8 19  1  0  0  0
 19 20  1  0  0  0
 19 21  1  0  0  0
 19 22  1  0  0  0
 18 13  1  0  0  0
 11  6  1  0  0  0
 30 24  1  0  0  0
 37 31  1  0  0  0
  1  4  1  0  0  0
 38 39  1  0  0  0
M  END
> <minimizedAffinity>
-9.45265

> <CNNscore>
0.2633455992

> <CNNaffinity>
7.0145850182

> <CNN_VS>
1.8472601175

> <CNNaffinity_variance>
0.1973674744

$$$$
[H]c1c(C(F)(F)F)nc(N2C([H])([H])C([H])([H])C([H])(C([H])([H])[H])C([H])([H])C2([H])[H])c(C([H])([H])N([H])C(=O)C([H])(c2c([H])c([H])c(C([H])([H])[H])c([H])c2[H])c2c([H])c([H])c(N([H])S(=O)(=O)C([H])([H])[H])c(F)c2[H])c1[H]


 43 46  0  0  0  0  0  0  0  0999 V2000
  152.2219  136.0420  186.2933 N   0  0  0  0  0  0  0  0  0  0  0  0
  151.4801  136.7202  185.3109 C   0  0  0  0  0  0  0  0  0  0  0  0
  150.3820  137.2782  185.6302 O   0  0  0  0  0  0  0  0  0  0  0  0
  153.1595  135.6529  185.9267 H   0  0  0  0  0  0  0  0  0  0  0  0
  151.9494  135.8092  187.6737 C   0  0  0  0  0  0  0  0  0  0  0  0
  152.9865  135.4874  189.8896 C   0  0  0  0  0  0  0  0  0  0  0  0
  154.0670  135.6068  190.7330 N   0  0  0  0  0  0  0  0  0  0  0  0
  155.1887  136.2228  190.3552 C   0  0  0  0  0  0  0  0  0  0  0  0
  155.2749  136.7547  189.0966 C   0  0  0  0  0  0  0  0  0  0  0  0
  154.2158  136.6636  188.2006 C   0  0  0  0  0  0  0  0  0  0  0  0
  153.0595  136.0125  188.6181 C   0  0  0  0  0  0  0  0  0  0  0  0
  148.2957  133.2918  192.1598 C   0  0  0  0  0  0  0  0  0  0  0  0
  149.6217  133.8524  191.7151 C   0  0  0  0  0  0  0  0  0  0  0  0
  149.5138  135.2960  191.2891 C   0  0  0  0  0  0  0  0  0  0  0  0
  150.8514  135.8493  191.0011 C   0  0  0  0  0  0  0  0  0  0  0  0
  151.8070  134.9145  190.4233 N   0  0  0  0  0  0  0  0  0  0  0  0
  151.6443  133.4939  190.3995 C   0  0  0  0  0  0  0  0  0  0  0  0
  150.1732  133.1094  190.4888 C   0  0  0  0  0  0  0  0  0  0  0  0
  156.3546  136.3403  191.3061 C   0  0  0  0  0  0  0  0  0  0  0  0
  156.8771  137.5927  191.2190 F   0  0  0  0  0  0  0  0  0  0  0  0
  157.2647  135.3425  191.0499 F   0  0  0  0  0  0  0  0  0  0  0  0
  155.8399  136.2007  192.5846 F   0  0  0  0  0  0  0  0  0  0  0  0
  151.9391  136.7836  183.9111 C   0  0  0  0  0  0  0  0  0  0  0  0
  152.6167  138.0921  183.5666 C   0  0  0  0  0  0  0  0  0  0  0  0
  153.5681  138.6749  184.3742 C   0  0  0  0  0  0  0  0  0  0  0  0
  154.1915  139.8541  183.9897 C   0  0  0  0  0  0  0  0  0  0  0  0
  153.8953  140.4931  182.8037 C   0  0  0  0  0  0  0  0  0  0  0  0
  154.5850  141.7590  182.3748 C   0  0  0  0  0  0  0  0  0  0  0  0
  152.9420  139.9100  181.9993 C   0  0  0  0  0  0  0  0  0  0  0  0
  152.3161  138.7280  182.3782 C   0  0  0  0  0  0  0  0  0  0  0  0
  152.7741  135.6704  183.4273 C   0  0  0  0  0  0  0  0  0  0  0  0
  154.0379  135.3486  183.8144 C   0  0  0  0  0  0  0  0  0  0  0  0
  154.7354  134.2997  183.2112 C   0  0  0  0  0  0  0  0  0  0  0  0
  154.1589  133.5615  182.2051 C   0  0  0  0  0  0  0  0  0  0  0  0
  152.8608  133.8852  181.8037 C   0  0  0  0  0  0  0  0  0  0  0  0
  152.2585  133.1712  180.8007 F   0  0  0  0  0  0  0  0  0  0  0  0
  152.2039  134.9026  182.3995 C   0  0  0  0  0  0  0  0  0  0  0  0
  154.7542  132.4778  181.5175 N   0  0  0  0  0  0  0  0  0  0  0  0
  154.2223  131.5494  181.5382 H   0  0  0  0  0  0  0  0  0  0  0  0
  156.2193  132.5251  180.6771 S   0  0  0  0  0  0  0  0  0  0  0  0
  157.5815  132.1264  181.7089 C   0  0  0  0  0  0  0  0  0  0  0  0
  156.4096  133.9138  180.0849 O   0  0  0  0  0  0  0  0  0  0  0  0
  156.1523  131.5862  179.4816 O   0  0  0  0  0  0  0  0  0  0  0  0
 12 13  1  0  0  0
 13 14  1  0  0  0
 14 15  1  0  0  0
 15 16  1  0  0  0
 16 17  1  0  0  0
 17 18  1  0  0  0
 16  6  1  0  0  0
  6  7  2  0  0  0
  7  8  1  0  0  0
  8  9  2  0  0  0
  9 10  1  0  0  0
 10 11  2  0  0  0
 11  5  1  0  0  0
  5  1  1  0  0  0
  1  2  1  0  0  0
  2  3  2  0  0  0
  2 23  1  0  0  0
 23 24  1  0  0  0
 24 25  2  0  0  0
 25 26  1  0  0  0
 26 27  2  0  0  0
 27 28  1  0  0  0
 27 29  1  0  0  0
 29 30  2  0  0  0
 23 31  1  0  0  0
 31 32  2  0  0  0
 32 33  1  0  0  0
 33 34  2  0  0  0
 34 38  1  0  0  0
 38 40  1  0  0  0
 40 41  1  0  0  0
 40 42  2  0  0  0
 40 43  2  0  0  0
 34 35  1  0  0  0
 35 36  1  0  0  0
 35 37  2  0  0  0
  8 19  1  0  0  0
 19 20  1  0  0  0
 19 21  1  0  0  0
 19 22  1  0  0  0
 18 13  1  0  0  0
 11  6  1  0  0  0
 30 24  1  0  0  0
 37 31  1  0  0  0
  1  4  1  0  0  0
 38 39  1  0  0  0
M  END
> <minimizedAffinity>
-6.75345

> <CNNscore>
0.2571230233

> <CNNaffinity>
6.3600683212

> <CNN_VS>
1.6353199482

> <CNNaffinity_variance>
0.1773504317

$$$$
[H]c1c(C(F)(F)F)nc(N2C([H])([H])C([H])([H])C([H])(C([H])([H])[H])C([H])([H])C2([H])[H])c(C([H])([H])N([H])C(=O)C([H])(c2c([H])c([H])c(C([H])([H])[H])c([H])c2[H])c2c([H])c([H])c(N([H])S(=O)(=O)C([H])([H])[H])c(F)c2[H])c1[H]


 43 46  0  0  0  0  0  0  0  0999 V2000
  155.3850  137.7424  186.4136 N   0  0  0  0  0  0  0  0  0  0  0  0
  154.6581  138.5926  185.5626 C   0  0  0  0  0  0  0  0  0  0  0  0
  153.5485  139.0739  185.9579 O   0  0  0  0  0  0  0  0  0  0  0  0
  156.3336  137.4352  186.0005 H   0  0  0  0  0  0  0  0  0  0  0  0
  155.0855  137.2485  187.7175 C   0  0  0  0  0  0  0  0  0  0  0  0
  155.7735  135.7272  189.5345 C   0  0  0  0  0  0  0  0  0  0  0  0
  156.6156  134.7573  190.0277 N   0  0  0  0  0  0  0  0  0  0  0  0
  157.6808  134.3369  189.3428 C   0  0  0  0  0  0  0  0  0  0  0  0
  157.9515  134.8810  188.1160 C   0  0  0  0  0  0  0  0  0  0  0  0
  157.1355  135.8634  187.5663 C   0  0  0  0  0  0  0  0  0  0  0  0
  156.0291  136.2806  188.2991 C   0  0  0  0  0  0  0  0  0  0  0  0
  151.7423  137.5406  193.0614 C   0  0  0  0  0  0  0  0  0  0  0  0
  152.8645  136.9443  192.2518 C   0  0  0  0  0  0  0  0  0  0  0  0
  153.9145  137.9680  191.8962 C   0  0  0  0  0  0  0  0  0  0  0  0
  155.0623  137.3194  191.2327 C   0  0  0  0  0  0  0  0  0  0  0  0
  154.7369  136.1804  190.3856 N   0  0  0  0  0  0  0  0  0  0  0  0
  153.4832  135.4923  190.3920 C   0  0  0  0  0  0  0  0  0  0  0  0
  152.3673  136.3917  190.9074 C   0  0  0  0  0  0  0  0  0  0  0  0
  158.5871  133.2740  189.9140 C   0  0  0  0  0  0  0  0  0  0  0  0
  158.3340  132.0910  189.2930 F   0  0  0  0  0  0  0  0  0  0  0  0
  158.4401  133.2240  191.2797 F   0  0  0  0  0  0  0  0  0  0  0  0
  159.8826  133.6385  189.5858 F   0  0  0  0  0  0  0  0  0  0  0  0
  155.1460  138.9249  184.2114 C   0  0  0  0  0  0  0  0  0  0  0  0
  154.0319  139.2538  183.2415 C   0  0  0  0  0  0  0  0  0  0  0  0
  153.8921  140.4939  182.6588 C   0  0  0  0  0  0  0  0  0  0  0  0
  152.8778  140.7302  181.7409 C   0  0  0  0  0  0  0  0  0  0  0  0
  151.9729  139.7562  181.3734 C   0  0  0  0  0  0  0  0  0  0  0  0
  150.8867  140.0035  180.3630 C   0  0  0  0  0  0  0  0  0  0  0  0
  152.1132  138.5181  181.9593 C   0  0  0  0  0  0  0  0  0  0  0  0
  153.1284  138.2750  182.8773 C   0  0  0  0  0  0  0  0  0  0  0  0
  156.1897  139.9599  184.1102 C   0  0  0  0  0  0  0  0  0  0  0  0
  156.0200  141.3049  183.9983 C   0  0  0  0  0  0  0  0  0  0  0  0
  157.1110  142.1620  183.8385 C   0  0  0  0  0  0  0  0  0  0  0  0
  158.3917  141.6649  183.7900 C   0  0  0  0  0  0  0  0  0  0  0  0
  158.5737  140.2850  183.9060 C   0  0  0  0  0  0  0  0  0  0  0  0
  159.8375  139.7567  183.8579 F   0  0  0  0  0  0  0  0  0  0  0  0
  157.5059  139.4739  184.0598 C   0  0  0  0  0  0  0  0  0  0  0  0
  159.5767  142.4223  183.6352 N   0  0  0  0  0  0  0  0  0  0  0  0
  159.7847  142.7870  182.6508 H   0  0  0  0  0  0  0  0  0  0  0  0
  160.6798  142.7939  184.8599 S   0  0  0  0  0  0  0  0  0  0  0  0
  160.0278  142.4603  186.4545 C   0  0  0  0  0  0  0  0  0  0  0  0
  161.0636  144.2627  184.7563 O   0  0  0  0  0  0  0  0  0  0  0  0
  161.9732  142.0255  184.6319 O   0  0  0  0  0  0  0  0  0  0  0  0
 12 13  1  0  0  0
 13 14  1  0  0  0
 14 15  1  0  0  0
 15 16  1  0  0  0
 16 17  1  0  0  0
 17 18  1  0  0  0
 16  6  1  0  0  0
  6  7  2  0  0  0
  7  8  1  0  0  0
  8  9  2  0  0  0
  9 10  1  0  0  0
 10 11  2  0  0  0
 11  5  1  0  0  0
  5  1  1  0  0  0
  1  2  1  0  0  0
  2  3  2  0  0  0
  2 23  1  0  0  0
 23 24  1  0  0  0
 24 25  2  0  0  0
 25 26  1  0  0  0
 26 27  2  0  0  0
 27 28  1  0  0  0
 27 29  1  0  0  0
 29 30  2  0  0  0
 23 31  1  0  0  0
 31 32  2  0  0  0
 32 33  1  0  0  0
 33 34  2  0  0  0
 34 38  1  0  0  0
 38 40  1  0  0  0
 40 41  1  0  0  0
 40 42  2  0  0  0
 40 43  2  0  0  0
 34 35  1  0  0  0
 35 36  1  0  0  0
 35 37  2  0  0  0
  8 19  1  0  0  0
 19 20  1  0  0  0
 19 21  1  0  0  0
 19 22  1  0  0  0
 18 13  1  0  0  0
 11  6  1  0  0  0
 30 24  1  0  0  0
 37 31  1  0  0  0
  1  4  1  0  0  0
 38 39  1  0  0  0
M  END
> <minimizedAffinity>
-10.03874

> <CNNscore>
0.2546537220

> <CNNaffinity>
6.8706412315

> <CNN_VS>
1.7496343851

> <CNNaffinity_variance>
0.1472415030

$$$$
[H]c1c(C(F)(F)F)nc(N2C([H])([H])C([H])([H])C([H])(C([H])([H])[H])C([H])([H])C2([H])[H])c(C([H])([H])N([H])C(=O)C([H])(c2c([H])c([H])c(C([H])([H])[H])c([H])c2[H])c2c([H])c([H])c(N([H])S(=O)(=O)C([H])([H])[H])c(F)c2[H])c1[H]


 43 46  0  0  0  0  0  0  0  0999 V2000
  155.0335  138.5976  185.6322 N   0  0  0  0  0  0  0  0  0  0  0  0
  155.7015  139.4345  184.7219 C   0  0  0  0  0  0  0  0  0  0  0  0
  156.9644  139.3412  184.5969 O   0  0  0  0  0  0  0  0  0  0  0  0
  153.9616  138.7232  185.6192 H   0  0  0  0  0  0  0  0  0  0  0  0
  155.5332  137.6139  186.5358 C   0  0  0  0  0  0  0  0  0  0  0  0
  153.7868  136.9672  188.1547 C   0  0  0  0  0  0  0  0  0  0  0  0
  153.3221  136.8961  189.4478 N   0  0  0  0  0  0  0  0  0  0  0  0
  153.9914  137.4399  190.4660 C   0  0  0  0  0  0  0  0  0  0  0  0
  155.1725  138.0894  190.2265 C   0  0  0  0  0  0  0  0  0  0  0  0
  155.6919  138.1920  188.9409 C   0  0  0  0  0  0  0  0  0  0  0  0
  154.9764  137.6126  187.8979 C   0  0  0  0  0  0  0  0  0  0  0  0
  150.3055  134.9668  184.1727 C   0  0  0  0  0  0  0  0  0  0  0  0
  151.1268  135.4184  185.3525 C   0  0  0  0  0  0  0  0  0  0  0  0
  151.1639  136.9218  185.4764 C   0  0  0  0  0  0  0  0  0  0  0  0
  151.8521  137.3192  186.7201 C   0  0  0  0  0  0  0  0  0  0  0  0
  152.9487  136.4553  187.1349 N   0  0  0  0  0  0  0  0  0  0  0  0
  153.1963  135.1465  186.6147 C   0  0  0  0  0  0  0  0  0  0  0  0
  152.5956  134.9871  185.2241 C   0  0  0  0  0  0  0  0  0  0  0  0
  153.4521  137.3476  191.8724 C   0  0  0  0  0  0  0  0  0  0  0  0
  153.6423  138.5377  192.5022 F   0  0  0  0  0  0  0  0  0  0  0  0
  154.0272  136.2808  192.5208 F   0  0  0  0  0  0  0  0  0  0  0  0
  152.0842  137.1584  191.7615 F   0  0  0  0  0  0  0  0  0  0  0  0
  154.9711  140.4334  183.9203 C   0  0  0  0  0  0  0  0  0  0  0  0
  155.8853  141.3554  183.1430 C   0  0  0  0  0  0  0  0  0  0  0  0
  155.9170  142.7176  183.3437 C   0  0  0  0  0  0  0  0  0  0  0  0
  156.8067  143.5133  182.6348 C   0  0  0  0  0  0  0  0  0  0  0  0
  157.6865  142.9927  181.7088 C   0  0  0  0  0  0  0  0  0  0  0  0
  158.6662  143.8499  180.9556 C   0  0  0  0  0  0  0  0  0  0  0  0
  157.6511  141.6310  181.5081 C   0  0  0  0  0  0  0  0  0  0  0  0
  156.7639  140.8290  182.2167 C   0  0  0  0  0  0  0  0  0  0  0  0
  153.9189  139.9318  183.0192 C   0  0  0  0  0  0  0  0  0  0  0  0
  153.1037  140.6568  182.2067 C   0  0  0  0  0  0  0  0  0  0  0  0
  152.0972  140.0442  181.4568 C   0  0  0  0  0  0  0  0  0  0  0  0
  151.9038  138.6848  181.5215 C   0  0  0  0  0  0  0  0  0  0  0  0
  152.7383  137.9337  182.3524 C   0  0  0  0  0  0  0  0  0  0  0  0
  152.5696  136.5766  182.4425 F   0  0  0  0  0  0  0  0  0  0  0  0
  153.7051  138.5452  183.0688 C   0  0  0  0  0  0  0  0  0  0  0  0
  150.9266  137.9452  180.8144 N   0  0  0  0  0  0  0  0  0  0  0  0
  151.0340  136.8805  180.8248 H   0  0  0  0  0  0  0  0  0  0  0  0
  149.6198  138.5947  179.9626 S   0  0  0  0  0  0  0  0  0  0  0  0
  148.5161  139.4625  181.0151 C   0  0  0  0  0  0  0  0  0  0  0  0
  148.8795  137.4707  179.2527 O   0  0  0  0  0  0  0  0  0  0  0  0
  150.1336  139.4994  178.8522 O   0  0  0  0  0  0  0  0  0  0  0  0
 12 13  1  0  0  0
 13 14  1  0  0  0
 14 15  1  0  0  0
 15 16  1  0  0  0
 16 17  1  0  0  0
 17 18  1  0  0  0
 16  6  1  0  0  0
  6  7  2  0  0  0
  7  8  1  0  0  0
  8  9  2  0  0  0
  9 10  1  0  0  0
 10 11  2  0  0  0
 11  5  1  0  0  0
  5  1  1  0  0  0
  1  2  1  0  0  0
  2  3  2  0  0  0
  2 23  1  0  0  0
 23 24  1  0  0  0
 24 25  2  0  0  0
 25 26  1  0  0  0
 26 27  2  0  0  0
 27 28  1  0  0  0
 27 29  1  0  0  0
 29 30  2  0  0  0
 23 31  1  0  0  0
 31 32  2  0  0  0
 32 33  1  0  0  0
 33 34  2  0  0  0
 34 38  1  0  0  0
 38 40  1  0  0  0
 40 41  1  0  0  0
 40 42  2  0  0  0
 40 43  2  0  0  0
 34 35  1  0  0  0
 35 36  1  0  0  0
 35 37  2  0  0  0
  8 19  1  0  0  0
 19 20  1  0  0  0
 19 21  1  0  0  0
 19 22  1  0  0  0
 18 13  1  0  0  0
 11  6  1  0  0  0
 30 24  1  0  0  0
 37 31  1  0  0  0
  1  4  1  0  0  0
 38 39  1  0  0  0
M  END
> <minimizedAffinity>
-8.51540

> <CNNscore>
0.2540518045

> <CNNaffinity>
6.6913042068

> <CNN_VS>
1.6999379396

> <CNNaffinity_variance>
0.2729598880

$$$$
[H]c1c(C(F)(F)F)nc(N2C([H])([H])C([H])([H])C([H])(C([H])([H])[H])C([H])([H])C2([H])[H])c(C([H])([H])N([H])C(=O)C([H])(c2c([H])c([H])c(C([H])([H])[H])c([H])c2[H])c2c([H])c([H])c(N([H])S(=O)(=O)C([H])([H])[H])c(F)c2[H])c1[H]


 43 46  0  0  0  0  0  0  0  0999 V2000
  151.7863  137.4043  185.5489 N   0  0  0  0  0  0  0  0  0  0  0  0
  151.9896  136.7465  184.3236 C   0  0  0  0  0  0  0  0  0  0  0  0
  151.9611  135.4750  184.2838 O   0  0  0  0  0  0  0  0  0  0  0  0
  151.7781  138.4798  185.4591 H   0  0  0  0  0  0  0  0  0  0  0  0
  151.5720  136.8883  186.8610 C   0  0  0  0  0  0  0  0  0  0  0  0
  152.6277  136.5670  189.0681 C   0  0  0  0  0  0  0  0  0  0  0  0
  153.5845  136.9063  189.9968 N   0  0  0  0  0  0  0  0  0  0  0  0
  154.4186  137.9300  189.8048 C   0  0  0  0  0  0  0  0  0  0  0  0
  154.3259  138.6690  188.6561 C   0  0  0  0  0  0  0  0  0  0  0  0
  153.3797  138.3724  187.6815 C   0  0  0  0  0  0  0  0  0  0  0  0
  152.5252  137.2975  187.9047 C   0  0  0  0  0  0  0  0  0  0  0  0
  149.0271  132.4921  190.6200 C   0  0  0  0  0  0  0  0  0  0  0  0
  150.0885  133.5253  190.3439 C   0  0  0  0  0  0  0  0  0  0  0  0
  149.5564  134.9322  190.4643 C   0  0  0  0  0  0  0  0  0  0  0  0
  150.6533  135.9108  190.3314 C   0  0  0  0  0  0  0  0  0  0  0  0
  151.7223  135.5359  189.4162 N   0  0  0  0  0  0  0  0  0  0  0  0
  151.9252  134.2191  188.8964 C   0  0  0  0  0  0  0  0  0  0  0  0
  150.6292  133.4192  188.9099 C   0  0  0  0  0  0  0  0  0  0  0  0
  155.4545  138.2784  190.8454 C   0  0  0  0  0  0  0  0  0  0  0  0
  155.0777  139.4169  191.4864 F   0  0  0  0  0  0  0  0  0  0  0  0
  156.6941  138.3597  190.2570 F   0  0  0  0  0  0  0  0  0  0  0  0
  155.4360  137.2575  191.7816 F   0  0  0  0  0  0  0  0  0  0  0  0
  152.2541  137.4994  183.0837 C   0  0  0  0  0  0  0  0  0  0  0  0
  150.9925  137.8901  182.3450 C   0  0  0  0  0  0  0  0  0  0  0  0
  150.9175  137.9388  180.9707 C   0  0  0  0  0  0  0  0  0  0  0  0
  149.7225  138.2606  180.3417 C   0  0  0  0  0  0  0  0  0  0  0  0
  148.5709  138.5452  181.0456 C   0  0  0  0  0  0  0  0  0  0  0  0
  147.2698  138.8727  180.3661 C   0  0  0  0  0  0  0  0  0  0  0  0
  148.6491  138.4984  182.4194 C   0  0  0  0  0  0  0  0  0  0  0  0
  149.8425  138.1745  183.0547 C   0  0  0  0  0  0  0  0  0  0  0  0
  153.1319  138.6781  183.1883 C   0  0  0  0  0  0  0  0  0  0  0  0
  153.0222  139.8591  182.5224 C   0  0  0  0  0  0  0  0  0  0  0  0
  153.9774  140.8669  182.6725 C   0  0  0  0  0  0  0  0  0  0  0  0
  155.0591  140.6895  183.5021 C   0  0  0  0  0  0  0  0  0  0  0  0
  155.1773  139.4800  184.1904 C   0  0  0  0  0  0  0  0  0  0  0  0
  156.2458  139.2697  185.0225 F   0  0  0  0  0  0  0  0  0  0  0  0
  154.2431  138.5188  184.0314 C   0  0  0  0  0  0  0  0  0  0  0  0
  156.0905  141.6278  183.7425 N   0  0  0  0  0  0  0  0  0  0  0  0
  156.1997  141.9688  184.7509 H   0  0  0  0  0  0  0  0  0  0  0  0
  157.1512  142.2496  182.5836 S   0  0  0  0  0  0  0  0  0  0  0  0
  156.7124  143.8777  182.0981 C   0  0  0  0  0  0  0  0  0  0  0  0
  157.1560  141.3326  181.3693 O   0  0  0  0  0  0  0  0  0  0  0  0
  158.5743  142.2095  183.1208 O   0  0  0  0  0  0  0  0  0  0  0  0
 12 13  1  0  0  0
 13 14  1  0  0  0
 14 15  1  0  0  0
 15 16  1  0  0  0
 16 17  1  0  0  0
 17 18  1  0  0  0
 16  6  1  0  0  0
  6  7  2  0  0  0
  7  8  1  0  0  0
  8  9  2  0  0  0
  9 10  1  0  0  0
 10 11  2  0  0  0
 11  5  1  0  0  0
  5  1  1  0  0  0
  1  2  1  0  0  0
  2  3  2  0  0  0
  2 23  1  0  0  0
 23 24  1  0  0  0
 24 25  2  0  0  0
 25 26  1  0  0  0
 26 27  2  0  0  0
 27 28  1  0  0  0
 27 29  1  0  0  0
 29 30  2  0  0  0
 23 31  1  0  0  0
 31 32  2  0  0  0
 32 33  1  0  0  0
 33 34  2  0  0  0
 34 38  1  0  0  0
 38 40  1  0  0  0
 40 41  1  0  0  0
 40 42  2  0  0  0
 40 43  2  0  0  0
 34 35  1  0  0  0
 35 36  1  0  0  0
 35 37  2  0  0  0
  8 19  1  0  0  0
 19 20  1  0  0  0
 19 21  1  0  0  0
 19 22  1  0  0  0
 18 13  1  0  0  0
 11  6  1  0  0  0
 30 24  1  0  0  0
 37 31  1  0  0  0
  1  4  1  0  0  0
 38 39  1  0  0  0
M  END
> <minimizedAffinity>
-8.64032

> <CNNscore>
0.2299540788

> <CNNaffinity>
6.5131902695

> <CNN_VS>
1.4977346659

> <CNNaffinity_variance>
0.2248798162

$$$$
[H]c1c(C(F)(F)F)nc(N2C([H])([H])C([H])([H])C([H])(C([H])([H])[H])C([H])([H])C2([H])[H])c(C([H])([H])N([H])C(=O)C([H])(c2c([H])c([H])c(C([H])([H])[H])c([H])c2[H])c2c([H])c([H])c(N([H])S(=O)(=O)C([H])([H])[H])c(F)c2[H])c1[H]


 43 46  0  0  0  0  0  0  0  0999 V2000
  153.4790  136.4173  183.6862 N   0  0  0  0  0  0  0  0  0  0  0  0
  153.0977  135.1773  184.2267 C   0  0  0  0  0  0  0  0  0  0  0  0
  151.8940  134.7839  184.1020 O   0  0  0  0  0  0  0  0  0  0  0  0
  154.5312  136.6276  183.8023 H   0  0  0  0  0  0  0  0  0  0  0  0
  152.7179  137.4118  183.0038 C   0  0  0  0  0  0  0  0  0  0  0  0
  152.6803  139.7416  182.1915 C   0  0  0  0  0  0  0  0  0  0  0  0
  153.1517  141.0332  182.2415 N   0  0  0  0  0  0  0  0  0  0  0  0
  154.1728  141.3788  183.0279 C   0  0  0  0  0  0  0  0  0  0  0  0
  154.7746  140.4285  183.8083 C   0  0  0  0  0  0  0  0  0  0  0  0
  154.3407  139.1076  183.8004 C   0  0  0  0  0  0  0  0  0  0  0  0
  153.2716  138.7749  182.9748 C   0  0  0  0  0  0  0  0  0  0  0  0
  148.5993  138.4618  178.4922 C   0  0  0  0  0  0  0  0  0  0  0  0
  149.7375  138.6317  179.4647 C   0  0  0  0  0  0  0  0  0  0  0  0
  149.2567  139.0355  180.8368 C   0  0  0  0  0  0  0  0  0  0  0  0
  150.3809  139.0495  181.7930 C   0  0  0  0  0  0  0  0  0  0  0  0
  151.6671  139.4568  181.2446 N   0  0  0  0  0  0  0  0  0  0  0  0
  151.9663  139.5454  179.8490 C   0  0  0  0  0  0  0  0  0  0  0  0
  150.6989  139.7478  179.0288 C   0  0  0  0  0  0  0  0  0  0  0  0
  154.6684  142.8039  183.0564 C   0  0  0  0  0  0  0  0  0  0  0  0
  153.6026  143.6457  183.1238 F   0  0  0  0  0  0  0  0  0  0  0  0
  155.4859  143.0325  181.9753 F   0  0  0  0  0  0  0  0  0  0  0  0
  155.3815  142.9528  184.2346 F   0  0  0  0  0  0  0  0  0  0  0  0
  154.0604  134.3287  184.9529 C   0  0  0  0  0  0  0  0  0  0  0  0
  155.0838  133.6808  184.0457 C   0  0  0  0  0  0  0  0  0  0  0  0
  156.0515  132.8175  184.5096 C   0  0  0  0  0  0  0  0  0  0  0  0
  156.9389  132.2153  183.6282 C   0  0  0  0  0  0  0  0  0  0  0  0
  156.9010  132.4469  182.2689 C   0  0  0  0  0  0  0  0  0  0  0  0
  157.8473  131.7789  181.3097 C   0  0  0  0  0  0  0  0  0  0  0  0
  155.9344  133.3124  181.8080 C   0  0  0  0  0  0  0  0  0  0  0  0
  155.0416  133.9165  182.6857 C   0  0  0  0  0  0  0  0  0  0  0  0
  154.7551  134.9341  186.1025 C   0  0  0  0  0  0  0  0  0  0  0  0
  155.4409  134.2977  187.0899 C   0  0  0  0  0  0  0  0  0  0  0  0
  155.9909  135.0044  188.1616 C   0  0  0  0  0  0  0  0  0  0  0  0
  155.8521  136.3694  188.2462 C   0  0  0  0  0  0  0  0  0  0  0  0
  155.1506  137.0298  187.2350 C   0  0  0  0  0  0  0  0  0  0  0  0
  154.9909  138.3899  187.2912 F   0  0  0  0  0  0  0  0  0  0  0  0
  154.6268  136.3282  186.2077 C   0  0  0  0  0  0  0  0  0  0  0  0
  156.3609  137.1990  189.2732 N   0  0  0  0  0  0  0  0  0  0  0  0
  157.2727  137.7171  189.0602 H   0  0  0  0  0  0  0  0  0  0  0  0
  155.6587  137.4362  190.7916 S   0  0  0  0  0  0  0  0  0  0  0  0
  154.1541  136.5501  190.9650 C   0  0  0  0  0  0  0  0  0  0  0  0
  155.4087  138.9229  190.9982 O   0  0  0  0  0  0  0  0  0  0  0  0
  156.6479  137.0420  191.8784 O   0  0  0  0  0  0  0  0  0  0  0  0
 12 13  1  0  0  0
 13 14  1  0  0  0
 14 15  1  0  0  0
 15 16  1  0  0  0
 16 17  1  0  0  0
 17 18  1  0  0  0
 16  6  1  0  0  0
  6  7  2  0  0  0
  7  8  1  0  0  0
  8  9  2  0  0  0
  9 10  1  0  0  0
 10 11  2  0  0  0
 11  5  1  0  0  0
  5  1  1  0  0  0
  1  2  1  0  0  0
  2  3  2  0  0  0
  2 23  1  0  0  0
 23 24  1  0  0  0
 24 25  2  0  0  0
 25 26  1  0  0  0
 26 27  2  0  0  0
 27 28  1  0  0  0
 27 29  1  0  0  0
 29 30  2  0  0  0
 23 31  1  0  0  0
 31 32  2  0  0  0
 32 33  1  0  0  0
 33 34  2  0  0  0
 34 38  1  0  0  0
 38 40  1  0  0  0
 40 41  1  0  0  0
 40 42  2  0  0  0
 40 43  2  0  0  0
 34 35  1  0  0  0
 35 36  1  0  0  0
 35 37  2  0  0  0
  8 19  1  0  0  0
 19 20  1  0  0  0
 19 21  1  0  0  0
 19 22  1  0  0  0
 18 13  1  0  0  0
 11  6  1  0  0  0
 30 24  1  0  0  0
 37 31  1  0  0  0
  1  4  1  0  0  0
 38 39  1  0  0  0
M  END
> <minimizedAffinity>
-9.05658

> <CNNscore>
0.2172568738

> <CNNaffinity>
6.3712782860

> <CNN_VS>
1.3842040300

> <CNNaffinity_variance>
0.3463095725

$$$$
[H]c1c(C(F)(F)F)nc(N2C([H])([H])C([H])([H])C([H])(C([H])([H])[H])C([H])([H])C2([H])[H])c(C([H])([H])N([H])C(=O)C([H])(c2c([H])c([H])c(C([H])([H])[H])c([H])c2[H])c2c([H])c([H])c(N([H])S(=O)(=O)C([H])([H])[H])c(F)c2[H])c1[H]


 43 46  0  0  0  0  0  0  0  0999 V2000
  154.3361  137.1669  186.2517 N   0  0  0  0  0  0  0  0  0  0  0  0
  155.1890  138.2796  186.1534 C   0  0  0  0  0  0  0  0  0  0  0  0
  156.1228  138.4294  187.0048 O   0  0  0  0  0  0  0  0  0  0  0  0
  153.6155  137.1099  185.4502 H   0  0  0  0  0  0  0  0  0  0  0  0
  154.2856  136.1112  187.2093 C   0  0  0  0  0  0  0  0  0  0  0  0
  155.8253  135.4699  189.0279 C   0  0  0  0  0  0  0  0  0  0  0  0
  156.9934  134.8807  189.4538 N   0  0  0  0  0  0  0  0  0  0  0  0
  157.8950  134.4046  188.5930 C   0  0  0  0  0  0  0  0  0  0  0  0
  157.6602  134.5023  187.2477 C   0  0  0  0  0  0  0  0  0  0  0  0
  156.4971  135.0865  186.7587 C   0  0  0  0  0  0  0  0  0  0  0  0
  155.5718  135.5709  187.6776 C   0  0  0  0  0  0  0  0  0  0  0  0
  152.3567  137.6497  192.9259 C   0  0  0  0  0  0  0  0  0  0  0  0
  153.1444  137.0844  191.7726 C   0  0  0  0  0  0  0  0  0  0  0  0
  153.5863  135.6645  192.0285 C   0  0  0  0  0  0  0  0  0  0  0  0
  154.2251  135.0989  190.8242 C   0  0  0  0  0  0  0  0  0  0  0  0
  154.9882  136.0405  190.0168 N   0  0  0  0  0  0  0  0  0  0  0  0
  154.9135  137.4636  190.1366 C   0  0  0  0  0  0  0  0  0  0  0  0
  154.4397  137.8723  191.5253 C   0  0  0  0  0  0  0  0  0  0  0  0
  159.1683  133.7675  189.0930 C   0  0  0  0  0  0  0  0  0  0  0  0
  159.3936  132.6184  188.4017 F   0  0  0  0  0  0  0  0  0  0  0  0
  159.0943  133.5886  190.4538 F   0  0  0  0  0  0  0  0  0  0  0  0
  160.1980  134.6402  188.7811 F   0  0  0  0  0  0  0  0  0  0  0  0
  155.0131  139.2893  185.0934 C   0  0  0  0  0  0  0  0  0  0  0  0
  156.3237  139.7889  184.5252 C   0  0  0  0  0  0  0  0  0  0  0  0
  157.1499  139.0028  183.7530 C   0  0  0  0  0  0  0  0  0  0  0  0
  158.3205  139.5241  183.2190 C   0  0  0  0  0  0  0  0  0  0  0  0
  158.7116  140.8297  183.4313 C   0  0  0  0  0  0  0  0  0  0  0  0
  159.9681  141.4028  182.8359 C   0  0  0  0  0  0  0  0  0  0  0  0
  157.8852  141.6127  184.2057 C   0  0  0  0  0  0  0  0  0  0  0  0
  156.7106  141.0968  184.7411 C   0  0  0  0  0  0  0  0  0  0  0  0
  154.1098  138.9450  183.9815 C   0  0  0  0  0  0  0  0  0  0  0  0
  153.6687  137.7103  183.6193 C   0  0  0  0  0  0  0  0  0  0  0  0
  152.8662  137.5298  182.4906 C   0  0  0  0  0  0  0  0  0  0  0  0
  152.4995  138.6021  181.7126 C   0  0  0  0  0  0  0  0  0  0  0  0
  152.9473  139.8732  182.0795 C   0  0  0  0  0  0  0  0  0  0  0  0
  152.6028  140.9630  181.3230 F   0  0  0  0  0  0  0  0  0  0  0  0
  153.7221  140.0261  183.1740 C   0  0  0  0  0  0  0  0  0  0  0  0
  151.6923  138.5548  180.5515 N   0  0  0  0  0  0  0  0  0  0  0  0
  152.1988  138.6528  179.6140 H   0  0  0  0  0  0  0  0  0  0  0  0
  150.0141  138.3606  180.5213 S   0  0  0  0  0  0  0  0  0  0  0  0
  149.5366  136.7145  180.8974 C   0  0  0  0  0  0  0  0  0  0  0  0
  149.4923  138.7476  179.1452 O   0  0  0  0  0  0  0  0  0  0  0  0
  149.3691  139.3455  181.4853 O   0  0  0  0  0  0  0  0  0  0  0  0
 12 13  1  0  0  0
 13 14  1  0  0  0
 14 15  1  0  0  0
 15 16  1  0  0  0
 16 17  1  0  0  0
 17 18  1  0  0  0
 16  6  1  0  0  0
  6  7  2  0  0  0
  7  8  1  0  0  0
  8  9  2  0  0  0
  9 10  1  0  0  0
 10 11  2  0  0  0
 11  5  1  0  0  0
  5  1  1  0  0  0
  1  2  1  0  0  0
  2  3  2  0  0  0
  2 23  1  0  0  0
 23 24  1  0  0  0
 24 25  2  0  0  0
 25 26  1  0  0  0
 26 27  2  0  0  0
 27 28  1  0  0  0
 27 29  1  0  0  0
 29 30  2  0  0  0
 23 31  1  0  0  0
 31 32  2  0  0  0
 32 33  1  0  0  0
 33 34  2  0  0  0
 34 38  1  0  0  0
 38 40  1  0  0  0
 40 41  1  0  0  0
 40 42  2  0  0  0
 40 43  2  0  0  0
 34 35  1  0  0  0
 35 36  1  0  0  0
 35 37  2  0  0  0
  8 19  1  0  0  0
 19 20  1  0  0  0
 19 21  1  0  0  0
 19 22  1  0  0  0
 18 13  1  0  0  0
 11  6  1  0  0  0
 30 24  1  0  0  0
 37 31  1  0  0  0
  1  4  1  0  0  0
 38 39  1  0  0  0
M  END
> <minimizedAffinity>
-7.99881

> <CNNscore>
0.2116361856

> <CNNaffinity>
6.4407730103

> <CNN_VS>
1.3631006479

> <CNNaffinity_variance>
0.1314969808

$$$$
[H]c1c(C(F)(F)F)nc(N2C([H])([H])C([H])([H])C([H])(C([H])([H])[H])C([H])([H])C2([H])[H])c(C([H])([H])N([H])C(=O)C([H])(c2c([H])c([H])c(C([H])([H])[H])c([H])c2[H])c2c([H])c([H])c(N([H])S(=O)(=O)C([H])([H])[H])c(F)c2[H])c1[H]


 43 46  0  0  0  0  0  0  0  0999 V2000
  154.4355  136.7457  186.0936 N   0  0  0  0  0  0  0  0  0  0  0  0
  154.1503  138.0109  185.5521 C   0  0  0  0  0  0  0  0  0  0  0  0
  153.7161  138.9337  186.3130 O   0  0  0  0  0  0  0  0  0  0  0  0
  154.8471  136.0562  185.3724 H   0  0  0  0  0  0  0  0  0  0  0  0
  154.2913  136.2443  187.4209 C   0  0  0  0  0  0  0  0  0  0  0  0
  155.4950  135.3210  189.3672 C   0  0  0  0  0  0  0  0  0  0  0  0
  156.5513  134.6149  189.8951 N   0  0  0  0  0  0  0  0  0  0  0  0
  157.5503  134.1689  189.1313 C   0  0  0  0  0  0  0  0  0  0  0  0
  157.5328  134.4173  187.7851 C   0  0  0  0  0  0  0  0  0  0  0  0
  156.4911  135.1245  187.1953 C   0  0  0  0  0  0  0  0  0  0  0  0
  155.4600  135.5746  188.0135 C   0  0  0  0  0  0  0  0  0  0  0  0
  151.8195  137.4220  193.1160 C   0  0  0  0  0  0  0  0  0  0  0  0
  152.8603  136.7600  192.2507 C   0  0  0  0  0  0  0  0  0  0  0  0
  153.8631  137.7499  191.7107 C   0  0  0  0  0  0  0  0  0  0  0  0
  154.9441  137.0477  190.9920 C   0  0  0  0  0  0  0  0  0  0  0  0
  154.5444  135.8437  190.2768 N   0  0  0  0  0  0  0  0  0  0  0  0
  153.3023  135.1600  190.4633 C   0  0  0  0  0  0  0  0  0  0  0  0
  152.2366  136.1000  191.0116 C   0  0  0  0  0  0  0  0  0  0  0  0
  158.6965  133.4007  189.7425 C   0  0  0  0  0  0  0  0  0  0  0  0
  159.8654  134.0242  189.4361 F   0  0  0  0  0  0  0  0  0  0  0  0
  158.6460  132.0891  189.3343 F   0  0  0  0  0  0  0  0  0  0  0  0
  158.5396  133.4798  191.1166 F   0  0  0  0  0  0  0  0  0  0  0  0
  154.3263  138.2871  184.1145 C   0  0  0  0  0  0  0  0  0  0  0  0
  153.0217  138.3009  183.3478 C   0  0  0  0  0  0  0  0  0  0  0  0
  151.9232  137.5640  183.7315 C   0  0  0  0  0  0  0  0  0  0  0  0
  150.7354  137.6469  183.0176 C   0  0  0  0  0  0  0  0  0  0  0  0
  150.5962  138.4533  181.9072 C   0  0  0  0  0  0  0  0  0  0  0  0
  149.3041  138.5613  181.1451 C   0  0  0  0  0  0  0  0  0  0  0  0
  151.6966  139.1868  181.5240 C   0  0  0  0  0  0  0  0  0  0  0  0
  152.8878  139.1096  182.2365 C   0  0  0  0  0  0  0  0  0  0  0  0
  155.1075  139.4823  183.7512 C   0  0  0  0  0  0  0  0  0  0  0  0
  156.4306  139.5498  183.4427 C   0  0  0  0  0  0  0  0  0  0  0  0
  157.0533  140.7733  183.1861 C   0  0  0  0  0  0  0  0  0  0  0  0
  156.3403  141.9474  183.2393 C   0  0  0  0  0  0  0  0  0  0  0  0
  154.9809  141.8856  183.5538 C   0  0  0  0  0  0  0  0  0  0  0  0
  154.2422  143.0383  183.6188 F   0  0  0  0  0  0  0  0  0  0  0  0
  154.3982  140.6930  183.7984 C   0  0  0  0  0  0  0  0  0  0  0  0
  156.8492  143.2456  182.9991 N   0  0  0  0  0  0  0  0  0  0  0  0
  156.2000  144.0634  183.2331 H   0  0  0  0  0  0  0  0  0  0  0  0
  158.3783  143.6090  182.3789 S   0  0  0  0  0  0  0  0  0  0  0  0
  158.6415  142.8736  180.8076 C   0  0  0  0  0  0  0  0  0  0  0  0
  159.4401  143.1290  183.3576 O   0  0  0  0  0  0  0  0  0  0  0  0
  158.5540  145.1187  182.3067 O   0  0  0  0  0  0  0  0  0  0  0  0
 12 13  1  0  0  0
 13 14  1  0  0  0
 14 15  1  0  0  0
 15 16  1  0  0  0
 16 17  1  0  0  0
 17 18  1  0  0  0
 16  6  1  0  0  0
  6  7  2  0  0  0
  7  8  1  0  0  0
  8  9  2  0  0  0
  9 10  1  0  0  0
 10 11  2  0  0  0
 11  5  1  0  0  0
  5  1  1  0  0  0
  1  2  1  0  0  0
  2  3  2  0  0  0
  2 23  1  0  0  0
 23 24  1  0  0  0
 24 25  2  0  0  0
 25 26  1  0  0  0
 26 27  2  0  0  0
 27 28  1  0  0  0
 27 29  1  0  0  0
 29 30  2  0  0  0
 23 31  1  0  0  0
 31 32  2  0  0  0
 32 33  1  0  0  0
 33 34  2  0  0  0
 34 38  1  0  0  0
 38 40  1  0  0  0
 40 41  1  0  0  0
 40 42  2  0  0  0
 40 43  2  0  0  0
 34 35  1  0  0  0
 35 36  1  0  0  0
 35 37  2  0  0  0
  8 19  1  0  0  0
 19 20  1  0  0  0
 19 21  1  0  0  0
 19 22  1  0  0  0
 18 13  1  0  0  0
 11  6  1  0  0  0
 30 24  1  0  0  0
 37 31  1  0  0  0
  1  4  1  0  0  0
 38 39  1  0  0  0
M  END
> <minimizedAffinity>
-8.61322

> <CNNscore>
0.2045467049

> <CNNaffinity>
6.5780096054

> <CNN_VS>
1.3455102444

> <CNNaffinity_variance>
0.1161536425

$$$$
[H]c1c([H])c(-c2c([H])c(C(F)(F)F)c([H])c([H])c2C([H])([H])N([H])C(=O)C([H])(c2c([H])c([H])c(N([H])S(=O)(=O)C([H])([H])[H])c(F)c2[H])C([H])([H])[H])c([H])c([H])c1OC([H])([H])C([H])([H])C([H])([H])[H]


 40 42  0  0  0  0  0  0  0  0999 V2000
  153.4204  139.0719  183.7679 C   0  0  0  0  0  0  0  0  0  0  0  0
  152.5382  138.1251  183.2169 C   0  0  0  0  0  0  0  0  0  0  0  0
  151.8794  138.3151  182.0258 C   0  0  0  0  0  0  0  0  0  0  0  0
  152.1219  139.5037  181.3615 C   0  0  0  0  0  0  0  0  0  0  0  0
  152.9939  140.4793  181.8672 C   0  0  0  0  0  0  0  0  0  0  0  0
  153.6309  140.2454  183.0647 C   0  0  0  0  0  0  0  0  0  0  0  0
  155.1288  138.0862  187.5356 C   0  0  0  0  0  0  0  0  0  0  0  0
  155.9271  138.2162  186.4037 C   0  0  0  0  0  0  0  0  0  0  0  0
  155.3711  138.5612  185.1969 C   0  0  0  0  0  0  0  0  0  0  0  0
  154.0379  138.7889  185.0537 C   0  0  0  0  0  0  0  0  0  0  0  0
  153.2541  138.6635  186.1702 C   0  0  0  0  0  0  0  0  0  0  0  0
  153.7405  138.3263  187.3865 C   0  0  0  0  0  0  0  0  0  0  0  0
  155.5481  137.7525  188.7392 O   0  0  0  0  0  0  0  0  0  0  0  0
  156.4586  137.6132  189.6831 C   0  0  0  0  0  0  0  0  0  0  0  0
  155.0360  138.9297  191.2645 C   0  0  0  0  0  0  0  0  0  0  0  0
  156.2064  138.0444  191.1044 C   0  0  0  0  0  0  0  0  0  0  0  0
  150.9675  137.2717  181.4849 C   0  0  0  0  0  0  0  0  0  0  0  0
  151.6001  136.0651  181.3406 F   0  0  0  0  0  0  0  0  0  0  0  0
  149.8815  137.0868  182.3108 F   0  0  0  0  0  0  0  0  0  0  0  0
  150.4122  137.6848  180.2702 F   0  0  0  0  0  0  0  0  0  0  0  0
  154.6033  141.2262  183.6146 C   0  0  0  0  0  0  0  0  0  0  0  0
  155.8197  141.3909  182.9493 N   0  0  0  0  0  0  0  0  0  0  0  0
  156.4388  142.3644  182.1653 C   0  0  0  0  0  0  0  0  0  0  0  0
  155.8648  143.4583  181.9695 O   0  0  0  0  0  0  0  0  0  0  0  0
  156.5002  140.5104  183.0608 H   0  0  0  0  0  0  0  0  0  0  0  0
  157.7559  142.1068  181.5802 C   0  0  0  0  0  0  0  0  0  0  0  0
  157.9685  143.1969  180.5023 C   0  0  0  0  0  0  0  0  0  0  0  0
  158.9024  142.1482  182.4686 C   0  0  0  0  0  0  0  0  0  0  0  0
  159.6520  141.1072  182.9223 C   0  0  0  0  0  0  0  0  0  0  0  0
  160.7298  141.2498  183.8169 C   0  0  0  0  0  0  0  0  0  0  0  0
  161.0693  142.5075  184.2846 C   0  0  0  0  0  0  0  0  0  0  0  0
  160.3119  143.5907  183.8294 C   0  0  0  0  0  0  0  0  0  0  0  0
  160.6754  144.8160  184.3169 F   0  0  0  0  0  0  0  0  0  0  0  0
  159.2859  143.4288  182.9699 C   0  0  0  0  0  0  0  0  0  0  0  0
  162.1075  142.7370  185.2249 N   0  0  0  0  0  0  0  0  0  0  0  0
  163.0794  142.7570  184.7847 H   0  0  0  0  0  0  0  0  0  0  0  0
  161.8280  142.9703  186.8850 S   0  0  0  0  0  0  0  0  0  0  0  0
  163.1629  142.3159  187.8423 C   0  0  0  0  0  0  0  0  0  0  0  0
  161.7030  144.4542  187.1406 O   0  0  0  0  0  0  0  0  0  0  0  0
  160.5278  142.2823  187.3021 O   0  0  0  0  0  0  0  0  0  0  0  0
 15 16  1  0  0  0
 16 14  1  0  0  0
 14 13  1  0  0  0
 13  7  1  0  0  0
  7  8  2  0  0  0
  8  9  1  0  0  0
  9 10  2  0  0  0
 10 11  1  0  0  0
 11 12  2  0  0  0
 10  1  1  0  0  0
  1  2  2  0  0  0
  2  3  1  0  0  0
  3  4  2  0  0  0
  4  5  1  0  0  0
  5  6  2  0  0  0
  6 21  1  0  0  0
 21 22  1  0  0  0
 22 23  1  0  0  0
 23 24  2  0  0  0
 23 26  1  0  0  0
 26 27  1  0  0  0
 26 28  1  0  0  0
 28 29  2  0  0  0
 29 30  1  0  0  0
 30 31  2  0  0  0
 31 35  1  0  0  0
 35 37  1  0  0  0
 37 38  1  0  0  0
 37 39  2  0  0  0
 37 40  2  0  0  0
 31 32  1  0  0  0
 32 33  1  0  0  0
 32 34  2  0  0  0
  3 17  1  0  0  0
 17 18  1  0  0  0
 17 19  1  0  0  0
 17 20  1  0  0  0
 12  7  1  0  0  0
  6  1  1  0  0  0
 34 28  1  0  0  0
 22 25  1  0  0  0
 35 36  1  0  0  0
M  END
> <minimizedAffinity>
-9.49107

> <CNNscore>
0.4448263049

> <CNNaffinity>
7.1996788979

> <CNN_VS>
3.2026066780

> <CNNaffinity_variance>
0.0928091332

$$$$
[H]c1c([H])c(-c2c([H])c(C(F)(F)F)c([H])c([H])c2C([H])([H])N([H])C(=O)C([H])(c2c([H])c([H])c(N([H])S(=O)(=O)C([H])([H])[H])c(F)c2[H])C([H])([H])[H])c([H])c([H])c1OC([H])([H])C([H])([H])C([H])([H])[H]


 40 42  0  0  0  0  0  0  0  0999 V2000
  153.7596  140.4842  182.3984 C   0  0  0  0  0  0  0  0  0  0  0  0
  152.7907  140.4655  181.3790 C   0  0  0  0  0  0  0  0  0  0  0  0
  151.8376  139.4819  181.2655 C   0  0  0  0  0  0  0  0  0  0  0  0
  151.8584  138.4800  182.2187 C   0  0  0  0  0  0  0  0  0  0  0  0
  152.8022  138.4538  183.2564 C   0  0  0  0  0  0  0  0  0  0  0  0
  153.7385  139.4599  183.3292 C   0  0  0  0  0  0  0  0  0  0  0  0
  156.6732  143.5778  182.2389 C   0  0  0  0  0  0  0  0  0  0  0  0
  155.3614  143.8535  182.6112 C   0  0  0  0  0  0  0  0  0  0  0  0
  154.4337  142.8444  182.6863 C   0  0  0  0  0  0  0  0  0  0  0  0
  154.7477  141.5511  182.4062 C   0  0  0  0  0  0  0  0  0  0  0  0
  156.0407  141.2814  182.0429 C   0  0  0  0  0  0  0  0  0  0  0  0
  157.0005  142.2300  181.9500 C   0  0  0  0  0  0  0  0  0  0  0  0
  157.6430  144.4624  182.1243 O   0  0  0  0  0  0  0  0  0  0  0  0
  158.9054  144.8394  182.0650 C   0  0  0  0  0  0  0  0  0  0  0  0
  159.9712  143.5136  183.8991 C   0  0  0  0  0  0  0  0  0  0  0  0
  159.7948  144.8424  183.2809 C   0  0  0  0  0  0  0  0  0  0  0  0
  150.8287  139.5213  180.1730 C   0  0  0  0  0  0  0  0  0  0  0  0
  151.3085  140.1545  179.0569 F   0  0  0  0  0  0  0  0  0  0  0  0
  150.4433  138.2507  179.8089 F   0  0  0  0  0  0  0  0  0  0  0  0
  149.6488  140.1278  180.6141 F   0  0  0  0  0  0  0  0  0  0  0  0
  154.7254  139.5033  184.4401 C   0  0  0  0  0  0  0  0  0  0  0  0
  154.6682  138.5013  185.4107 N   0  0  0  0  0  0  0  0  0  0  0  0
  153.9413  138.2345  186.5709 C   0  0  0  0  0  0  0  0  0  0  0  0
  153.0250  139.0112  186.9193 O   0  0  0  0  0  0  0  0  0  0  0  0
  155.4001  137.6755  185.2283 H   0  0  0  0  0  0  0  0  0  0  0  0
  154.2478  137.0480  187.3720 C   0  0  0  0  0  0  0  0  0  0  0  0
  155.6853  137.2508  187.9089 C   0  0  0  0  0  0  0  0  0  0  0  0
  153.3952  136.7728  188.5134 C   0  0  0  0  0  0  0  0  0  0  0  0
  152.1953  136.1314  188.5308 C   0  0  0  0  0  0  0  0  0  0  0  0
  151.4235  135.9457  189.6936 C   0  0  0  0  0  0  0  0  0  0  0  0
  151.8811  136.4360  190.9044 C   0  0  0  0  0  0  0  0  0  0  0  0
  153.1128  137.0974  190.9080 C   0  0  0  0  0  0  0  0  0  0  0  0
  153.5291  137.5706  192.1221 F   0  0  0  0  0  0  0  0  0  0  0  0
  153.8350  137.2599  189.7814 C   0  0  0  0  0  0  0  0  0  0  0  0
  151.1465  136.3373  192.1148 N   0  0  0  0  0  0  0  0  0  0  0  0
  150.5350  137.1900  192.3087 H   0  0  0  0  0  0  0  0  0  0  0  0
  151.2236  134.9881  193.1456 S   0  0  0  0  0  0  0  0  0  0  0  0
  152.6539  135.0733  194.1818 C   0  0  0  0  0  0  0  0  0  0  0  0
  149.9792  134.9747  194.0024 O   0  0  0  0  0  0  0  0  0  0  0  0
  151.2760  133.6997  192.3241 O   0  0  0  0  0  0  0  0  0  0  0  0
 15 16  1  0  0  0
 16 14  1  0  0  0
 14 13  1  0  0  0
 13  7  1  0  0  0
  7  8  2  0  0  0
  8  9  1  0  0  0
  9 10  2  0  0  0
 10 11  1  0  0  0
 11 12  2  0  0  0
 10  1  1  0  0  0
  1  2  2  0  0  0
  2  3  1  0  0  0
  3  4  2  0  0  0
  4  5  1  0  0  0
  5  6  2  0  0  0
  6 21  1  0  0  0
 21 22  1  0  0  0
 22 23  1  0  0  0
 23 24  2  0  0  0
 23 26  1  0  0  0
 26 27  1  0  0  0
 26 28  1  0  0  0
 28 29  2  0  0  0
 29 30  1  0  0  0
 30 31  2  0  0  0
 31 35  1  0  0  0
 35 37  1  0  0  0
 37 38  1  0  0  0
 37 39  2  0  0  0
 37 40  2  0  0  0
 31 32  1  0  0  0
 32 33  1  0  0  0
 32 34  2  0  0  0
  3 17  1  0  0  0
 17 18  1  0  0  0
 17 19  1  0  0  0
 17 20  1  0  0  0
 12  7  1  0  0  0
  6  1  1  0  0  0
 34 28  1  0  0  0
 22 25  1  0  0  0
 35 36  1  0  0  0
M  END
> <minimizedAffinity>
-8.73956

> <CNNscore>
0.4447033405

> <CNNaffinity>
6.2211089134

> <CNN_VS>
2.7665479183

> <CNNaffinity_variance>
0.1224474534

$$$$
[H]c1c([H])c(-c2c([H])c(C(F)(F)F)c([H])c([H])c2C([H])([H])N([H])C(=O)C([H])(c2c([H])c([H])c(N([H])S(=O)(=O)C([H])([H])[H])c(F)c2[H])C([H])([H])[H])c([H])c([H])c1OC([H])([H])C([H])([H])C([H])([H])[H]


 40 42  0  0  0  0  0  0  0  0999 V2000
  153.6045  137.4912  186.2600 C   0  0  0  0  0  0  0  0  0  0  0  0
  154.1901  136.9799  187.4321 C   0  0  0  0  0  0  0  0  0  0  0  0
  155.4815  137.2585  187.8107 C   0  0  0  0  0  0  0  0  0  0  0  0
  156.2104  138.0883  186.9782 C   0  0  0  0  0  0  0  0  0  0  0  0
  155.6723  138.6256  185.7993 C   0  0  0  0  0  0  0  0  0  0  0  0
  154.3743  138.3178  185.4601 C   0  0  0  0  0  0  0  0  0  0  0  0
  149.5768  136.5390  185.2818 C   0  0  0  0  0  0  0  0  0  0  0  0
  150.6254  136.1180  184.4703 C   0  0  0  0  0  0  0  0  0  0  0  0
  151.9244  136.4065  184.8078 C   0  0  0  0  0  0  0  0  0  0  0  0
  152.2418  137.1040  185.9314 C   0  0  0  0  0  0  0  0  0  0  0  0
  151.2079  137.5148  186.7306 C   0  0  0  0  0  0  0  0  0  0  0  0
  149.9081  137.2631  186.4536 C   0  0  0  0  0  0  0  0  0  0  0  0
  148.2959  136.3292  185.0552 O   0  0  0  0  0  0  0  0  0  0  0  0
  147.0742  136.6946  184.7185 C   0  0  0  0  0  0  0  0  0  0  0  0
  147.1082  139.1886  184.5278 C   0  0  0  0  0  0  0  0  0  0  0  0
  146.8116  137.9053  183.8613 C   0  0  0  0  0  0  0  0  0  0  0  0
  156.0437  136.6996  189.0694 C   0  0  0  0  0  0  0  0  0  0  0  0
  156.6213  137.6692  189.8460 F   0  0  0  0  0  0  0  0  0  0  0  0
  155.0662  136.0820  189.8169 F   0  0  0  0  0  0  0  0  0  0  0  0
  156.9605  135.6818  188.7899 F   0  0  0  0  0  0  0  0  0  0  0  0
  153.7439  138.9048  184.2486 C   0  0  0  0  0  0  0  0  0  0  0  0
  154.3372  140.0328  183.6788 N   0  0  0  0  0  0  0  0  0  0  0  0
  154.2470  140.7496  182.4856 C   0  0  0  0  0  0  0  0  0  0  0  0
  153.4035  140.4148  181.6249 O   0  0  0  0  0  0  0  0  0  0  0  0
  155.0998  140.5077  184.3449 H   0  0  0  0  0  0  0  0  0  0  0  0
  155.1325  141.8908  182.2466 C   0  0  0  0  0  0  0  0  0  0  0  0
  154.5662  143.0589  183.0895 C   0  0  0  0  0  0  0  0  0  0  0  0
  156.5307  141.7389  182.6032 C   0  0  0  0  0  0  0  0  0  0  0  0
  157.6079  141.6792  181.7739 C   0  0  0  0  0  0  0  0  0  0  0  0
  158.9301  141.4925  182.2200 C   0  0  0  0  0  0  0  0  0  0  0  0
  159.1826  141.3534  183.5738 C   0  0  0  0  0  0  0  0  0  0  0  0
  158.0892  141.4129  184.4429 C   0  0  0  0  0  0  0  0  0  0  0  0
  158.3785  141.2675  185.7720 F   0  0  0  0  0  0  0  0  0  0  0  0
  156.8321  141.5957  183.9914 C   0  0  0  0  0  0  0  0  0  0  0  0
  160.4760  141.1127  184.1064 N   0  0  0  0  0  0  0  0  0  0  0  0
  160.8028  140.1044  183.9831 H   0  0  0  0  0  0  0  0  0  0  0  0
  161.4158  142.3155  184.8540 S   0  0  0  0  0  0  0  0  0  0  0  0
  160.9656  143.9196  184.2616 C   0  0  0  0  0  0  0  0  0  0  0  0
  161.1799  142.2430  186.3446 O   0  0  0  0  0  0  0  0  0  0  0  0
  162.8994  142.0756  184.5728 O   0  0  0  0  0  0  0  0  0  0  0  0
 15 16  1  0  0  0
 16 14  1  0  0  0
 14 13  1  0  0  0
 13  7  1  0  0  0
  7  8  2  0  0  0
  8  9  1  0  0  0
  9 10  2  0  0  0
 10 11  1  0  0  0
 11 12  2  0  0  0
 10  1  1  0  0  0
  1  2  2  0  0  0
  2  3  1  0  0  0
  3  4  2  0  0  0
  4  5  1  0  0  0
  5  6  2  0  0  0
  6 21  1  0  0  0
 21 22  1  0  0  0
 22 23  1  0  0  0
 23 24  2  0  0  0
 23 26  1  0  0  0
 26 27  1  0  0  0
 26 28  1  0  0  0
 28 29  2  0  0  0
 29 30  1  0  0  0
 30 31  2  0  0  0
 31 35  1  0  0  0
 35 37  1  0  0  0
 37 38  1  0  0  0
 37 39  2  0  0  0
 37 40  2  0  0  0
 31 32  1  0  0  0
 32 33  1  0  0  0
 32 34  2  0  0  0
  3 17  1  0  0  0
 17 18  1  0  0  0
 17 19  1  0  0  0
 17 20  1  0  0  0
 12  7  1  0  0  0
  6  1  1  0  0  0
 34 28  1  0  0  0
 22 25  1  0  0  0
 35 36  1  0  0  0
M  END
> <minimizedAffinity>
-8.08074

> <CNNscore>
0.3083083332

> <CNNaffinity>
6.6671929359

> <CNN_VS>
2.0555510521

> <CNNaffinity_variance>
0.3119333386

$$$$
[H]c1c([H])c(-c2c([H])c(C(F)(F)F)c([H])c([H])c2C([H])([H])N([H])C(=O)C([H])(c2c([H])c([H])c(N([H])S(=O)(=O)C([H])([H])[H])c(F)c2[H])C([H])([H])[H])c([H])c([H])c1OC([H])([H])C([H])([H])C([H])([H])[H]


 40 42  0  0  0  0  0  0  0  0999 V2000
  155.0624  138.2855  185.6559 C   0  0  0  0  0  0  0  0  0  0  0  0
  155.3142  138.3192  187.0393 C   0  0  0  0  0  0  0  0  0  0  0  0
  154.8251  137.3803  187.9156 C   0  0  0  0  0  0  0  0  0  0  0  0
  154.0558  136.3651  187.3769 C   0  0  0  0  0  0  0  0  0  0  0  0
  153.7771  136.2851  186.0043 C   0  0  0  0  0  0  0  0  0  0  0  0
  154.2877  137.2489  185.1648 C   0  0  0  0  0  0  0  0  0  0  0  0
  156.5390  141.5206  183.3237 C   0  0  0  0  0  0  0  0  0  0  0  0
  157.4120  140.6612  183.9830 C   0  0  0  0  0  0  0  0  0  0  0  0
  156.9279  139.6033  184.7116 C   0  0  0  0  0  0  0  0  0  0  0  0
  155.5961  139.3496  184.8206 C   0  0  0  0  0  0  0  0  0  0  0  0
  154.7384  140.1952  184.1680 C   0  0  0  0  0  0  0  0  0  0  0  0
  155.1520  141.2542  183.4352 C   0  0  0  0  0  0  0  0  0  0  0  0
  156.8868  142.5692  182.6057 O   0  0  0  0  0  0  0  0  0  0  0  0
  157.2608  143.1782  181.4973 C   0  0  0  0  0  0  0  0  0  0  0  0
  159.2481  143.3691  179.9900 C   0  0  0  0  0  0  0  0  0  0  0  0
  158.1526  142.5111  180.4828 C   0  0  0  0  0  0  0  0  0  0  0  0
  155.1356  137.4595  189.3683 C   0  0  0  0  0  0  0  0  0  0  0  0
  154.2782  138.2991  190.0291 F   0  0  0  0  0  0  0  0  0  0  0  0
  155.0566  136.2188  189.9598 F   0  0  0  0  0  0  0  0  0  0  0  0
  156.4619  137.8541  189.5675 F   0  0  0  0  0  0  0  0  0  0  0  0
  154.0632  137.1773  183.6970 C   0  0  0  0  0  0  0  0  0  0  0  0
  153.5609  135.9882  183.1652 N   0  0  0  0  0  0  0  0  0  0  0  0
  152.3741  135.5433  182.5826 C   0  0  0  0  0  0  0  0  0  0  0  0
  151.4408  136.3521  182.3848 O   0  0  0  0  0  0  0  0  0  0  0  0
  154.2954  135.1460  183.2102 H   0  0  0  0  0  0  0  0  0  0  0  0
  152.2262  134.1377  182.2008 C   0  0  0  0  0  0  0  0  0  0  0  0
  151.0760  134.0916  181.1662 C   0  0  0  0  0  0  0  0  0  0  0  0
  153.3736  133.4831  181.6005 C   0  0  0  0  0  0  0  0  0  0  0  0
  153.9817  133.7708  180.4178 C   0  0  0  0  0  0  0  0  0  0  0  0
  155.0744  133.0475  179.9028 C   0  0  0  0  0  0  0  0  0  0  0  0
  155.5803  131.9732  180.6138 C   0  0  0  0  0  0  0  0  0  0  0  0
  154.9700  131.6618  181.8324 C   0  0  0  0  0  0  0  0  0  0  0  0
  155.4955  130.5918  182.5033 F   0  0  0  0  0  0  0  0  0  0  0  0
  153.9264  132.3717  182.3060 C   0  0  0  0  0  0  0  0  0  0  0  0
  156.6455  131.1597  180.1469 N   0  0  0  0  0  0  0  0  0  0  0  0
  156.3208  130.3499  179.5325 H   0  0  0  0  0  0  0  0  0  0  0  0
  158.2774  131.4550  180.5191 S   0  0  0  0  0  0  0  0  0  0  0  0
  158.7651  130.5491  181.9572 C   0  0  0  0  0  0  0  0  0  0  0  0
  159.1180  131.0226  179.3404 O   0  0  0  0  0  0  0  0  0  0  0  0
  158.4993  132.9473  180.7676 O   0  0  0  0  0  0  0  0  0  0  0  0
 15 16  1  0  0  0
 16 14  1  0  0  0
 14 13  1  0  0  0
 13  7  1  0  0  0
  7  8  2  0  0  0
  8  9  1  0  0  0
  9 10  2  0  0  0
 10 11  1  0  0  0
 11 12  2  0  0  0
 10  1  1  0  0  0
  1  2  2  0  0  0
  2  3  1  0  0  0
  3  4  2  0  0  0
  4  5  1  0  0  0
  5  6  2  0  0  0
  6 21  1  0  0  0
 21 22  1  0  0  0
 22 23  1  0  0  0
 23 24  2  0  0  0
 23 26  1  0  0  0
 26 27  1  0  0  0
 26 28  1  0  0  0
 28 29  2  0  0  0
 29 30  1  0  0  0
 30 31  2  0  0  0
 31 35  1  0  0  0
 35 37  1  0  0  0
 37 38  1  0  0  0
 37 39  2  0  0  0
 37 40  2  0  0  0
 31 32  1  0  0  0
 32 33  1  0  0  0
 32 34  2  0  0  0
  3 17  1  0  0  0
 17 18  1  0  0  0
 17 19  1  0  0  0
 17 20  1  0  0  0
 12  7  1  0  0  0
  6  1  1  0  0  0
 34 28  1  0  0  0
 22 25  1  0  0  0
 35 36  1  0  0  0
M  END
> <minimizedAffinity>
-6.69234

> <CNNscore>
0.2910331488

> <CNNaffinity>
6.2333745956

> <CNN_VS>
1.8141186237

> <CNNaffinity_variance>
0.2706004977

$$$$
[H]c1c([H])c(-c2c([H])c(C(F)(F)F)c([H])c([H])c2C([H])([H])N([H])C(=O)C([H])(c2c([H])c([H])c(N([H])S(=O)(=O)C([H])([H])[H])c(F)c2[H])C([H])([H])[H])c([H])c([H])c1OC([H])([H])C([H])([H])C([H])([H])[H]


 40 42  0  0  0  0  0  0  0  0999 V2000
  153.8323  140.5400  182.1825 C   0  0  0  0  0  0  0  0  0  0  0  0
  152.7789  140.6033  181.2527 C   0  0  0  0  0  0  0  0  0  0  0  0
  151.7621  139.6800  181.2044 C   0  0  0  0  0  0  0  0  0  0  0  0
  151.8057  138.6548  182.1318 C   0  0  0  0  0  0  0  0  0  0  0  0
  152.8331  138.5476  183.0811 C   0  0  0  0  0  0  0  0  0  0  0  0
  153.8310  139.4955  183.0908 C   0  0  0  0  0  0  0  0  0  0  0  0
  156.8809  143.5050  182.1960 C   0  0  0  0  0  0  0  0  0  0  0  0
  157.1522  142.2064  181.7770 C   0  0  0  0  0  0  0  0  0  0  0  0
  156.1559  141.2624  181.7501 C   0  0  0  0  0  0  0  0  0  0  0  0
  154.8797  141.5471  182.1242 C   0  0  0  0  0  0  0  0  0  0  0  0
  154.6141  142.8271  182.5334 C   0  0  0  0  0  0  0  0  0  0  0  0
  155.5507  143.8018  182.5829 C   0  0  0  0  0  0  0  0  0  0  0  0
  157.7550  144.4879  182.2717 O   0  0  0  0  0  0  0  0  0  0  0  0
  158.9429  145.0361  182.1046 C   0  0  0  0  0  0  0  0  0  0  0  0
  160.2394  144.0535  184.0049 C   0  0  0  0  0  0  0  0  0  0  0  0
  159.8802  145.2759  183.2593 C   0  0  0  0  0  0  0  0  0  0  0  0
  150.6660  139.8055  180.2066 C   0  0  0  0  0  0  0  0  0  0  0  0
  149.4686  140.1101  180.7984 F   0  0  0  0  0  0  0  0  0  0  0  0
  150.9467  140.7880  179.2838 F   0  0  0  0  0  0  0  0  0  0  0  0
  150.5562  138.6376  179.4462 F   0  0  0  0  0  0  0  0  0  0  0  0
  154.9118  139.4534  184.1106 C   0  0  0  0  0  0  0  0  0  0  0  0
  154.5565  139.1954  185.4360 N   0  0  0  0  0  0  0  0  0  0  0  0
  154.3057  138.0794  186.2342 C   0  0  0  0  0  0  0  0  0  0  0  0
  154.4511  136.9323  185.7574 O   0  0  0  0  0  0  0  0  0  0  0  0
  154.4315  140.1264  186.0428 H   0  0  0  0  0  0  0  0  0  0  0  0
  153.8797  138.2524  187.6242 C   0  0  0  0  0  0  0  0  0  0  0  0
  152.4315  137.7115  187.7009 C   0  0  0  0  0  0  0  0  0  0  0  0
  154.6494  137.5731  188.6495 C   0  0  0  0  0  0  0  0  0  0  0  0
  155.9288  137.8199  189.0418 C   0  0  0  0  0  0  0  0  0  0  0  0
  156.6029  137.0749  190.0281 C   0  0  0  0  0  0  0  0  0  0  0  0
  155.9567  136.0210  190.6507 C   0  0  0  0  0  0  0  0  0  0  0  0
  154.6410  135.7518  190.2626 C   0  0  0  0  0  0  0  0  0  0  0  0
  154.0378  134.7009  190.8975 F   0  0  0  0  0  0  0  0  0  0  0  0
  154.0157  136.4818  189.3173 C   0  0  0  0  0  0  0  0  0  0  0  0
  156.5758  135.1875  191.6185 N   0  0  0  0  0  0  0  0  0  0  0  0
  156.4790  135.5542  192.6159 H   0  0  0  0  0  0  0  0  0  0  0  0
  157.3794  133.7418  191.2276 S   0  0  0  0  0  0  0  0  0  0  0  0
  156.2216  132.4263  190.9918 C   0  0  0  0  0  0  0  0  0  0  0  0
  158.1593  133.9629  189.9525 O   0  0  0  0  0  0  0  0  0  0  0  0
  158.3507  133.3602  192.3450 O   0  0  0  0  0  0  0  0  0  0  0  0
 15 16  1  0  0  0
 16 14  1  0  0  0
 14 13  1  0  0  0
 13  7  1  0  0  0
  7  8  2  0  0  0
  8  9  1  0  0  0
  9 10  2  0  0  0
 10 11  1  0  0  0
 11 12  2  0  0  0
 10  1  1  0  0  0
  1  2  2  0  0  0
  2  3  1  0  0  0
  3  4  2  0  0  0
  4  5  1  0  0  0
  5  6  2  0  0  0
  6 21  1  0  0  0
 21 22  1  0  0  0
 22 23  1  0  0  0
 23 24  2  0  0  0
 23 26  1  0  0  0
 26 27  1  0  0  0
 26 28  1  0  0  0
 28 29  2  0  0  0
 29 30  1  0  0  0
 30 31  2  0  0  0
 31 35  1  0  0  0
 35 37  1  0  0  0
 37 38  1  0  0  0
 37 39  2  0  0  0
 37 40  2  0  0  0
 31 32  1  0  0  0
 32 33  1  0  0  0
 32 34  2  0  0  0
  3 17  1  0  0  0
 17 18  1  0  0  0
 17 19  1  0  0  0
 17 20  1  0  0  0
 12  7  1  0  0  0
  6  1  1  0  0  0
 34 28  1  0  0  0
 22 25  1  0  0  0
 35 36  1  0  0  0
M  END
> <minimizedAffinity>
-8.46006

> <CNNscore>
0.2757169008

> <CNNaffinity>
6.2375674248

> <CNN_VS>
1.7198027372

> <CNNaffinity_variance>
0.0856914967

$$$$
[H]c1c([H])c(-c2c([H])c(C(F)(F)F)c([H])c([H])c2C([H])([H])N([H])C(=O)C([H])(c2c([H])c([H])c(N([H])S(=O)(=O)C([H])([H])[H])c(F)c2[H])C([H])([H])[H])c([H])c([H])c1OC([H])([H])C([H])([H])C([H])([H])[H]


 40 42  0  0  0  0  0  0  0  0999 V2000
  154.3581  139.6125  183.4158 C   0  0  0  0  0  0  0  0  0  0  0  0
  153.5560  139.7573  182.2695 C   0  0  0  0  0  0  0  0  0  0  0  0
  152.4594  138.9691  182.0149 C   0  0  0  0  0  0  0  0  0  0  0  0
  152.1561  137.9998  182.9537 C   0  0  0  0  0  0  0  0  0  0  0  0
  152.9228  137.8160  184.1141 C   0  0  0  0  0  0  0  0  0  0  0  0
  154.0132  138.6288  184.3263 C   0  0  0  0  0  0  0  0  0  0  0  0
  157.8225  142.0611  183.7133 C   0  0  0  0  0  0  0  0  0  0  0  0
  156.5581  142.6281  183.5894 C   0  0  0  0  0  0  0  0  0  0  0  0
  155.4426  141.8309  183.5212 C   0  0  0  0  0  0  0  0  0  0  0  0
  155.5194  140.4739  183.5715 C   0  0  0  0  0  0  0  0  0  0  0  0
  156.7651  139.9179  183.6967 C   0  0  0  0  0  0  0  0  0  0  0  0
  157.9017  140.6477  183.7685 C   0  0  0  0  0  0  0  0  0  0  0  0
  158.9599  142.7229  183.7784 O   0  0  0  0  0  0  0  0  0  0  0  0
  160.1917  142.9281  184.2025 C   0  0  0  0  0  0  0  0  0  0  0  0
  159.8287  142.5182  186.6434 C   0  0  0  0  0  0  0  0  0  0  0  0
  160.7094  142.3130  185.4766 C   0  0  0  0  0  0  0  0  0  0  0  0
  151.6396  139.1771  180.7911 C   0  0  0  0  0  0  0  0  0  0  0  0
  150.6758  140.1326  180.9779 F   0  0  0  0  0  0  0  0  0  0  0  0
  152.4249  139.5666  179.7294 F   0  0  0  0  0  0  0  0  0  0  0  0
  151.0647  137.9733  180.3730 F   0  0  0  0  0  0  0  0  0  0  0  0
  154.8246  138.5065  185.5659 C   0  0  0  0  0  0  0  0  0  0  0  0
  154.6612  137.3626  186.3494 N   0  0  0  0  0  0  0  0  0  0  0  0
  154.6109  137.0450  187.7067 C   0  0  0  0  0  0  0  0  0  0  0  0
  154.6715  137.9588  188.5586 O   0  0  0  0  0  0  0  0  0  0  0  0
  154.5363  136.4322  185.7416 H   0  0  0  0  0  0  0  0  0  0  0  0
  154.4827  135.6491  188.1293 C   0  0  0  0  0  0  0  0  0  0  0  0
  154.0719  134.8534  186.8668 C   0  0  0  0  0  0  0  0  0  0  0  0
  155.6606  135.0061  188.6809 C   0  0  0  0  0  0  0  0  0  0  0  0
  155.9425  134.7464  189.9865 C   0  0  0  0  0  0  0  0  0  0  0  0
  157.1383  134.1464  190.4250 C   0  0  0  0  0  0  0  0  0  0  0  0
  158.1057  133.7925  189.5005 C   0  0  0  0  0  0  0  0  0  0  0  0
  157.8347  134.0501  188.1534 C   0  0  0  0  0  0  0  0  0  0  0  0
  158.8161  133.6900  187.2710 F   0  0  0  0  0  0  0  0  0  0  0  0
  156.6803  134.6231  187.7580 C   0  0  0  0  0  0  0  0  0  0  0  0
  159.3586  133.2294  189.8577 N   0  0  0  0  0  0  0  0  0  0  0  0
  160.0971  133.9608  190.0992 H   0  0  0  0  0  0  0  0  0  0  0  0
  159.6486  131.5554  189.9087 S   0  0  0  0  0  0  0  0  0  0  0  0
  158.1270  130.6593  190.0008 C   0  0  0  0  0  0  0  0  0  0  0  0
  160.3898  131.1644  188.6515 O   0  0  0  0  0  0  0  0  0  0  0  0
  160.5098  131.2067  191.1229 O   0  0  0  0  0  0  0  0  0  0  0  0
 15 16  1  0  0  0
 16 14  1  0  0  0
 14 13  1  0  0  0
 13  7  1  0  0  0
  7  8  2  0  0  0
  8  9  1  0  0  0
  9 10  2  0  0  0
 10 11  1  0  0  0
 11 12  2  0  0  0
 10  1  1  0  0  0
  1  2  2  0  0  0
  2  3  1  0  0  0
  3  4  2  0  0  0
  4  5  1  0  0  0
  5  6  2  0  0  0
  6 21  1  0  0  0
 21 22  1  0  0  0
 22 23  1  0  0  0
 23 24  2  0  0  0
 23 26  1  0  0  0
 26 27  1  0  0  0
 26 28  1  0  0  0
 28 29  2  0  0  0
 29 30  1  0  0  0
 30 31  2  0  0  0
 31 35  1  0  0  0
 35 37  1  0  0  0
 37 38  1  0  0  0
 37 39  2  0  0  0
 37 40  2  0  0  0
 31 32  1  0  0  0
 32 33  1  0  0  0
 32 34  2  0  0  0
  3 17  1  0  0  0
 17 18  1  0  0  0
 17 19  1  0  0  0
 17 20  1  0  0  0
 12  7  1  0  0  0
  6  1  1  0  0  0
 34 28  1  0  0  0
 22 25  1  0  0  0
 35 36  1  0  0  0
M  END
> <minimizedAffinity>
-7.56704

> <CNNscore>
0.2674320042

> <CNNaffinity>
6.2318305969

> <CNN_VS>
1.6665909290

> <CNNaffinity_variance>
0.1226662844

$$$$
[H]c1c([H])c(-c2c([H])c(C(F)(F)F)c([H])c([H])c2C([H])([H])N([H])C(=O)C([H])(c2c([H])c([H])c(N([H])S(=O)(=O)C([H])([H])[H])c(F)c2[H])C([H])([H])[H])c([H])c([H])c1OC([H])([H])C([H])([H])C([H])([H])[H]


 40 42  0  0  0  0  0  0  0  0999 V2000
  154.6792  139.6882  183.9811 C   0  0  0  0  0  0  0  0  0  0  0  0
  155.0576  139.0381  185.1696 C   0  0  0  0  0  0  0  0  0  0  0  0
  154.3581  137.9833  185.7052 C   0  0  0  0  0  0  0  0  0  0  0  0
  153.2356  137.5640  185.0144 C   0  0  0  0  0  0  0  0  0  0  0  0
  152.8170  138.1772  183.8241 C   0  0  0  0  0  0  0  0  0  0  0  0
  153.5488  139.2312  183.3259 C   0  0  0  0  0  0  0  0  0  0  0  0
  156.9773  142.9271  182.4600 C   0  0  0  0  0  0  0  0  0  0  0  0
  155.7367  143.1489  183.0493 C   0  0  0  0  0  0  0  0  0  0  0  0
  155.0135  142.1008  183.5621 C   0  0  0  0  0  0  0  0  0  0  0  0
  155.4678  140.8195  183.5198 C   0  0  0  0  0  0  0  0  0  0  0  0
  156.6910  140.6038  182.9420 C   0  0  0  0  0  0  0  0  0  0  0  0
  157.4513  141.5927  182.4188 C   0  0  0  0  0  0  0  0  0  0  0  0
  157.7531  143.8499  181.9286 O   0  0  0  0  0  0  0  0  0  0  0  0
  158.9022  144.3277  181.4918 C   0  0  0  0  0  0  0  0  0  0  0  0
  158.8178  142.7798  179.5285 C   0  0  0  0  0  0  0  0  0  0  0  0
  159.4541  143.9642  180.1379 C   0  0  0  0  0  0  0  0  0  0  0  0
  154.8138  137.3255  186.9592 C   0  0  0  0  0  0  0  0  0  0  0  0
  156.1790  137.2289  187.0186 F   0  0  0  0  0  0  0  0  0  0  0  0
  154.3878  138.0230  188.0672 F   0  0  0  0  0  0  0  0  0  0  0  0
  154.2247  136.0650  187.0961 F   0  0  0  0  0  0  0  0  0  0  0  0
  153.1745  139.8786  182.0411 C   0  0  0  0  0  0  0  0  0  0  0  0
  151.8649  139.7236  181.5829 N   0  0  0  0  0  0  0  0  0  0  0  0
  151.2066  139.6577  180.3549 C   0  0  0  0  0  0  0  0  0  0  0  0
  151.8699  139.6885  179.2950 O   0  0  0  0  0  0  0  0  0  0  0  0
  151.1216  139.6248  182.4127 H   0  0  0  0  0  0  0  0  0  0  0  0
  149.7474  139.5479  180.3097 C   0  0  0  0  0  0  0  0  0  0  0  0
  149.4239  138.5949  179.1337 C   0  0  0  0  0  0  0  0  0  0  0  0
  149.0790  139.0245  181.4863 C   0  0  0  0  0  0  0  0  0  0  0  0
  148.1305  139.6285  182.2525 C   0  0  0  0  0  0  0  0  0  0  0  0
  147.5665  139.0464  183.4038 C   0  0  0  0  0  0  0  0  0  0  0  0
  147.9825  137.7901  183.8095 C   0  0  0  0  0  0  0  0  0  0  0  0
  148.9558  137.1520  183.0349 C   0  0  0  0  0  0  0  0  0  0  0  0
  149.3436  135.9145  183.4701 F   0  0  0  0  0  0  0  0  0  0  0  0
  149.4786  137.7291  181.9344 C   0  0  0  0  0  0  0  0  0  0  0  0
  147.5045  137.1503  184.9828 N   0  0  0  0  0  0  0  0  0  0  0  0
  146.7086  136.4645  184.7957 H   0  0  0  0  0  0  0  0  0  0  0  0
  148.1462  137.4385  186.5300 S   0  0  0  0  0  0  0  0  0  0  0  0
  149.8391  136.9342  186.6093 C   0  0  0  0  0  0  0  0  0  0  0  0
  148.0461  138.9187  186.8164 O   0  0  0  0  0  0  0  0  0  0  0  0
  147.3453  136.6727  187.5835 O   0  0  0  0  0  0  0  0  0  0  0  0
 15 16  1  0  0  0
 16 14  1  0  0  0
 14 13  1  0  0  0
 13  7  1  0  0  0
  7  8  2  0  0  0
  8  9  1  0  0  0
  9 10  2  0  0  0
 10 11  1  0  0  0
 11 12  2  0  0  0
 10  1  1  0  0  0
  1  2  2  0  0  0
  2  3  1  0  0  0
  3  4  2  0  0  0
  4  5  1  0  0  0
  5  6  2  0  0  0
  6 21  1  0  0  0
 21 22  1  0  0  0
 22 23  1  0  0  0
 23 24  2  0  0  0
 23 26  1  0  0  0
 26 27  1  0  0  0
 26 28  1  0  0  0
 28 29  2  0  0  0
 29 30  1  0  0  0
 30 31  2  0  0  0
 31 35  1  0  0  0
 35 37  1  0  0  0
 37 38  1  0  0  0
 37 39  2  0  0  0
 37 40  2  0  0  0
 31 32  1  0  0  0
 32 33  1  0  0  0
 32 34  2  0  0  0
  3 17  1  0  0  0
 17 18  1  0  0  0
 17 19  1  0  0  0
 17 20  1  0  0  0
 12  7  1  0  0  0
  6  1  1  0  0  0
 34 28  1  0  0  0
 22 25  1  0  0  0
 35 36  1  0  0  0
M  END
> <minimizedAffinity>
-8.65967

> <CNNscore>
0.2656695247

> <CNNaffinity>
6.3711128235

> <CNN_VS>
1.6926105022

> <CNNaffinity_variance>
0.3406183124

$$$$
[H]c1c([H])c(-c2c([H])c(C(F)(F)F)c([H])c([H])c2C([H])([H])N([H])C(=O)C([H])(c2c([H])c([H])c(N([H])S(=O)(=O)C([H])([H])[H])c(F)c2[H])C([H])([H])[H])c([H])c([H])c1OC([H])([H])C([H])([H])C([H])([H])[H]


 40 42  0  0  0  0  0  0  0  0999 V2000
  153.2249  140.0897  182.2794 C   0  0  0  0  0  0  0  0  0  0  0  0
  152.3393  140.1982  181.1922 C   0  0  0  0  0  0  0  0  0  0  0  0
  151.3355  139.2922  180.9467 C   0  0  0  0  0  0  0  0  0  0  0  0
  151.2162  138.2377  181.8337 C   0  0  0  0  0  0  0  0  0  0  0  0
  152.0725  138.0851  182.9344 C   0  0  0  0  0  0  0  0  0  0  0  0
  153.0643  139.0172  183.1395 C   0  0  0  0  0  0  0  0  0  0  0  0
  156.3625  142.9484  182.5424 C   0  0  0  0  0  0  0  0  0  0  0  0
  155.0303  143.3460  182.5959 C   0  0  0  0  0  0  0  0  0  0  0  0
  154.0240  142.4141  182.5376 C   0  0  0  0  0  0  0  0  0  0  0  0
  154.2773  141.0823  182.4276 C   0  0  0  0  0  0  0  0  0  0  0  0
  155.5896  140.6928  182.3782 C   0  0  0  0  0  0  0  0  0  0  0  0
  156.6257  141.5608  182.4307 C   0  0  0  0  0  0  0  0  0  0  0  0
  157.4073  143.7502  182.5806 O   0  0  0  0  0  0  0  0  0  0  0  0
  158.1123  144.8004  182.2072 C   0  0  0  0  0  0  0  0  0  0  0  0
  159.0760  143.5844  180.2450 C   0  0  0  0  0  0  0  0  0  0  0  0
  159.2332  144.6936  181.2062 C   0  0  0  0  0  0  0  0  0  0  0  0
  150.4195  139.4658  179.7875 C   0  0  0  0  0  0  0  0  0  0  0  0
  150.9624  140.2740  178.8238 F   0  0  0  0  0  0  0  0  0  0  0  0
  150.1202  138.2536  179.2072 F   0  0  0  0  0  0  0  0  0  0  0  0
  149.1824  139.9632  180.2076 F   0  0  0  0  0  0  0  0  0  0  0  0
  153.9623  138.9265  184.3208 C   0  0  0  0  0  0  0  0  0  0  0  0
  153.7107  137.9283  185.2639 N   0  0  0  0  0  0  0  0  0  0  0  0
  153.2694  137.8500  186.5847 C   0  0  0  0  0  0  0  0  0  0  0  0
  152.9293  138.8925  187.1863 O   0  0  0  0  0  0  0  0  0  0  0  0
  153.9141  136.8997  184.8747 H   0  0  0  0  0  0  0  0  0  0  0  0
  153.2006  136.5525  187.2595 C   0  0  0  0  0  0  0  0  0  0  0  0
  152.7005  135.5420  186.1991 C   0  0  0  0  0  0  0  0  0  0  0  0
  154.4310  136.0216  187.8157 C   0  0  0  0  0  0  0  0  0  0  0  0
  154.9975  136.3004  189.0211 C   0  0  0  0  0  0  0  0  0  0  0  0
  156.2212  135.7565  189.4558 C   0  0  0  0  0  0  0  0  0  0  0  0
  156.9158  134.8884  188.6313 C   0  0  0  0  0  0  0  0  0  0  0  0
  156.3500  134.5882  187.3887 C   0  0  0  0  0  0  0  0  0  0  0  0
  157.0676  133.7301  186.6012 F   0  0  0  0  0  0  0  0  0  0  0  0
  155.1748  135.1196  186.9962 C   0  0  0  0  0  0  0  0  0  0  0  0
  158.1779  134.3333  188.9679 N   0  0  0  0  0  0  0  0  0  0  0  0
  159.0016  134.9305  188.6461 H   0  0  0  0  0  0  0  0  0  0  0  0
  158.3580  132.8691  189.8120 S   0  0  0  0  0  0  0  0  0  0  0  0
  157.5567  132.9517  191.3861 C   0  0  0  0  0  0  0  0  0  0  0  0
  157.7370  131.7666  188.9863 O   0  0  0  0  0  0  0  0  0  0  0  0
  159.8408  132.5599  190.0201 O   0  0  0  0  0  0  0  0  0  0  0  0
 15 16  1  0  0  0
 16 14  1  0  0  0
 14 13  1  0  0  0
 13  7  1  0  0  0
  7  8  2  0  0  0
  8  9  1  0  0  0
  9 10  2  0  0  0
 10 11  1  0  0  0
 11 12  2  0  0  0
 10  1  1  0  0  0
  1  2  2  0  0  0
  2  3  1  0  0  0
  3  4  2  0  0  0
  4  5  1  0  0  0
  5  6  2  0  0  0
  6 21  1  0  0  0
 21 22  1  0  0  0
 22 23  1  0  0  0
 23 24  2  0  0  0
 23 26  1  0  0  0
 26 27  1  0  0  0
 26 28  1  0  0  0
 28 29  2  0  0  0
 29 30  1  0  0  0
 30 31  2  0  0  0
 31 35  1  0  0  0
 35 37  1  0  0  0
 37 38  1  0  0  0
 37 39  2  0  0  0
 37 40  2  0  0  0
 31 32  1  0  0  0
 32 33  1  0  0  0
 32 34  2  0  0  0
  3 17  1  0  0  0
 17 18  1  0  0  0
 17 19  1  0  0  0
 17 20  1  0  0  0
 12  7  1  0  0  0
  6  1  1  0  0  0
 34 28  1  0  0  0
 22 25  1  0  0  0
 35 36  1  0  0  0
M  END
> <minimizedAffinity>
-7.91119

> <CNNscore>
0.2313550562

> <CNNaffinity>
6.0414977074

> <CNN_VS>
1.3977310658

> <CNNaffinity_variance>
0.1014665142

$$$$
[H]c1c([H])c(-c2c([H])c(C(F)(F)F)c([H])c([H])c2C([H])([H])N([H])C(=O)C([H])(c2c([H])c([H])c(N([H])S(=O)(=O)C([H])([H])[H])c(F)c2[H])C([H])([H])[H])c([H])c([H])c1OC([H])([H])C([H])([H])C([H])([H])[H]


 40 42  0  0  0  0  0  0  0  0999 V2000
  153.9312  139.6032  184.2058 C   0  0  0  0  0  0  0  0  0  0  0  0
  154.4192  140.9088  184.0173 C   0  0  0  0  0  0  0  0  0  0  0  0
  154.2047  141.6332  182.8692 C   0  0  0  0  0  0  0  0  0  0  0  0
  153.4660  141.0201  181.8736 C   0  0  0  0  0  0  0  0  0  0  0  0
  152.9554  139.7209  182.0128 C   0  0  0  0  0  0  0  0  0  0  0  0
  153.1965  139.0333  183.1805 C   0  0  0  0  0  0  0  0  0  0  0  0
  154.7256  137.4473  187.7845 C   0  0  0  0  0  0  0  0  0  0  0  0
  155.7142  137.6159  186.8202 C   0  0  0  0  0  0  0  0  0  0  0  0
  155.4574  138.3363  185.6802 C   0  0  0  0  0  0  0  0  0  0  0  0
  154.2468  138.9095  185.4444 C   0  0  0  0  0  0  0  0  0  0  0  0
  153.2759  138.7449  186.3966 C   0  0  0  0  0  0  0  0  0  0  0  0
  153.4657  138.0470  187.5396 C   0  0  0  0  0  0  0  0  0  0  0  0
  154.8538  136.7718  188.9084 O   0  0  0  0  0  0  0  0  0  0  0  0
  154.7767  136.6165  190.2158 C   0  0  0  0  0  0  0  0  0  0  0  0
  155.1060  138.9121  191.1535 C   0  0  0  0  0  0  0  0  0  0  0  0
  155.5368  137.5003  191.1702 C   0  0  0  0  0  0  0  0  0  0  0  0
  154.7345  143.0164  182.7312 C   0  0  0  0  0  0  0  0  0  0  0  0
  155.7881  143.0753  181.8577 F   0  0  0  0  0  0  0  0  0  0  0  0
  153.7592  143.8774  182.2804 F   0  0  0  0  0  0  0  0  0  0  0  0
  155.1001  143.5304  183.9789 F   0  0  0  0  0  0  0  0  0  0  0  0
  152.6321  137.6748  183.3951 C   0  0  0  0  0  0  0  0  0  0  0  0
  151.2489  137.5136  183.2958 N   0  0  0  0  0  0  0  0  0  0  0  0
  150.2256  136.9318  184.0442 C   0  0  0  0  0  0  0  0  0  0  0  0
  150.4858  136.4203  185.1555 O   0  0  0  0  0  0  0  0  0  0  0  0
  150.8228  137.9667  182.3664 H   0  0  0  0  0  0  0  0  0  0  0  0
  148.8541  136.9260  183.5318 C   0  0  0  0  0  0  0  0  0  0  0  0
  148.5668  138.3702  183.0549 C   0  0  0  0  0  0  0  0  0  0  0  0
  148.5578  136.0380  182.4233 C   0  0  0  0  0  0  0  0  0  0  0  0
  148.4086  134.6857  182.4465 C   0  0  0  0  0  0  0  0  0  0  0  0
  148.1562  133.9060  181.3017 C   0  0  0  0  0  0  0  0  0  0  0  0
  148.0529  134.5192  180.0651 C   0  0  0  0  0  0  0  0  0  0  0  0
  148.2021  135.9085  180.0200 C   0  0  0  0  0  0  0  0  0  0  0  0
  148.0974  136.4769  178.7801 F   0  0  0  0  0  0  0  0  0  0  0  0
  148.4404  136.6337  181.1311 C   0  0  0  0  0  0  0  0  0  0  0  0
  147.8496  133.8066  178.8546 N   0  0  0  0  0  0  0  0  0  0  0  0
  146.9759  134.1144  178.3248 H   0  0  0  0  0  0  0  0  0  0  0  0
  148.9014  132.5930  178.2983 S   0  0  0  0  0  0  0  0  0  0  0  0
  148.7468  132.3844  176.5492 C   0  0  0  0  0  0  0  0  0  0  0  0
  150.3166  133.0014  178.6352 O   0  0  0  0  0  0  0  0  0  0  0  0
  148.5883  131.2663  178.9909 O   0  0  0  0  0  0  0  0  0  0  0  0
 15 16  1  0  0  0
 16 14  1  0  0  0
 14 13  1  0  0  0
 13  7  1  0  0  0
  7  8  2  0  0  0
  8  9  1  0  0  0
  9 10  2  0  0  0
 10 11  1  0  0  0
 11 12  2  0  0  0
 10  1  1  0  0  0
  1  2  2  0  0  0
  2  3  1  0  0  0
  3  4  2  0  0  0
  4  5  1  0  0  0
  5  6  2  0  0  0
  6 21  1  0  0  0
 21 22  1  0  0  0
 22 23  1  0  0  0
 23 24  2  0  0  0
 23 26  1  0  0  0
 26 27  1  0  0  0
 26 28  1  0  0  0
 28 29  2  0  0  0
 29 30  1  0  0  0
 30 31  2  0  0  0
 31 35  1  0  0  0
 35 37  1  0  0  0
 37 38  1  0  0  0
 37 39  2  0  0  0
 37 40  2  0  0  0
 31 32  1  0  0  0
 32 33  1  0  0  0
 32 34  2  0  0  0
  3 17  1  0  0  0
 17 18  1  0  0  0
 17 19  1  0  0  0
 17 20  1  0  0  0
 12  7  1  0  0  0
  6  1  1  0  0  0
 34 28  1  0  0  0
 22 25  1  0  0  0
 35 36  1  0  0  0
M  END
> <minimizedAffinity>
-6.82666

> <CNNscore>
0.2235357165

> <CNNaffinity>
6.0565218925

> <CNN_VS>
1.3538489342

> <CNNaffinity_variance>
0.1115985140

$$$$
[H]c1nc([H])c2c([H])c([H])c([H])c(N([H])C(=O)N([H])[C@@]3([H])C([H])([H])c4c(OC([H])([H])c5c([H])c([H])c([H])c([H])c5[H])c([H])c([H])c([H])c4C([H])([H])C3([H])[H])c2c1[H]


 34 38  0  0  0  0  0  0  0  0999 V2000
  154.9316  140.3074  184.0102 C   0  0  0  0  0  0  0  0  0  0  0  0
  153.9182  140.7160  182.9809 C   0  0  0  0  0  0  0  0  0  0  0  0
  154.1141  142.2273  182.7851 C   0  0  0  0  0  0  0  0  0  0  0  0
  155.5603  142.5202  182.5624 C   0  0  0  0  0  0  0  0  0  0  0  0
  155.8741  143.7924  182.0981 C   0  0  0  0  0  0  0  0  0  0  0  0
  157.1832  144.1544  181.8632 C   0  0  0  0  0  0  0  0  0  0  0  0
  158.1776  143.2432  182.0929 C   0  0  0  0  0  0  0  0  0  0  0  0
  157.8717  141.9665  182.5574 C   0  0  0  0  0  0  0  0  0  0  0  0
  156.5492  141.5994  182.7956 C   0  0  0  0  0  0  0  0  0  0  0  0
  156.2772  140.2306  183.2894 C   0  0  0  0  0  0  0  0  0  0  0  0
  156.5185  139.1138  185.9411 O   0  0  0  0  0  0  0  0  0  0  0  0
  155.4550  138.5255  185.7358 C   0  0  0  0  0  0  0  0  0  0  0  0
  154.6153  139.1346  184.7321 N   0  0  0  0  0  0  0  0  0  0  0  0
  155.0696  137.3597  186.4083 N   0  0  0  0  0  0  0  0  0  0  0  0
  153.7099  138.6528  184.5434 H   0  0  0  0  0  0  0  0  0  0  0  0
  154.1089  136.9667  186.1161 H   0  0  0  0  0  0  0  0  0  0  0  0
  155.8169  136.7017  187.4033 C   0  0  0  0  0  0  0  0  0  0  0  0
  156.6442  135.6126  187.1743 C   0  0  0  0  0  0  0  0  0  0  0  0
  157.3751  135.0064  188.1787 C   0  0  0  0  0  0  0  0  0  0  0  0
  157.2771  135.4993  189.4379 C   0  0  0  0  0  0  0  0  0  0  0  0
  156.4569  136.5894  189.7004 C   0  0  0  0  0  0  0  0  0  0  0  0
  156.3791  137.0661  191.0035 C   0  0  0  0  0  0  0  0  0  0  0  0
  155.6003  138.1033  191.2748 N   0  0  0  0  0  0  0  0  0  0  0  0
  154.8721  138.7278  190.3476 C   0  0  0  0  0  0  0  0  0  0  0  0
  154.9431  138.2542  189.0255 C   0  0  0  0  0  0  0  0  0  0  0  0
  155.7372  137.1871  188.7148 C   0  0  0  0  0  0  0  0  0  0  0  0
  158.8223  141.0102  182.8082 O   0  0  0  0  0  0  0  0  0  0  0  0
  160.1589  141.2282  183.1139 C   0  0  0  0  0  0  0  0  0  0  0  0
  160.3060  141.7934  184.4939 C   0  0  0  0  0  0  0  0  0  0  0  0
  161.4552  142.4745  184.7856 C   0  0  0  0  0  0  0  0  0  0  0  0
  161.6196  142.9998  186.0451 C   0  0  0  0  0  0  0  0  0  0  0  0
  160.6445  142.8510  187.0184 C   0  0  0  0  0  0  0  0  0  0  0  0
  159.4917  142.1542  186.6868 C   0  0  0  0  0  0  0  0  0  0  0  0
  159.3234  141.6302  185.4371 C   0  0  0  0  0  0  0  0  0  0  0  0
 11 12  2  0  0  0
 12 13  1  0  0  0
 13  1  1  0  0  0
  1  2  1  0  0  0
  2  3  1  0  0  0
  3  4  1  0  0  0
  4  5  2  0  0  0
  5  6  1  0  0  0
  6  7  2  0  0  0
  7  8  1  0  0  0
  8 27  1  0  0  0
 27 28  1  0  0  0
 28 29  1  0  0  0
 29 30  2  0  0  0
 30 31  1  0  0  0
 31 32  2  0  0  0
 32 33  1  0  0  0
 33 34  2  0  0  0
  8  9  2  0  0  0
  9 10  1  0  0  0
 12 14  1  0  0  0
 14 17  1  0  0  0
 17 18  2  0  0  0
 18 19  1  0  0  0
 19 20  2  0  0  0
 20 21  1  0  0  0
 21 22  2  0  0  0
 22 23  1  0  0  0
 23 24  2  0  0  0
 24 25  1  0  0  0
 25 26  2  0  0  0
 10  1  1  0  0  0
 26 17  1  0  0  0
  9  4  1  0  0  0
 26 21  1  0  0  0
 34 29  1  0  0  0
 13 15  1  0  0  0
 14 16  1  0  0  0
M  END
> <minimizedAffinity>
-11.07544

> <CNNscore>
0.6428574324

> <CNNaffinity>
6.7800607681

> <CNN_VS>
4.3586125374

> <CNNaffinity_variance>
0.0772323087

$$$$
[H]c1nc([H])c2c([H])c([H])c([H])c(N([H])C(=O)N([H])[C@@]3([H])C([H])([H])c4c(OC([H])([H])c5c([H])c([H])c([H])c([H])c5[H])c([H])c([H])c([H])c4C([H])([H])C3([H])[H])c2c1[H]


 34 38  0  0  0  0  0  0  0  0999 V2000
  154.9526  140.8127  183.5792 C   0  0  0  0  0  0  0  0  0  0  0  0
  154.0398  141.5356  182.6317 C   0  0  0  0  0  0  0  0  0  0  0  0
  154.4996  143.0015  182.6523 C   0  0  0  0  0  0  0  0  0  0  0  0
  155.9776  143.0657  182.4561 C   0  0  0  0  0  0  0  0  0  0  0  0
  156.5152  144.3165  182.1753 C   0  0  0  0  0  0  0  0  0  0  0  0
  157.8704  144.4738  181.9786 C   0  0  0  0  0  0  0  0  0  0  0  0
  158.6870  143.3792  182.0629 C   0  0  0  0  0  0  0  0  0  0  0  0
  158.1563  142.1225  182.3432 C   0  0  0  0  0  0  0  0  0  0  0  0
  156.7870  141.9622  182.5426 C   0  0  0  0  0  0  0  0  0  0  0  0
  156.2733  140.6057  182.8382 C   0  0  0  0  0  0  0  0  0  0  0  0
  156.1638  139.2477  185.5169 O   0  0  0  0  0  0  0  0  0  0  0  0
  155.0720  138.8181  185.1393 C   0  0  0  0  0  0  0  0  0  0  0  0
  154.4265  139.6221  184.1292 N   0  0  0  0  0  0  0  0  0  0  0  0
  154.4843  137.6479  185.6342 N   0  0  0  0  0  0  0  0  0  0  0  0
  153.5007  139.2766  183.7961 H   0  0  0  0  0  0  0  0  0  0  0  0
  153.5257  137.4070  185.2031 H   0  0  0  0  0  0  0  0  0  0  0  0
  155.0341  136.8077  186.6208 C   0  0  0  0  0  0  0  0  0  0  0  0
  155.6286  137.2537  187.7915 C   0  0  0  0  0  0  0  0  0  0  0  0
  156.1410  136.3924  188.7433 C   0  0  0  0  0  0  0  0  0  0  0  0
  156.0571  135.0577  188.5204 C   0  0  0  0  0  0  0  0  0  0  0  0
  155.4674  134.5786  187.3574 C   0  0  0  0  0  0  0  0  0  0  0  0
  155.4012  133.2044  187.1613 C   0  0  0  0  0  0  0  0  0  0  0  0
  154.8449  132.7277  186.0571 N   0  0  0  0  0  0  0  0  0  0  0  0
  154.3346  133.5097  185.1041 C   0  0  0  0  0  0  0  0  0  0  0  0
  154.3959  134.9018  185.2919 C   0  0  0  0  0  0  0  0  0  0  0  0
  154.9630  135.4233  186.4199 C   0  0  0  0  0  0  0  0  0  0  0  0
  158.9215  140.9886  182.4425 O   0  0  0  0  0  0  0  0  0  0  0  0
  159.2843  140.3314  183.6104 C   0  0  0  0  0  0  0  0  0  0  0  0
  159.9695  141.2672  184.5593 C   0  0  0  0  0  0  0  0  0  0  0  0
  159.3006  141.6260  185.6965 C   0  0  0  0  0  0  0  0  0  0  0  0
  159.9029  142.4870  186.5828 C   0  0  0  0  0  0  0  0  0  0  0  0
  161.1701  142.9940  186.3434 C   0  0  0  0  0  0  0  0  0  0  0  0
  161.8187  142.6081  185.1794 C   0  0  0  0  0  0  0  0  0  0  0  0
  161.2250  141.7532  184.2955 C   0  0  0  0  0  0  0  0  0  0  0  0
 11 12  2  0  0  0
 12 13  1  0  0  0
 13  1  1  0  0  0
  1  2  1  0  0  0
  2  3  1  0  0  0
  3  4  1  0  0  0
  4  5  2  0  0  0
  5  6  1  0  0  0
  6  7  2  0  0  0
  7  8  1  0  0  0
  8 27  1  0  0  0
 27 28  1  0  0  0
 28 29  1  0  0  0
 29 30  2  0  0  0
 30 31  1  0  0  0
 31 32  2  0  0  0
 32 33  1  0  0  0
 33 34  2  0  0  0
  8  9  2  0  0  0
  9 10  1  0  0  0
 12 14  1  0  0  0
 14 17  1  0  0  0
 17 18  2  0  0  0
 18 19  1  0  0  0
 19 20  2  0  0  0
 20 21  1  0  0  0
 21 22  2  0  0  0
 22 23  1  0  0  0
 23 24  2  0  0  0
 24 25  1  0  0  0
 25 26  2  0  0  0
 10  1  1  0  0  0
 26 17  1  0  0  0
  9  4  1  0  0  0
 26 21  1  0  0  0
 34 29  1  0  0  0
 13 15  1  0  0  0
 14 16  1  0  0  0
M  END
> <minimizedAffinity>
-9.98848

> <CNNscore>
0.4763185084

> <CNNaffinity>
6.5926618576

> <CNN_VS>
3.1402068138

> <CNNaffinity_variance>
0.0548928678

$$$$
[H]c1nc([H])c2c([H])c([H])c([H])c(N([H])C(=O)N([H])[C@@]3([H])C([H])([H])c4c(OC([H])([H])c5c([H])c([H])c([H])c([H])c5[H])c([H])c([H])c([H])c4C([H])([H])C3([H])[H])c2c1[H]


 34 38  0  0  0  0  0  0  0  0999 V2000
  154.9949  139.6746  184.1148 C   0  0  0  0  0  0  0  0  0  0  0  0
  154.0881  139.7869  182.9238 C   0  0  0  0  0  0  0  0  0  0  0  0
  153.9001  141.2935  182.6881 C   0  0  0  0  0  0  0  0  0  0  0  0
  155.2310  141.9685  182.6760 C   0  0  0  0  0  0  0  0  0  0  0  0
  155.2623  143.2760  182.2049 C   0  0  0  0  0  0  0  0  0  0  0  0
  156.4464  143.9800  182.1565 C   0  0  0  0  0  0  0  0  0  0  0  0
  157.5985  143.3753  182.5794 C   0  0  0  0  0  0  0  0  0  0  0  0
  157.5758  142.0656  183.0523 C   0  0  0  0  0  0  0  0  0  0  0  0
  156.3799  141.3531  183.1021 C   0  0  0  0  0  0  0  0  0  0  0  0
  156.4094  139.9642  183.6135 C   0  0  0  0  0  0  0  0  0  0  0  0
  153.4775  139.2663  186.3956 O   0  0  0  0  0  0  0  0  0  0  0  0
  154.0968  138.2679  186.0231 C   0  0  0  0  0  0  0  0  0  0  0  0
  154.8931  138.4632  184.8351 N   0  0  0  0  0  0  0  0  0  0  0  0
  154.0487  137.0333  186.6814 N   0  0  0  0  0  0  0  0  0  0  0  0
  155.4249  137.6302  184.5023 H   0  0  0  0  0  0  0  0  0  0  0  0
  154.6463  136.2574  186.2299 H   0  0  0  0  0  0  0  0  0  0  0  0
  153.2973  136.7488  187.8372 C   0  0  0  0  0  0  0  0  0  0  0  0
  152.0817  136.0815  187.8405 C   0  0  0  0  0  0  0  0  0  0  0  0
  151.3843  135.8068  189.0018 C   0  0  0  0  0  0  0  0  0  0  0  0
  151.9133  136.2072  190.1842 C   0  0  0  0  0  0  0  0  0  0  0  0
  153.1294  136.8780  190.2150 C   0  0  0  0  0  0  0  0  0  0  0  0
  153.6398  137.2757  191.4449 C   0  0  0  0  0  0  0  0  0  0  0  0
  154.7971  137.9192  191.4951 N   0  0  0  0  0  0  0  0  0  0  0  0
  155.5137  138.2122  190.4086 C   0  0  0  0  0  0  0  0  0  0  0  0
  155.0071  137.8146  189.1587 C   0  0  0  0  0  0  0  0  0  0  0  0
  153.8169  137.1494  189.0747 C   0  0  0  0  0  0  0  0  0  0  0  0
  158.6949  141.4057  183.4916 O   0  0  0  0  0  0  0  0  0  0  0  0
  160.0147  141.7935  183.3040 C   0  0  0  0  0  0  0  0  0  0  0  0
  160.6547  142.1593  184.6087 C   0  0  0  0  0  0  0  0  0  0  0  0
  162.0204  142.1990  184.6609 C   0  0  0  0  0  0  0  0  0  0  0  0
  162.6348  142.5268  185.8461 C   0  0  0  0  0  0  0  0  0  0  0  0
  161.8963  142.8161  186.9823 C   0  0  0  0  0  0  0  0  0  0  0  0
  160.5128  142.7660  186.8922 C   0  0  0  0  0  0  0  0  0  0  0  0
  159.8973  142.4408  185.7175 C   0  0  0  0  0  0  0  0  0  0  0  0
 11 12  2  0  0  0
 12 13  1  0  0  0
 13  1  1  0  0  0
  1  2  1  0  0  0
  2  3  1  0  0  0
  3  4  1  0  0  0
  4  5  2  0  0  0
  5  6  1  0  0  0
  6  7  2  0  0  0
  7  8  1  0  0  0
  8 27  1  0  0  0
 27 28  1  0  0  0
 28 29  1  0  0  0
 29 30  2  0  0  0
 30 31  1  0  0  0
 31 32  2  0  0  0
 32 33  1  0  0  0
 33 34  2  0  0  0
  8  9  2  0  0  0
  9 10  1  0  0  0
 12 14  1  0  0  0
 14 17  1  0  0  0
 17 18  2  0  0  0
 18 19  1  0  0  0
 19 20  2  0  0  0
 20 21  1  0  0  0
 21 22  2  0  0  0
 22 23  1  0  0  0
 23 24  2  0  0  0
 24 25  1  0  0  0
 25 26  2  0  0  0
 10  1  1  0  0  0
 26 17  1  0  0  0
  9  4  1  0  0  0
 26 21  1  0  0  0
 34 29  1  0  0  0
 13 15  1  0  0  0
 14 16  1  0  0  0
M  END
> <minimizedAffinity>
-10.56053

> <CNNscore>
0.4419317245

> <CNNaffinity>
6.4681539536

> <CNN_VS>
2.8584823608

> <CNNaffinity_variance>
0.1167365313

$$$$
[H]c1nc([H])c2c([H])c([H])c([H])c(N([H])C(=O)N([H])[C@@]3([H])C([H])([H])c4c(OC([H])([H])c5c([H])c([H])c([H])c([H])c5[H])c([H])c([H])c([H])c4C([H])([H])C3([H])[H])c2c1[H]


 34 38  0  0  0  0  0  0  0  0999 V2000
  154.1482  139.2333  184.2920 C   0  0  0  0  0  0  0  0  0  0  0  0
  153.5616  139.1078  182.9160 C   0  0  0  0  0  0  0  0  0  0  0  0
  153.1984  140.5385  182.4894 C   0  0  0  0  0  0  0  0  0  0  0  0
  154.3636  141.4415  182.7219 C   0  0  0  0  0  0  0  0  0  0  0  0
  154.3006  142.7023  182.1399 C   0  0  0  0  0  0  0  0  0  0  0  0
  155.3299  143.6052  182.2997 C   0  0  0  0  0  0  0  0  0  0  0  0
  156.4217  143.2457  183.0416 C   0  0  0  0  0  0  0  0  0  0  0  0
  156.4929  141.9843  183.6276 C   0  0  0  0  0  0  0  0  0  0  0  0
  155.4533  141.0712  183.4672 C   0  0  0  0  0  0  0  0  0  0  0  0
  155.5775  139.7438  184.1108 C   0  0  0  0  0  0  0  0  0  0  0  0
  153.4726  139.1486  186.9767 O   0  0  0  0  0  0  0  0  0  0  0  0
  153.7125  138.0430  186.4875 C   0  0  0  0  0  0  0  0  0  0  0  0
  154.0663  138.0689  185.0883 N   0  0  0  0  0  0  0  0  0  0  0  0
  153.6535  136.8449  187.2091 N   0  0  0  0  0  0  0  0  0  0  0  0
  154.2725  137.1434  184.6544 H   0  0  0  0  0  0  0  0  0  0  0  0
  153.8899  135.9616  186.6375 H   0  0  0  0  0  0  0  0  0  0  0  0
  153.3118  136.7224  188.5692 C   0  0  0  0  0  0  0  0  0  0  0  0
  152.0700  136.3174  189.0347 C   0  0  0  0  0  0  0  0  0  0  0  0
  151.7817  136.1936  190.3808 C   0  0  0  0  0  0  0  0  0  0  0  0
  152.7551  136.4801  191.2800 C   0  0  0  0  0  0  0  0  0  0  0  0
  154.0100  136.8885  190.8460 C   0  0  0  0  0  0  0  0  0  0  0  0
  154.9825  137.1763  191.7961 C   0  0  0  0  0  0  0  0  0  0  0  0
  156.1849  137.5700  191.4023 N   0  0  0  0  0  0  0  0  0  0  0  0
  156.5203  137.7081  190.1184 C   0  0  0  0  0  0  0  0  0  0  0  0
  155.5444  137.4195  189.1482 C   0  0  0  0  0  0  0  0  0  0  0  0
  154.2959  137.0112  189.5231 C   0  0  0  0  0  0  0  0  0  0  0  0
  157.5581  141.5657  184.3833 O   0  0  0  0  0  0  0  0  0  0  0  0
  158.8434  141.2996  183.9309 C   0  0  0  0  0  0  0  0  0  0  0  0
  159.8673  141.8682  184.8658 C   0  0  0  0  0  0  0  0  0  0  0  0
  161.1357  142.0508  184.3889 C   0  0  0  0  0  0  0  0  0  0  0  0
  162.0967  142.5662  185.2257 C   0  0  0  0  0  0  0  0  0  0  0  0
  161.8020  142.9020  186.5375 C   0  0  0  0  0  0  0  0  0  0  0  0
  160.5047  142.7032  186.9868 C   0  0  0  0  0  0  0  0  0  0  0  0
  159.5462  142.1914  186.1598 C   0  0  0  0  0  0  0  0  0  0  0  0
 11 12  2  0  0  0
 12 13  1  0  0  0
 13  1  1  0  0  0
  1  2  1  0  0  0
  2  3  1  0  0  0
  3  4  1  0  0  0
  4  5  2  0  0  0
  5  6  1  0  0  0
  6  7  2  0  0  0
  7  8  1  0  0  0
  8 27  1  0  0  0
 27 28  1  0  0  0
 28 29  1  0  0  0
 29 30  2  0  0  0
 30 31  1  0  0  0
 31 32  2  0  0  0
 32 33  1  0  0  0
 33 34  2  0  0  0
  8  9  2  0  0  0
  9 10  1  0  0  0
 12 14  1  0  0  0
 14 17  1  0  0  0
 17 18  2  0  0  0
 18 19  1  0  0  0
 19 20  2  0  0  0
 20 21  1  0  0  0
 21 22  2  0  0  0
 22 23  1  0  0  0
 23 24  2  0  0  0
 24 25  1  0  0  0
 25 26  2  0  0  0
 10  1  1  0  0  0
 26 17  1  0  0  0
  9  4  1  0  0  0
 26 21  1  0  0  0
 34 29  1  0  0  0
 13 15  1  0  0  0
 14 16  1  0  0  0
M  END
> <minimizedAffinity>
-10.36360

> <CNNscore>
0.4105885625

> <CNNaffinity>
6.3079519272

> <CNN_VS>
2.5899729729

> <CNNaffinity_variance>
0.1028395668

$$$$
[H]c1nc([H])c2c([H])c([H])c([H])c(N([H])C(=O)N([H])[C@@]3([H])C([H])([H])c4c(OC([H])([H])c5c([H])c([H])c([H])c([H])c5[H])c([H])c([H])c([H])c4C([H])([H])C3([H])[H])c2c1[H]


 34 38  0  0  0  0  0  0  0  0999 V2000
  154.5476  138.4849  184.9002 C   0  0  0  0  0  0  0  0  0  0  0  0
  153.8471  138.1786  183.6083 C   0  0  0  0  0  0  0  0  0  0  0  0
  153.2263  139.5071  183.1496 C   0  0  0  0  0  0  0  0  0  0  0  0
  154.2569  140.5852  183.1996 C   0  0  0  0  0  0  0  0  0  0  0  0
  153.9410  141.7793  182.5617 C   0  0  0  0  0  0  0  0  0  0  0  0
  154.8307  142.8322  182.5550 C   0  0  0  0  0  0  0  0  0  0  0  0
  156.0360  142.6895  183.1864 C   0  0  0  0  0  0  0  0  0  0  0  0
  156.3604  141.4964  183.8273 C   0  0  0  0  0  0  0  0  0  0  0  0
  155.4622  140.4318  183.8352 C   0  0  0  0  0  0  0  0  0  0  0  0
  155.8549  139.1854  184.5307 C   0  0  0  0  0  0  0  0  0  0  0  0
  154.8635  138.6064  187.6491 O   0  0  0  0  0  0  0  0  0  0  0  0
  154.8920  137.4614  187.1938 C   0  0  0  0  0  0  0  0  0  0  0  0
  154.7286  137.3798  185.7619 N   0  0  0  0  0  0  0  0  0  0  0  0
  155.0674  136.3167  187.9804 N   0  0  0  0  0  0  0  0  0  0  0  0
  154.7489  136.4194  185.3561 H   0  0  0  0  0  0  0  0  0  0  0  0
  155.0681  135.3881  187.4322 H   0  0  0  0  0  0  0  0  0  0  0  0
  155.2264  136.2990  189.3789 C   0  0  0  0  0  0  0  0  0  0  0  0
  156.4493  136.3308  190.0319 C   0  0  0  0  0  0  0  0  0  0  0  0
  156.5599  136.3296  191.4096 C   0  0  0  0  0  0  0  0  0  0  0  0
  155.4245  136.2961  192.1498 C   0  0  0  0  0  0  0  0  0  0  0  0
  154.1837  136.2637  191.5261 C   0  0  0  0  0  0  0  0  0  0  0  0
  153.0414  136.2272  192.3167 C   0  0  0  0  0  0  0  0  0  0  0  0
  151.8484  136.1932  191.7407 N   0  0  0  0  0  0  0  0  0  0  0  0
  151.6800  136.1919  190.4173 C   0  0  0  0  0  0  0  0  0  0  0  0
  152.8288  136.2287  189.6073 C   0  0  0  0  0  0  0  0  0  0  0  0
  154.0722  136.2646  190.1717 C   0  0  0  0  0  0  0  0  0  0  0  0
  157.5501  141.2925  184.4785 O   0  0  0  0  0  0  0  0  0  0  0  0
  158.8177  141.2957  183.9123 C   0  0  0  0  0  0  0  0  0  0  0  0
  159.8258  141.8672  184.8625 C   0  0  0  0  0  0  0  0  0  0  0  0
  161.1015  142.0504  184.4058 C   0  0  0  0  0  0  0  0  0  0  0  0
  162.0483  142.5685  185.2569 C   0  0  0  0  0  0  0  0  0  0  0  0
  161.7323  142.9063  186.5631 C   0  0  0  0  0  0  0  0  0  0  0  0
  160.4281  142.7069  186.9919 C   0  0  0  0  0  0  0  0  0  0  0  0
  159.4836  142.1924  186.1506 C   0  0  0  0  0  0  0  0  0  0  0  0
 11 12  2  0  0  0
 12 13  1  0  0  0
 13  1  1  0  0  0
  1  2  1  0  0  0
  2  3  1  0  0  0
  3  4  1  0  0  0
  4  5  2  0  0  0
  5  6  1  0  0  0
  6  7  2  0  0  0
  7  8  1  0  0  0
  8 27  1  0  0  0
 27 28  1  0  0  0
 28 29  1  0  0  0
 29 30  2  0  0  0
 30 31  1  0  0  0
 31 32  2  0  0  0
 32 33  1  0  0  0
 33 34  2  0  0  0
  8  9  2  0  0  0
  9 10  1  0  0  0
 12 14  1  0  0  0
 14 17  1  0  0  0
 17 18  2  0  0  0
 18 19  1  0  0  0
 19 20  2  0  0  0
 20 21  1  0  0  0
 21 22  2  0  0  0
 22 23  1  0  0  0
 23 24  2  0  0  0
 24 25  1  0  0  0
 25 26  2  0  0  0
 10  1  1  0  0  0
 26 17  1  0  0  0
  9  4  1  0  0  0
 26 21  1  0  0  0
 34 29  1  0  0  0
 13 15  1  0  0  0
 14 16  1  0  0  0
M  END
> <minimizedAffinity>
-10.17485

> <CNNscore>
0.4089716673

> <CNNaffinity>
6.2433075905

> <CNN_VS>
2.5533359051

> <CNNaffinity_variance>
0.1160022616

$$$$
[H]c1nc([H])c2c([H])c([H])c([H])c(N([H])C(=O)N([H])[C@@]3([H])C([H])([H])c4c(OC([H])([H])c5c([H])c([H])c([H])c([H])c5[H])c([H])c([H])c([H])c4C([H])([H])C3([H])[H])c2c1[H]


 34 38  0  0  0  0  0  0  0  0999 V2000
  154.0588  139.0643  184.3497 C   0  0  0  0  0  0  0  0  0  0  0  0
  153.4846  138.8410  182.9809 C   0  0  0  0  0  0  0  0  0  0  0  0
  152.9172  140.2003  182.5438 C   0  0  0  0  0  0  0  0  0  0  0  0
  153.9433  141.2629  182.7558 C   0  0  0  0  0  0  0  0  0  0  0  0
  153.6960  142.4953  182.1620 C   0  0  0  0  0  0  0  0  0  0  0  0
  154.5871  143.5375  182.3027 C   0  0  0  0  0  0  0  0  0  0  0  0
  155.7253  143.3459  183.0374 C   0  0  0  0  0  0  0  0  0  0  0  0
  155.9808  142.1142  183.6350 C   0  0  0  0  0  0  0  0  0  0  0  0
  155.0810  141.0603  183.4940 C   0  0  0  0  0  0  0  0  0  0  0  0
  155.3989  139.7716  184.1494 C   0  0  0  0  0  0  0  0  0  0  0  0
  153.3665  138.8988  187.0264 O   0  0  0  0  0  0  0  0  0  0  0  0
  153.7852  137.8406  186.5531 C   0  0  0  0  0  0  0  0  0  0  0  0
  154.1507  137.9091  185.1583 N   0  0  0  0  0  0  0  0  0  0  0  0
  153.9062  136.6550  187.2876 N   0  0  0  0  0  0  0  0  0  0  0  0
  154.5070  137.0239  184.7377 H   0  0  0  0  0  0  0  0  0  0  0  0
  154.2876  135.8150  186.7292 H   0  0  0  0  0  0  0  0  0  0  0  0
  153.5687  136.4927  188.6445 C   0  0  0  0  0  0  0  0  0  0  0  0
  152.3419  136.0343  189.1004 C   0  0  0  0  0  0  0  0  0  0  0  0
  152.0578  135.8728  190.4434 C   0  0  0  0  0  0  0  0  0  0  0  0
  153.0201  136.1755  191.3493 C   0  0  0  0  0  0  0  0  0  0  0  0
  154.2597  136.6371  190.9250 C   0  0  0  0  0  0  0  0  0  0  0  0
  155.2209  136.9400  191.8818 C   0  0  0  0  0  0  0  0  0  0  0  0
  156.4087  137.3842  191.4974 N   0  0  0  0  0  0  0  0  0  0  0  0
  156.7394  137.5604  190.2170 C   0  0  0  0  0  0  0  0  0  0  0  0
  155.7747  137.2570  189.2400 C   0  0  0  0  0  0  0  0  0  0  0  0
  154.5415  136.7970  189.6052 C   0  0  0  0  0  0  0  0  0  0  0  0
  157.1012  141.8604  184.3842 O   0  0  0  0  0  0  0  0  0  0  0  0
  158.3785  141.6009  183.9061 C   0  0  0  0  0  0  0  0  0  0  0  0
  158.5008  141.9978  182.4663 C   0  0  0  0  0  0  0  0  0  0  0  0
  158.2081  141.0575  181.5178 C   0  0  0  0  0  0  0  0  0  0  0  0
  158.3163  141.3921  180.1890 C   0  0  0  0  0  0  0  0  0  0  0  0
  158.7150  142.6602  179.7976 C   0  0  0  0  0  0  0  0  0  0  0  0
  159.0038  143.5885  180.7872 C   0  0  0  0  0  0  0  0  0  0  0  0
  158.8981  143.2613  182.1088 C   0  0  0  0  0  0  0  0  0  0  0  0
 11 12  2  0  0  0
 12 13  1  0  0  0
 13  1  1  0  0  0
  1  2  1  0  0  0
  2  3  1  0  0  0
  3  4  1  0  0  0
  4  5  2  0  0  0
  5  6  1  0  0  0
  6  7  2  0  0  0
  7  8  1  0  0  0
  8 27  1  0  0  0
 27 28  1  0  0  0
 28 29  1  0  0  0
 29 30  2  0  0  0
 30 31  1  0  0  0
 31 32  2  0  0  0
 32 33  1  0  0  0
 33 34  2  0  0  0
  8  9  2  0  0  0
  9 10  1  0  0  0
 12 14  1  0  0  0
 14 17  1  0  0  0
 17 18  2  0  0  0
 18 19  1  0  0  0
 19 20  2  0  0  0
 20 21  1  0  0  0
 21 22  2  0  0  0
 22 23  1  0  0  0
 23 24  2  0  0  0
 24 25  1  0  0  0
 25 26  2  0  0  0
 10  1  1  0  0  0
 26 17  1  0  0  0
  9  4  1  0  0  0
 26 21  1  0  0  0
 34 29  1  0  0  0
 13 15  1  0  0  0
 14 16  1  0  0  0
M  END
> <minimizedAffinity>
-9.71247

> <CNNscore>
0.3479594290

> <CNNaffinity>
6.0629343987

> <CNN_VS>
2.1096551418

> <CNNaffinity_variance>
0.1046961918

$$$$
[H]c1nc([H])c2c([H])c([H])c([H])c(N([H])C(=O)N([H])[C@@]3([H])C([H])([H])c4c(OC([H])([H])c5c([H])c([H])c([H])c([H])c5[H])c([H])c([H])c([H])c4C([H])([H])C3([H])[H])c2c1[H]


 34 38  0  0  0  0  0  0  0  0999 V2000
  154.2901  138.7600  184.6119 C   0  0  0  0  0  0  0  0  0  0  0  0
  153.6360  138.6047  183.2698 C   0  0  0  0  0  0  0  0  0  0  0  0
  153.1619  140.0121  182.8757 C   0  0  0  0  0  0  0  0  0  0  0  0
  154.2803  140.9845  183.0502 C   0  0  0  0  0  0  0  0  0  0  0  0
  154.1072  142.2418  182.4829 C   0  0  0  0  0  0  0  0  0  0  0  0
  155.0862  143.2059  182.5923 C   0  0  0  0  0  0  0  0  0  0  0  0
  156.2381  142.9114  183.2693 C   0  0  0  0  0  0  0  0  0  0  0  0
  156.4197  141.6541  183.8401 C   0  0  0  0  0  0  0  0  0  0  0  0
  155.4310  140.6791  183.7306 C   0  0  0  0  0  0  0  0  0  0  0  0
  155.6727  139.3590  184.3554 C   0  0  0  0  0  0  0  0  0  0  0  0
  154.3080  138.6713  187.3801 O   0  0  0  0  0  0  0  0  0  0  0  0
  154.3340  137.5611  186.8453 C   0  0  0  0  0  0  0  0  0  0  0  0
  154.3250  137.5890  185.4021 N   0  0  0  0  0  0  0  0  0  0  0  0
  154.3696  136.3564  187.5573 N   0  0  0  0  0  0  0  0  0  0  0  0
  154.3458  136.6598  184.9293 H   0  0  0  0  0  0  0  0  0  0  0  0
  154.3881  135.4698  186.9437 H   0  0  0  0  0  0  0  0  0  0  0  0
  154.3734  136.2321  188.9594 C   0  0  0  0  0  0  0  0  0  0  0  0
  153.3684  136.6991  189.7931 C   0  0  0  0  0  0  0  0  0  0  0  0
  153.4035  136.5402  191.1656 C   0  0  0  0  0  0  0  0  0  0  0  0
  154.4649  135.9010  191.7161 C   0  0  0  0  0  0  0  0  0  0  0  0
  155.4882  135.4213  190.9085 C   0  0  0  0  0  0  0  0  0  0  0  0
  156.5618  134.7735  191.5077 C   0  0  0  0  0  0  0  0  0  0  0  0
  157.5493  134.3111  190.7547 N   0  0  0  0  0  0  0  0  0  0  0  0
  157.5703  134.4355  189.4265 C   0  0  0  0  0  0  0  0  0  0  0  0
  156.4892  135.0891  188.8093 C   0  0  0  0  0  0  0  0  0  0  0  0
  155.4563  135.5763  189.5588 C   0  0  0  0  0  0  0  0  0  0  0  0
  157.5495  141.2988  184.5318 O   0  0  0  0  0  0  0  0  0  0  0  0
  158.8251  141.1334  184.0095 C   0  0  0  0  0  0  0  0  0  0  0  0
  159.8499  141.7883  184.8849 C   0  0  0  0  0  0  0  0  0  0  0  0
  161.1095  141.9538  184.3794 C   0  0  0  0  0  0  0  0  0  0  0  0
  162.0713  142.5471  185.1620 C   0  0  0  0  0  0  0  0  0  0  0  0
  161.7861  142.9779  186.4478 C   0  0  0  0  0  0  0  0  0  0  0  0
  160.4976  142.7937  186.9275 C   0  0  0  0  0  0  0  0  0  0  0  0
  159.5383  142.2047  186.1544 C   0  0  0  0  0  0  0  0  0  0  0  0
 11 12  2  0  0  0
 12 13  1  0  0  0
 13  1  1  0  0  0
  1  2  1  0  0  0
  2  3  1  0  0  0
  3  4  1  0  0  0
  4  5  2  0  0  0
  5  6  1  0  0  0
  6  7  2  0  0  0
  7  8  1  0  0  0
  8 27  1  0  0  0
 27 28  1  0  0  0
 28 29  1  0  0  0
 29 30  2  0  0  0
 30 31  1  0  0  0
 31 32  2  0  0  0
 32 33  1  0  0  0
 33 34  2  0  0  0
  8  9  2  0  0  0
  9 10  1  0  0  0
 12 14  1  0  0  0
 14 17  1  0  0  0
 17 18  2  0  0  0
 18 19  1  0  0  0
 19 20  2  0  0  0
 20 21  1  0  0  0
 21 22  2  0  0  0
 22 23  1  0  0  0
 23 24  2  0  0  0
 24 25  1  0  0  0
 25 26  2  0  0  0
 10  1  1  0  0  0
 26 17  1  0  0  0
  9  4  1  0  0  0
 26 21  1  0  0  0
 34 29  1  0  0  0
 13 15  1  0  0  0
 14 16  1  0  0  0
M  END
> <minimizedAffinity>
-10.06304

> <CNNscore>
0.3153948784

> <CNNaffinity>
6.1502456665

> <CNN_VS>
1.9397560358

> <CNNaffinity_variance>
0.1161983013

$$$$
[H]c1nc([H])c2c([H])c([H])c([H])c(N([H])C(=O)N([H])[C@@]3([H])C([H])([H])c4c(OC([H])([H])c5c([H])c([H])c([H])c([H])c5[H])c([H])c([H])c([H])c4C([H])([H])C3([H])[H])c2c1[H]


 34 38  0  0  0  0  0  0  0  0999 V2000
  154.5528  138.3846  184.8454 C   0  0  0  0  0  0  0  0  0  0  0  0
  153.8857  137.9775  183.5637 C   0  0  0  0  0  0  0  0  0  0  0  0
  153.0960  139.2109  183.0989 C   0  0  0  0  0  0  0  0  0  0  0  0
  153.9807  140.4123  183.1282 C   0  0  0  0  0  0  0  0  0  0  0  0
  153.5090  141.5493  182.4823 C   0  0  0  0  0  0  0  0  0  0  0  0
  154.2566  142.7072  182.4566 C   0  0  0  0  0  0  0  0  0  0  0  0
  155.4759  142.7265  183.0769 C   0  0  0  0  0  0  0  0  0  0  0  0
  155.9559  141.5915  183.7257 C   0  0  0  0  0  0  0  0  0  0  0  0
  155.2014  140.4210  183.7528 C   0  0  0  0  0  0  0  0  0  0  0  0
  155.7564  139.2425  184.4560 C   0  0  0  0  0  0  0  0  0  0  0  0
  154.5515  138.4938  187.6129 O   0  0  0  0  0  0  0  0  0  0  0  0
  154.8756  137.3954  187.1571 C   0  0  0  0  0  0  0  0  0  0  0  0
  154.8815  137.3209  185.7156 N   0  0  0  0  0  0  0  0  0  0  0  0
  155.2151  136.2940  187.9518 N   0  0  0  0  0  0  0  0  0  0  0  0
  155.1523  136.3996  185.3091 H   0  0  0  0  0  0  0  0  0  0  0  0
  155.4745  135.4034  187.4018 H   0  0  0  0  0  0  0  0  0  0  0  0
  155.2301  136.2715  189.3592 C   0  0  0  0  0  0  0  0  0  0  0  0
  156.3608  136.4705  190.1369 C   0  0  0  0  0  0  0  0  0  0  0  0
  156.3278  136.4576  191.5186 C   0  0  0  0  0  0  0  0  0  0  0  0
  155.1400  136.2416  192.1356 C   0  0  0  0  0  0  0  0  0  0  0  0
  153.9888  136.0388  191.3850 C   0  0  0  0  0  0  0  0  0  0  0  0
  152.7894  135.8177  192.0513 C   0  0  0  0  0  0  0  0  0  0  0  0
  151.6807  135.6194  191.3532 N   0  0  0  0  0  0  0  0  0  0  0  0
  151.6515  135.6202  190.0194 C   0  0  0  0  0  0  0  0  0  0  0  0
  152.8591  135.8429  189.3345 C   0  0  0  0  0  0  0  0  0  0  0  0
  154.0185  136.0508  190.0264 C   0  0  0  0  0  0  0  0  0  0  0  0
  157.1677  141.5482  184.3665 O   0  0  0  0  0  0  0  0  0  0  0  0
  158.3945  141.2259  183.8020 C   0  0  0  0  0  0  0  0  0  0  0  0
  158.5268  141.8236  182.4343 C   0  0  0  0  0  0  0  0  0  0  0  0
  158.2988  141.0117  181.3580 C   0  0  0  0  0  0  0  0  0  0  0  0
  158.4177  141.5319  180.0912 C   0  0  0  0  0  0  0  0  0  0  0  0
  158.7630  142.8586  179.8888 C   0  0  0  0  0  0  0  0  0  0  0  0
  158.9868  143.6526  181.0040 C   0  0  0  0  0  0  0  0  0  0  0  0
  158.8701  143.1410  182.2647 C   0  0  0  0  0  0  0  0  0  0  0  0
 11 12  2  0  0  0
 12 13  1  0  0  0
 13  1  1  0  0  0
  1  2  1  0  0  0
  2  3  1  0  0  0
  3  4  1  0  0  0
  4  5  2  0  0  0
  5  6  1  0  0  0
  6  7  2  0  0  0
  7  8  1  0  0  0
  8 27  1  0  0  0
 27 28  1  0  0  0
 28 29  1  0  0  0
 29 30  2  0  0  0
 30 31  1  0  0  0
 31 32  2  0  0  0
 32 33  1  0  0  0
 33 34  2  0  0  0
  8  9  2  0  0  0
  9 10  1  0  0  0
 12 14  1  0  0  0
 14 17  1  0  0  0
 17 18  2  0  0  0
 18 19  1  0  0  0
 19 20  2  0  0  0
 20 21  1  0  0  0
 21 22  2  0  0  0
 22 23  1  0  0  0
 23 24  2  0  0  0
 24 25  1  0  0  0
 25 26  2  0  0  0
 10  1  1  0  0  0
 26 17  1  0  0  0
  9  4  1  0  0  0
 26 21  1  0  0  0
 34 29  1  0  0  0
 13 15  1  0  0  0
 14 16  1  0  0  0
M  END
> <minimizedAffinity>
-9.58163

> <CNNscore>
0.3117139041

> <CNNaffinity>
5.9095187187

> <CNN_VS>
1.8420791626

> <CNNaffinity_variance>
0.0999098793

$$$$
[H]c1nc([H])c2c([H])c([H])c([H])c(N([H])C(=O)N([H])[C@@]3([H])C([H])([H])c4c(OC([H])([H])c5c([H])c([H])c([H])c([H])c5[H])c([H])c([H])c([H])c4C([H])([H])C3([H])[H])c2c1[H]


 34 38  0  0  0  0  0  0  0  0999 V2000
  154.8712  138.6234  184.7618 C   0  0  0  0  0  0  0  0  0  0  0  0
  154.1390  138.2683  183.5004 C   0  0  0  0  0  0  0  0  0  0  0  0
  153.3005  139.5063  183.1468 C   0  0  0  0  0  0  0  0  0  0  0  0
  154.1624  140.7238  183.1890 C   0  0  0  0  0  0  0  0  0  0  0  0
  153.6326  141.8819  182.6318 C   0  0  0  0  0  0  0  0  0  0  0  0
  154.3553  143.0557  182.6247 C   0  0  0  0  0  0  0  0  0  0  0  0
  155.6078  143.0699  183.1750 C   0  0  0  0  0  0  0  0  0  0  0  0
  156.1461  141.9138  183.7348 C   0  0  0  0  0  0  0  0  0  0  0  0
  155.4167  140.7271  183.7430 C   0  0  0  0  0  0  0  0  0  0  0  0
  156.0338  139.5265  184.3505 C   0  0  0  0  0  0  0  0  0  0  0  0
  155.0165  138.5862  187.5274 O   0  0  0  0  0  0  0  0  0  0  0  0
  155.3399  137.5219  186.9965 C   0  0  0  0  0  0  0  0  0  0  0  0
  155.2698  137.5238  185.5547 N   0  0  0  0  0  0  0  0  0  0  0  0
  155.7460  136.3889  187.7115 N   0  0  0  0  0  0  0  0  0  0  0  0
  155.5387  136.6323  185.0853 H   0  0  0  0  0  0  0  0  0  0  0  0
  155.9952  135.5354  187.1013 H   0  0  0  0  0  0  0  0  0  0  0  0
  155.8373  136.2925  189.1129 C   0  0  0  0  0  0  0  0  0  0  0  0
  155.1428  137.0972  190.0034 C   0  0  0  0  0  0  0  0  0  0  0  0
  155.2483  136.9569  191.3744 C   0  0  0  0  0  0  0  0  0  0  0  0
  156.0647  135.9921  191.8652 C   0  0  0  0  0  0  0  0  0  0  0  0
  156.7743  135.1694  190.9996 C   0  0  0  0  0  0  0  0  0  0  0  0
  157.6036  134.1930  191.5382 C   0  0  0  0  0  0  0  0  0  0  0  0
  158.2909  133.3999  190.7292 N   0  0  0  0  0  0  0  0  0  0  0  0
  158.2297  133.4888  189.3994 C   0  0  0  0  0  0  0  0  0  0  0  0
  157.3938  134.4731  188.8431 C   0  0  0  0  0  0  0  0  0  0  0  0
  156.6725  135.3053  189.6513 C   0  0  0  0  0  0  0  0  0  0  0  0
  157.3935  141.8643  184.3027 O   0  0  0  0  0  0  0  0  0  0  0  0
  158.5748  141.4846  183.6799 C   0  0  0  0  0  0  0  0  0  0  0  0
  158.6014  141.9500  182.2557 C   0  0  0  0  0  0  0  0  0  0  0  0
  158.2045  141.0688  181.2886 C   0  0  0  0  0  0  0  0  0  0  0  0
  158.2232  141.4668  179.9731 C   0  0  0  0  0  0  0  0  0  0  0  0
  158.6356  142.7399  179.6135 C   0  0  0  0  0  0  0  0  0  0  0  0
  159.0314  143.6072  180.6213 C   0  0  0  0  0  0  0  0  0  0  0  0
  159.0148  143.2169  181.9298 C   0  0  0  0  0  0  0  0  0  0  0  0
 11 12  2  0  0  0
 12 13  1  0  0  0
 13  1  1  0  0  0
  1  2  1  0  0  0
  2  3  1  0  0  0
  3  4  1  0  0  0
  4  5  2  0  0  0
  5  6  1  0  0  0
  6  7  2  0  0  0
  7  8  1  0  0  0
  8 27  1  0  0  0
 27 28  1  0  0  0
 28 29  1  0  0  0
 29 30  2  0  0  0
 30 31  1  0  0  0
 31 32  2  0  0  0
 32 33  1  0  0  0
 33 34  2  0  0  0
  8  9  2  0  0  0
  9 10  1  0  0  0
 12 14  1  0  0  0
 14 17  1  0  0  0
 17 18  2  0  0  0
 18 19  1  0  0  0
 19 20  2  0  0  0
 20 21  1  0  0  0
 21 22  2  0  0  0
 22 23  1  0  0  0
 23 24  2  0  0  0
 24 25  1  0  0  0
 25 26  2  0  0  0
 10  1  1  0  0  0
 26 17  1  0  0  0
  9  4  1  0  0  0
 26 21  1  0  0  0
 34 29  1  0  0  0
 13 15  1  0  0  0
 14 16  1  0  0  0
M  END
> <minimizedAffinity>
-9.73524

> <CNNscore>
0.2913263738

> <CNNaffinity>
5.9332399368

> <CNN_VS>
1.7285093069

> <CNNaffinity_variance>
0.0928846076

$$$$
[H]c1c(C(C([H])([H])[H])(C([H])([H])[H])C([H])([H])[H])nc(N2C([H])([H])C([H])([H])C([H])([H])C2([H])[H])c(C([H])([H])N([H])C(=O)C([H])(c2c([H])c([H])c(N([H])S(=O)(=O)C([H])([H])[H])c(F)c2[H])C([H])([H])[H])c1[H]


 35 37  0  0  0  0  0  0  0  0999 V2000
  156.1964  141.6290  182.4930 C   0  0  0  0  0  0  0  0  0  0  0  0
  155.6018  142.6742  182.7446 O   0  0  0  0  0  0  0  0  0  0  0  0
  155.6348  140.3681  182.9113 N   0  0  0  0  0  0  0  0  0  0  0  0
  156.1344  139.4803  182.7174 H   0  0  0  0  0  0  0  0  0  0  0  0
  157.5219  142.6018  180.6360 C   0  0  0  0  0  0  0  0  0  0  0  0
  157.4747  141.5894  181.7706 C   0  0  0  0  0  0  0  0  0  0  0  0
  158.6382  141.8531  182.6549 C   0  0  0  0  0  0  0  0  0  0  0  0
  159.4097  140.8151  183.1122 C   0  0  0  0  0  0  0  0  0  0  0  0
  160.5126  141.0755  183.9186 C   0  0  0  0  0  0  0  0  0  0  0  0
  160.8434  142.3542  184.2612 C   0  0  0  0  0  0  0  0  0  0  0  0
  160.0558  143.4159  183.7936 C   0  0  0  0  0  0  0  0  0  0  0  0
  160.3779  144.6953  184.1170 F   0  0  0  0  0  0  0  0  0  0  0  0
  158.9670  143.1646  182.9998 C   0  0  0  0  0  0  0  0  0  0  0  0
  161.9619  142.6798  185.0619 N   0  0  0  0  0  0  0  0  0  0  0  0
  162.9144  142.7437  184.5635 H   0  0  0  0  0  0  0  0  0  0  0  0
  161.9016  142.9777  186.7300 S   0  0  0  0  0  0  0  0  0  0  0  0
  163.3386  142.3975  187.5591 C   0  0  0  0  0  0  0  0  0  0  0  0
  160.6976  142.2565  187.3367 O   0  0  0  0  0  0  0  0  0  0  0  0
  161.6786  144.4374  187.0568 O   0  0  0  0  0  0  0  0  0  0  0  0
  154.3771  140.3079  183.6014 C   0  0  0  0  0  0  0  0  0  0  0  0
  153.2915  139.8930  182.7163 C   0  0  0  0  0  0  0  0  0  0  0  0
  152.9007  140.6884  181.6705 C   0  0  0  0  0  0  0  0  0  0  0  0
  151.8226  140.2778  180.8811 C   0  0  0  0  0  0  0  0  0  0  0  0
  151.1887  139.0934  181.1750 C   0  0  0  0  0  0  0  0  0  0  0  0
  151.5909  138.3444  182.1980 N   0  0  0  0  0  0  0  0  0  0  0  0
  152.6423  138.6936  183.0061 C   0  0  0  0  0  0  0  0  0  0  0  0
  153.0497  137.8585  184.0629 N   0  0  0  0  0  0  0  0  0  0  0  0
  154.2250  137.0287  184.2472 C   0  0  0  0  0  0  0  0  0  0  0  0
  154.5625  137.3103  185.6937 C   0  0  0  0  0  0  0  0  0  0  0  0
  153.3277  137.9162  186.3340 C   0  0  0  0  0  0  0  0  0  0  0  0
  152.2632  137.6674  185.2688 C   0  0  0  0  0  0  0  0  0  0  0  0
  150.0348  138.6863  180.3461 C   0  0  0  0  0  0  0  0  0  0  0  0
  149.8331  137.1608  180.3812 C   0  0  0  0  0  0  0  0  0  0  0  0
  148.7599  139.3125  180.8984 C   0  0  0  0  0  0  0  0  0  0  0  0
  150.1499  139.1360  178.9130 C   0  0  0  0  0  0  0  0  0  0  0  0
  5  6  1  0  0  0
  6  1  1  0  0  0
  1  2  2  0  0  0
  1  3  1  0  0  0
  3 20  1  0  0  0
 20 21  1  0  0  0
 21 22  2  0  0  0
 22 23  1  0  0  0
 23 24  2  0  0  0
 24 25  1  0  0  0
 25 26  2  0  0  0
 26 27  1  0  0  0
 27 28  1  0  0  0
 28 29  1  0  0  0
 29 30  1  0  0  0
 30 31  1  0  0  0
 24 32  1  0  0  0
 32 33  1  0  0  0
 32 34  1  0  0  0
 32 35  1  0  0  0
  6  7  1  0  0  0
  7  8  2  0  0  0
  8  9  1  0  0  0
  9 10  2  0  0  0
 10 14  1  0  0  0
 14 16  1  0  0  0
 16 17  1  0  0  0
 16 18  2  0  0  0
 16 19  2  0  0  0
 10 11  1  0  0  0
 11 12  1  0  0  0
 11 13  2  0  0  0
 26 21  1  0  0  0
 31 27  1  0  0  0
 13  7  1  0  0  0
  3  4  1  0  0  0
 14 15  1  0  0  0
M  END
> <minimizedAffinity>
-8.51365

> <CNNscore>
0.5354920626

> <CNNaffinity>
6.9171667099

> <CNN_VS>
3.7040879726

> <CNNaffinity_variance>
0.0331750214

$$$$
[H]c1c(C(C([H])([H])[H])(C([H])([H])[H])C([H])([H])[H])nc(N2C([H])([H])C([H])([H])C([H])([H])C2([H])[H])c(C([H])([H])N([H])C(=O)C([H])(c2c([H])c([H])c(N([H])S(=O)(=O)C([H])([H])[H])c(F)c2[H])C([H])([H])[H])c1[H]


 35 37  0  0  0  0  0  0  0  0999 V2000
  154.3131  139.3457  183.4199 C   0  0  0  0  0  0  0  0  0  0  0  0
  153.3011  138.8086  182.9767 O   0  0  0  0  0  0  0  0  0  0  0  0
  154.9734  138.7858  184.5735 N   0  0  0  0  0  0  0  0  0  0  0  0
  155.8201  139.2384  184.9654 H   0  0  0  0  0  0  0  0  0  0  0  0
  154.1963  141.8193  183.2800 C   0  0  0  0  0  0  0  0  0  0  0  0
  154.9046  140.5518  182.8258 C   0  0  0  0  0  0  0  0  0  0  0  0
  156.3452  140.7018  183.1535 C   0  0  0  0  0  0  0  0  0  0  0  0
  156.7728  140.6097  184.4537 C   0  0  0  0  0  0  0  0  0  0  0  0
  158.1276  140.7256  184.7465 C   0  0  0  0  0  0  0  0  0  0  0  0
  159.0436  140.9273  183.7554 C   0  0  0  0  0  0  0  0  0  0  0  0
  158.6074  141.0208  182.4260 C   0  0  0  0  0  0  0  0  0  0  0  0
  159.5078  141.2109  181.4268 F   0  0  0  0  0  0  0  0  0  0  0  0
  157.2733  140.9087  182.1322 C   0  0  0  0  0  0  0  0  0  0  0  0
  160.4332  141.0346  183.9913 N   0  0  0  0  0  0  0  0  0  0  0  0
  161.0591  140.2691  183.5648 H   0  0  0  0  0  0  0  0  0  0  0  0
  161.1683  142.2748  184.8838 S   0  0  0  0  0  0  0  0  0  0  0  0
  160.7525  143.8685  184.2705 C   0  0  0  0  0  0  0  0  0  0  0  0
  162.6886  142.1331  184.8032 O   0  0  0  0  0  0  0  0  0  0  0  0
  160.8541  142.1989  186.3612 O   0  0  0  0  0  0  0  0  0  0  0  0
  154.4809  137.5943  185.2054 C   0  0  0  0  0  0  0  0  0  0  0  0
  154.6205  137.6527  186.6583 C   0  0  0  0  0  0  0  0  0  0  0  0
  155.7678  138.1380  187.2304 C   0  0  0  0  0  0  0  0  0  0  0  0
  155.8800  138.1263  188.6237 C   0  0  0  0  0  0  0  0  0  0  0  0
  154.8412  137.6310  189.3763 C   0  0  0  0  0  0  0  0  0  0  0  0
  153.7411  137.1656  188.7910 N   0  0  0  0  0  0  0  0  0  0  0  0
  153.5724  137.1527  187.4301 C   0  0  0  0  0  0  0  0  0  0  0  0
  152.3814  136.6734  186.8543 N   0  0  0  0  0  0  0  0  0  0  0  0
  151.1701  137.3468  186.4261 C   0  0  0  0  0  0  0  0  0  0  0  0
  150.8843  136.6406  185.1203 C   0  0  0  0  0  0  0  0  0  0  0  0
  151.6814  135.3497  185.1233 C   0  0  0  0  0  0  0  0  0  0  0  0
  152.1475  135.2677  186.5744 C   0  0  0  0  0  0  0  0  0  0  0  0
  154.9863  137.6027  190.8468 C   0  0  0  0  0  0  0  0  0  0  0  0
  156.3059  136.9294  191.2644 C   0  0  0  0  0  0  0  0  0  0  0  0
  155.0284  139.0275  191.3858 C   0  0  0  0  0  0  0  0  0  0  0  0
  153.8398  136.9136  191.5397 C   0  0  0  0  0  0  0  0  0  0  0  0
  5  6  1  0  0  0
  6  1  1  0  0  0
  1  2  2  0  0  0
  1  3  1  0  0  0
  3 20  1  0  0  0
 20 21  1  0  0  0
 21 22  2  0  0  0
 22 23  1  0  0  0
 23 24  2  0  0  0
 24 25  1  0  0  0
 25 26  2  0  0  0
 26 27  1  0  0  0
 27 28  1  0  0  0
 28 29  1  0  0  0
 29 30  1  0  0  0
 30 31  1  0  0  0
 24 32  1  0  0  0
 32 33  1  0  0  0
 32 34  1  0  0  0
 32 35  1  0  0  0
  6  7  1  0  0  0
  7  8  2  0  0  0
  8  9  1  0  0  0
  9 10  2  0  0  0
 10 14  1  0  0  0
 14 16  1  0  0  0
 16 17  1  0  0  0
 16 18  2  0  0  0
 16 19  2  0  0  0
 10 11  1  0  0  0
 11 12  1  0  0  0
 11 13  2  0  0  0
 26 21  1  0  0  0
 31 27  1  0  0  0
 13  7  1  0  0  0
  3  4  1  0  0  0
 14 15  1  0  0  0
M  END
> <minimizedAffinity>
-8.25037

> <CNNscore>
0.5350396037

> <CNNaffinity>
6.7431306839

> <CNN_VS>
3.6078419685

> <CNNaffinity_variance>
0.1721164584

$$$$
[H]c1c(C(C([H])([H])[H])(C([H])([H])[H])C([H])([H])[H])nc(N2C([H])([H])C([H])([H])C([H])([H])C2([H])[H])c(C([H])([H])N([H])C(=O)C([H])(c2c([H])c([H])c(N([H])S(=O)(=O)C([H])([H])[H])c(F)c2[H])C([H])([H])[H])c1[H]


 35 37  0  0  0  0  0  0  0  0999 V2000
  154.0353  140.8190  182.7534 C   0  0  0  0  0  0  0  0  0  0  0  0
  153.9049  140.5753  183.9504 O   0  0  0  0  0  0  0  0  0  0  0  0
  153.4944  139.9080  181.7748 N   0  0  0  0  0  0  0  0  0  0  0  0
  153.6107  140.0957  180.7616 H   0  0  0  0  0  0  0  0  0  0  0  0
  154.1129  143.2978  182.7943 C   0  0  0  0  0  0  0  0  0  0  0  0
  154.7241  142.0151  182.2507 C   0  0  0  0  0  0  0  0  0  0  0  0
  156.1691  142.0275  182.5926 C   0  0  0  0  0  0  0  0  0  0  0  0
  156.7778  140.8941  183.0688 C   0  0  0  0  0  0  0  0  0  0  0  0
  158.1375  140.9095  183.3612 C   0  0  0  0  0  0  0  0  0  0  0  0
  158.8805  142.0392  183.1777 C   0  0  0  0  0  0  0  0  0  0  0  0
  158.2592  143.1980  182.6903 C   0  0  0  0  0  0  0  0  0  0  0  0
  158.9872  144.3277  182.4923 F   0  0  0  0  0  0  0  0  0  0  0  0
  156.9193  143.1885  182.4020 C   0  0  0  0  0  0  0  0  0  0  0  0
  160.2678  142.1084  183.4404 N   0  0  0  0  0  0  0  0  0  0  0  0
  160.9272  141.7529  182.6667 H   0  0  0  0  0  0  0  0  0  0  0  0
  160.9511  142.7108  184.8704 S   0  0  0  0  0  0  0  0  0  0  0  0
  159.9642  142.3503  186.2793 C   0  0  0  0  0  0  0  0  0  0  0  0
  161.0805  144.2314  184.7762 O   0  0  0  0  0  0  0  0  0  0  0  0
  162.3631  142.2193  185.0975 O   0  0  0  0  0  0  0  0  0  0  0  0
  152.7838  138.7259  182.1738 C   0  0  0  0  0  0  0  0  0  0  0  0
  151.6063  138.4931  181.3412 C   0  0  0  0  0  0  0  0  0  0  0  0
  151.3457  139.2954  180.2608 C   0  0  0  0  0  0  0  0  0  0  0  0
  150.1796  139.0703  179.5232 C   0  0  0  0  0  0  0  0  0  0  0  0
  149.3323  138.0553  179.9010 C   0  0  0  0  0  0  0  0  0  0  0  0
  149.6126  137.2949  180.9559 N   0  0  0  0  0  0  0  0  0  0  0  0
  150.7408  137.4663  181.7163 C   0  0  0  0  0  0  0  0  0  0  0  0
  151.0102  136.6224  182.8097 N   0  0  0  0  0  0  0  0  0  0  0  0
  151.9669  135.5480  182.9946 C   0  0  0  0  0  0  0  0  0  0  0  0
  152.4574  135.8263  184.3973 C   0  0  0  0  0  0  0  0  0  0  0  0
  151.4455  136.7471  185.0532 C   0  0  0  0  0  0  0  0  0  0  0  0
  150.2835  136.6973  184.0649 C   0  0  0  0  0  0  0  0  0  0  0  0
  148.0915  137.8469  179.1257 C   0  0  0  0  0  0  0  0  0  0  0  0
  147.6831  136.3629  179.1144 C   0  0  0  0  0  0  0  0  0  0  0  0
  146.9460  138.6145  179.7747 C   0  0  0  0  0  0  0  0  0  0  0  0
  148.1924  138.3418  177.7065 C   0  0  0  0  0  0  0  0  0  0  0  0
  5  6  1  0  0  0
  6  1  1  0  0  0
  1  2  2  0  0  0
  1  3  1  0  0  0
  3 20  1  0  0  0
 20 21  1  0  0  0
 21 22  2  0  0  0
 22 23  1  0  0  0
 23 24  2  0  0  0
 24 25  1  0  0  0
 25 26  2  0  0  0
 26 27  1  0  0  0
 27 28  1  0  0  0
 28 29  1  0  0  0
 29 30  1  0  0  0
 30 31  1  0  0  0
 24 32  1  0  0  0
 32 33  1  0  0  0
 32 34  1  0  0  0
 32 35  1  0  0  0
  6  7  1  0  0  0
  7  8  2  0  0  0
  8  9  1  0  0  0
  9 10  2  0  0  0
 10 14  1  0  0  0
 14 16  1  0  0  0
 16 17  1  0  0  0
 16 18  2  0  0  0
 16 19  2  0  0  0
 10 11  1  0  0  0
 11 12  1  0  0  0
 11 13  2  0  0  0
 26 21  1  0  0  0
 31 27  1  0  0  0
 13  7  1  0  0  0
  3  4  1  0  0  0
 14 15  1  0  0  0
M  END
> <minimizedAffinity>
-8.55187

> <CNNscore>
0.4556643665

> <CNNaffinity>
6.4804582596

> <CNN_VS>
2.9529139996

> <CNNaffinity_variance>
0.0430935174

$$$$
[H]c1c(C(C([H])([H])[H])(C([H])([H])[H])C([H])([H])[H])nc(N2C([H])([H])C([H])([H])C([H])([H])C2([H])[H])c(C([H])([H])N([H])C(=O)C([H])(c2c([H])c([H])c(N([H])S(=O)(=O)C([H])([H])[H])c(F)c2[H])C([H])([H])[H])c1[H]


 35 37  0  0  0  0  0  0  0  0999 V2000
  154.3235  140.5164  182.9716 C   0  0  0  0  0  0  0  0  0  0  0  0
  154.1846  140.5031  184.1922 O   0  0  0  0  0  0  0  0  0  0  0  0
  153.8351  139.4113  182.1840 N   0  0  0  0  0  0  0  0  0  0  0  0
  153.9593  139.4045  181.1545 H   0  0  0  0  0  0  0  0  0  0  0  0
  154.3547  142.9683  182.5984 C   0  0  0  0  0  0  0  0  0  0  0  0
  154.9709  141.6212  182.2519 C   0  0  0  0  0  0  0  0  0  0  0  0
  156.4266  141.7092  182.5318 C   0  0  0  0  0  0  0  0  0  0  0  0
  157.0633  142.9241  182.5123 C   0  0  0  0  0  0  0  0  0  0  0  0
  158.4217  142.9984  182.8016 C   0  0  0  0  0  0  0  0  0  0  0  0
  159.1344  141.8763  183.1096 C   0  0  0  0  0  0  0  0  0  0  0  0
  158.4842  140.6340  183.1306 C   0  0  0  0  0  0  0  0  0  0  0  0
  159.1774  139.5091  183.4457 F   0  0  0  0  0  0  0  0  0  0  0  0
  157.1460  140.5553  182.8448 C   0  0  0  0  0  0  0  0  0  0  0  0
  160.5113  141.8933  183.4294 N   0  0  0  0  0  0  0  0  0  0  0  0
  161.1814  141.4434  182.7164 H   0  0  0  0  0  0  0  0  0  0  0  0
  161.1673  142.5711  184.8383 S   0  0  0  0  0  0  0  0  0  0  0  0
  160.2106  142.1922  186.2632 C   0  0  0  0  0  0  0  0  0  0  0  0
  161.2092  144.0936  184.7038 O   0  0  0  0  0  0  0  0  0  0  0  0
  162.6063  142.1667  185.0680 O   0  0  0  0  0  0  0  0  0  0  0  0
  153.1669  138.2992  182.7992 C   0  0  0  0  0  0  0  0  0  0  0  0
  151.7316  138.3103  182.5277 C   0  0  0  0  0  0  0  0  0  0  0  0
  151.2048  139.1620  181.5918 C   0  0  0  0  0  0  0  0  0  0  0  0
  149.8198  139.1772  181.4020 C   0  0  0  0  0  0  0  0  0  0  0  0
  149.0302  138.3409  182.1557 C   0  0  0  0  0  0  0  0  0  0  0  0
  149.5719  137.5267  183.0574 N   0  0  0  0  0  0  0  0  0  0  0  0
  150.9225  137.4659  183.2870 C   0  0  0  0  0  0  0  0  0  0  0  0
  151.4548  136.5715  184.2339 N   0  0  0  0  0  0  0  0  0  0  0  0
  152.0762  135.2681  184.0965 C   0  0  0  0  0  0  0  0  0  0  0  0
  153.2266  135.3841  185.0706 C   0  0  0  0  0  0  0  0  0  0  0  0
  152.9193  136.5491  185.9927 C   0  0  0  0  0  0  0  0  0  0  0  0
  151.4581  136.8396  185.6612 C   0  0  0  0  0  0  0  0  0  0  0  0
  147.5661  138.3874  181.9603 C   0  0  0  0  0  0  0  0  0  0  0  0
  147.1804  139.4048  180.8715 C   0  0  0  0  0  0  0  0  0  0  0  0
  147.0679  137.0266  181.4885 C   0  0  0  0  0  0  0  0  0  0  0  0
  146.8120  138.7078  183.2244 C   0  0  0  0  0  0  0  0  0  0  0  0
  5  6  1  0  0  0
  6  1  1  0  0  0
  1  2  2  0  0  0
  1  3  1  0  0  0
  3 20  1  0  0  0
 20 21  1  0  0  0
 21 22  2  0  0  0
 22 23  1  0  0  0
 23 24  2  0  0  0
 24 25  1  0  0  0
 25 26  2  0  0  0
 26 27  1  0  0  0
 27 28  1  0  0  0
 28 29  1  0  0  0
 29 30  1  0  0  0
 30 31  1  0  0  0
 24 32  1  0  0  0
 32 33  1  0  0  0
 32 34  1  0  0  0
 32 35  1  0  0  0
  6  7  1  0  0  0
  7  8  2  0  0  0
  8  9  1  0  0  0
  9 10  2  0  0  0
 10 14  1  0  0  0
 14 16  1  0  0  0
 16 17  1  0  0  0
 16 18  2  0  0  0
 16 19  2  0  0  0
 10 11  1  0  0  0
 11 12  1  0  0  0
 11 13  2  0  0  0
 26 21  1  0  0  0
 31 27  1  0  0  0
 13  7  1  0  0  0
  3  4  1  0  0  0
 14 15  1  0  0  0
M  END
> <minimizedAffinity>
-7.89102

> <CNNscore>
0.3858261406

> <CNNaffinity>
6.5946683884

> <CNN_VS>
2.5443954468

> <CNNaffinity_variance>
0.0402168967

$$$$
[H]c1c(C(C([H])([H])[H])(C([H])([H])[H])C([H])([H])[H])nc(N2C([H])([H])C([H])([H])C([H])([H])C2([H])[H])c(C([H])([H])N([H])C(=O)C([H])(c2c([H])c([H])c(N([H])S(=O)(=O)C([H])([H])[H])c(F)c2[H])C([H])([H])[H])c1[H]


 35 37  0  0  0  0  0  0  0  0999 V2000
  154.2792  138.2226  186.2764 C   0  0  0  0  0  0  0  0  0  0  0  0
  153.5182  139.0944  186.6888 O   0  0  0  0  0  0  0  0  0  0  0  0
  154.9256  138.3840  184.9973 N   0  0  0  0  0  0  0  0  0  0  0  0
  155.5588  137.6484  184.6321 H   0  0  0  0  0  0  0  0  0  0  0  0
  156.0504  136.8976  187.3985 C   0  0  0  0  0  0  0  0  0  0  0  0
  154.5775  136.9983  187.0312 C   0  0  0  0  0  0  0  0  0  0  0  0
  153.7943  136.8982  188.2889 C   0  0  0  0  0  0  0  0  0  0  0  0
  152.6103  136.2058  188.3142 C   0  0  0  0  0  0  0  0  0  0  0  0
  151.8979  136.0963  189.5038 C   0  0  0  0  0  0  0  0  0  0  0  0
  152.3621  136.6667  190.6532 C   0  0  0  0  0  0  0  0  0  0  0  0
  153.5727  137.3740  190.6284 C   0  0  0  0  0  0  0  0  0  0  0  0
  154.0536  137.9387  191.7664 F   0  0  0  0  0  0  0  0  0  0  0  0
  154.2779  137.4861  189.4584 C   0  0  0  0  0  0  0  0  0  0  0  0
  151.6908  136.5730  191.8936 N   0  0  0  0  0  0  0  0  0  0  0  0
  150.9777  137.3476  192.1200 H   0  0  0  0  0  0  0  0  0  0  0  0
  151.9273  135.3359  193.0287 S   0  0  0  0  0  0  0  0  0  0  0  0
  150.9602  133.9131  192.6692 C   0  0  0  0  0  0  0  0  0  0  0  0
  151.5209  135.8295  194.4177 O   0  0  0  0  0  0  0  0  0  0  0  0
  153.3804  134.9420  193.1719 O   0  0  0  0  0  0  0  0  0  0  0  0
  154.7130  139.5597  184.2010 C   0  0  0  0  0  0  0  0  0  0  0  0
  153.5703  139.4082  183.3036 C   0  0  0  0  0  0  0  0  0  0  0  0
  152.7989  138.2757  183.3405 C   0  0  0  0  0  0  0  0  0  0  0  0
  151.7477  138.1495  182.4277 C   0  0  0  0  0  0  0  0  0  0  0  0
  151.5189  139.1603  181.5240 C   0  0  0  0  0  0  0  0  0  0  0  0
  152.2865  140.2466  181.5125 N   0  0  0  0  0  0  0  0  0  0  0  0
  153.3302  140.4279  182.3834 C   0  0  0  0  0  0  0  0  0  0  0  0
  154.1013  141.6045  182.3519 N   0  0  0  0  0  0  0  0  0  0  0  0
  153.8482  142.9450  182.8448 C   0  0  0  0  0  0  0  0  0  0  0  0
  155.1899  143.2979  183.4457 C   0  0  0  0  0  0  0  0  0  0  0  0
  156.2086  142.3323  182.8697 C   0  0  0  0  0  0  0  0  0  0  0  0
  155.4183  141.6714  181.7435 C   0  0  0  0  0  0  0  0  0  0  0  0
  150.4194  138.9998  180.5495 C   0  0  0  0  0  0  0  0  0  0  0  0
  150.1213  137.5132  180.2844 C   0  0  0  0  0  0  0  0  0  0  0  0
  149.1421  139.6122  181.1117 C   0  0  0  0  0  0  0  0  0  0  0  0
  150.6876  139.6908  179.2381 C   0  0  0  0  0  0  0  0  0  0  0  0
  5  6  1  0  0  0
  6  1  1  0  0  0
  1  2  2  0  0  0
  1  3  1  0  0  0
  3 20  1  0  0  0
 20 21  1  0  0  0
 21 22  2  0  0  0
 22 23  1  0  0  0
 23 24  2  0  0  0
 24 25  1  0  0  0
 25 26  2  0  0  0
 26 27  1  0  0  0
 27 28  1  0  0  0
 28 29  1  0  0  0
 29 30  1  0  0  0
 30 31  1  0  0  0
 24 32  1  0  0  0
 32 33  1  0  0  0
 32 34  1  0  0  0
 32 35  1  0  0  0
  6  7  1  0  0  0
  7  8  2  0  0  0
  8  9  1  0  0  0
  9 10  2  0  0  0
 10 14  1  0  0  0
 14 16  1  0  0  0
 16 17  1  0  0  0
 16 18  2  0  0  0
 16 19  2  0  0  0
 10 11  1  0  0  0
 11 12  1  0  0  0
 11 13  2  0  0  0
 26 21  1  0  0  0
 31 27  1  0  0  0
 13  7  1  0  0  0
  3  4  1  0  0  0
 14 15  1  0  0  0
M  END
> <minimizedAffinity>
-7.03591

> <CNNscore>
0.3412366509

> <CNNaffinity>
6.0038723946

> <CNN_VS>
2.0487413406

> <CNNaffinity_variance>
0.0753273666

$$$$
[H]c1c(C(C([H])([H])[H])(C([H])([H])[H])C([H])([H])[H])nc(N2C([H])([H])C([H])([H])C([H])([H])C2([H])[H])c(C([H])([H])N([H])C(=O)C([H])(c2c([H])c([H])c(N([H])S(=O)(=O)C([H])([H])[H])c(F)c2[H])C([H])([H])[H])c1[H]


 35 37  0  0  0  0  0  0  0  0999 V2000
  154.2154  140.0637  183.5594 C   0  0  0  0  0  0  0  0  0  0  0  0
  154.1665  140.4131  184.7361 O   0  0  0  0  0  0  0  0  0  0  0  0
  153.6052  138.8206  183.1564 N   0  0  0  0  0  0  0  0  0  0  0  0
  153.6523  138.5081  182.1687 H   0  0  0  0  0  0  0  0  0  0  0  0
  154.2116  142.2183  182.3306 C   0  0  0  0  0  0  0  0  0  0  0  0
  154.8724  140.8603  182.5147 C   0  0  0  0  0  0  0  0  0  0  0  0
  156.3109  141.0968  182.7974 C   0  0  0  0  0  0  0  0  0  0  0  0
  156.8349  142.3616  182.7104 C   0  0  0  0  0  0  0  0  0  0  0  0
  158.1777  142.5760  183.0027 C   0  0  0  0  0  0  0  0  0  0  0  0
  158.9859  141.5433  183.3801 C   0  0  0  0  0  0  0  0  0  0  0  0
  158.4508  140.2502  183.4700 C   0  0  0  0  0  0  0  0  0  0  0  0
  159.2396  139.2133  183.8545 F   0  0  0  0  0  0  0  0  0  0  0  0
  157.1285  140.0333  183.1816 C   0  0  0  0  0  0  0  0  0  0  0  0
  160.3519  141.7043  183.7062 N   0  0  0  0  0  0  0  0  0  0  0  0
  161.0655  141.2144  183.0655 H   0  0  0  0  0  0  0  0  0  0  0  0
  160.9316  142.6097  185.0174 S   0  0  0  0  0  0  0  0  0  0  0  0
  159.9753  142.3583  186.4704 C   0  0  0  0  0  0  0  0  0  0  0  0
  160.8711  144.0995  184.6788 O   0  0  0  0  0  0  0  0  0  0  0  0
  162.3903  142.3430  185.3143 O   0  0  0  0  0  0  0  0  0  0  0  0
  152.9194  137.9884  184.1044 C   0  0  0  0  0  0  0  0  0  0  0  0
  153.6037  136.7131  184.3024 C   0  0  0  0  0  0  0  0  0  0  0  0
  153.5850  135.7518  183.3253 C   0  0  0  0  0  0  0  0  0  0  0  0
  154.2076  134.5259  183.5777 C   0  0  0  0  0  0  0  0  0  0  0  0
  154.8179  134.3210  184.7928 C   0  0  0  0  0  0  0  0  0  0  0  0
  154.8175  135.2735  185.7213 N   0  0  0  0  0  0  0  0  0  0  0  0
  154.2254  136.4958  185.5313 C   0  0  0  0  0  0  0  0  0  0  0  0
  154.2703  137.4837  186.5324 N   0  0  0  0  0  0  0  0  0  0  0  0
  153.2317  138.1006  187.3352 C   0  0  0  0  0  0  0  0  0  0  0  0
  153.8930  138.1420  188.6941 C   0  0  0  0  0  0  0  0  0  0  0  0
  155.3832  137.9601  188.4748 C   0  0  0  0  0  0  0  0  0  0  0  0
  155.5033  138.1198  186.9617 C   0  0  0  0  0  0  0  0  0  0  0  0
  155.4496  133.0105  185.0528 C   0  0  0  0  0  0  0  0  0  0  0  0
  156.2734  132.5379  183.8416 C   0  0  0  0  0  0  0  0  0  0  0  0
  156.4169  133.1305  186.2243 C   0  0  0  0  0  0  0  0  0  0  0  0
  154.4564  131.9397  185.4221 C   0  0  0  0  0  0  0  0  0  0  0  0
  5  6  1  0  0  0
  6  1  1  0  0  0
  1  2  2  0  0  0
  1  3  1  0  0  0
  3 20  1  0  0  0
 20 21  1  0  0  0
 21 22  2  0  0  0
 22 23  1  0  0  0
 23 24  2  0  0  0
 24 25  1  0  0  0
 25 26  2  0  0  0
 26 27  1  0  0  0
 27 28  1  0  0  0
 28 29  1  0  0  0
 29 30  1  0  0  0
 30 31  1  0  0  0
 24 32  1  0  0  0
 32 33  1  0  0  0
 32 34  1  0  0  0
 32 35  1  0  0  0
  6  7  1  0  0  0
  7  8  2  0  0  0
  8  9  1  0  0  0
  9 10  2  0  0  0
 10 14  1  0  0  0
 14 16  1  0  0  0
 16 17  1  0  0  0
 16 18  2  0  0  0
 16 19  2  0  0  0
 10 11  1  0  0  0
 11 12  1  0  0  0
 11 13  2  0  0  0
 26 21  1  0  0  0
 31 27  1  0  0  0
 13  7  1  0  0  0
  3  4  1  0  0  0
 14 15  1  0  0  0
M  END
> <minimizedAffinity>
-7.70600

> <CNNscore>
0.3271442056

> <CNNaffinity>
6.5458574295

> <CNN_VS>
2.1414394379

> <CNNaffinity_variance>
0.2468113601

$$$$
[H]c1c(C(C([H])([H])[H])(C([H])([H])[H])C([H])([H])[H])nc(N2C([H])([H])C([H])([H])C([H])([H])C2([H])[H])c(C([H])([H])N([H])C(=O)C([H])(c2c([H])c([H])c(N([H])S(=O)(=O)C([H])([H])[H])c(F)c2[H])C([H])([H])[H])c1[H]


 35 37  0  0  0  0  0  0  0  0999 V2000
  154.0947  140.4792  182.4754 C   0  0  0  0  0  0  0  0  0  0  0  0
  153.4876  139.7991  181.6520 O   0  0  0  0  0  0  0  0  0  0  0  0
  154.2246  140.0111  183.8334 N   0  0  0  0  0  0  0  0  0  0  0  0
  154.7224  140.5831  184.5409 H   0  0  0  0  0  0  0  0  0  0  0  0
  154.0513  142.9253  182.8838 C   0  0  0  0  0  0  0  0  0  0  0  0
  154.7130  141.7705  182.1469 C   0  0  0  0  0  0  0  0  0  0  0  0
  156.1627  141.8069  182.4668 C   0  0  0  0  0  0  0  0  0  0  0  0
  156.7886  143.0033  182.7087 C   0  0  0  0  0  0  0  0  0  0  0  0
  158.1410  143.0238  183.0330 C   0  0  0  0  0  0  0  0  0  0  0  0
  158.8583  141.8661  183.1183 C   0  0  0  0  0  0  0  0  0  0  0  0
  158.2190  140.6426  182.8719 C   0  0  0  0  0  0  0  0  0  0  0  0
  158.9166  139.4806  182.9631 F   0  0  0  0  0  0  0  0  0  0  0  0
  156.8868  140.6171  182.5505 C   0  0  0  0  0  0  0  0  0  0  0  0
  160.2291  141.8245  183.4611 N   0  0  0  0  0  0  0  0  0  0  0  0
  160.8770  141.2668  182.8062 H   0  0  0  0  0  0  0  0  0  0  0  0
  160.9102  142.5887  184.8127 S   0  0  0  0  0  0  0  0  0  0  0  0
  159.9671  142.3199  186.2711 C   0  0  0  0  0  0  0  0  0  0  0  0
  160.9681  144.0978  184.5738 O   0  0  0  0  0  0  0  0  0  0  0  0
  162.3473  142.1832  185.0527 O   0  0  0  0  0  0  0  0  0  0  0  0
  153.6737  138.7490  184.2397 C   0  0  0  0  0  0  0  0  0  0  0  0
  154.2986  138.2524  185.4632 C   0  0  0  0  0  0  0  0  0  0  0  0
  155.5629  138.6504  185.8125 C   0  0  0  0  0  0  0  0  0  0  0  0
  156.1429  138.1093  186.9636 C   0  0  0  0  0  0  0  0  0  0  0  0
  155.4316  137.1983  187.7086 C   0  0  0  0  0  0  0  0  0  0  0  0
  154.2068  136.8310  187.3421 N   0  0  0  0  0  0  0  0  0  0  0  0
  153.5852  137.3280  186.2253 C   0  0  0  0  0  0  0  0  0  0  0  0
  152.2783  136.9299  185.8884 N   0  0  0  0  0  0  0  0  0  0  0  0
  151.7707  136.0083  184.8900 C   0  0  0  0  0  0  0  0  0  0  0  0
  150.6936  135.2898  185.6705 C   0  0  0  0  0  0  0  0  0  0  0  0
  150.3756  136.1404  186.8859 C   0  0  0  0  0  0  0  0  0  0  0  0
  151.0969  137.4449  186.5580 C   0  0  0  0  0  0  0  0  0  0  0  0
  156.0691  136.6171  188.9086 C   0  0  0  0  0  0  0  0  0  0  0  0
  155.0903  135.7113  189.6771 C   0  0  0  0  0  0  0  0  0  0  0  0
  157.2450  135.7419  188.4918 C   0  0  0  0  0  0  0  0  0  0  0  0
  156.6187  137.6587  189.8478 C   0  0  0  0  0  0  0  0  0  0  0  0
  5  6  1  0  0  0
  6  1  1  0  0  0
  1  2  2  0  0  0
  1  3  1  0  0  0
  3 20  1  0  0  0
 20 21  1  0  0  0
 21 22  2  0  0  0
 22 23  1  0  0  0
 23 24  2  0  0  0
 24 25  1  0  0  0
 25 26  2  0  0  0
 26 27  1  0  0  0
 27 28  1  0  0  0
 28 29  1  0  0  0
 29 30  1  0  0  0
 30 31  1  0  0  0
 24 32  1  0  0  0
 32 33  1  0  0  0
 32 34  1  0  0  0
 32 35  1  0  0  0
  6  7  1  0  0  0
  7  8  2  0  0  0
  8  9  1  0  0  0
  9 10  2  0  0  0
 10 14  1  0  0  0
 14 16  1  0  0  0
 16 17  1  0  0  0
 16 18  2  0  0  0
 16 19  2  0  0  0
 10 11  1  0  0  0
 11 12  1  0  0  0
 11 13  2  0  0  0
 26 21  1  0  0  0
 31 27  1  0  0  0
 13  7  1  0  0  0
  3  4  1  0  0  0
 14 15  1  0  0  0
M  END
> <minimizedAffinity>
-8.29439

> <CNNscore>
0.3150089681

> <CNNaffinity>
6.6603727341

> <CNN_VS>
2.0980770588

> <CNNaffinity_variance>
0.2469086200

$$$$
[H]c1c(C(C([H])([H])[H])(C([H])([H])[H])C([H])([H])[H])nc(N2C([H])([H])C([H])([H])C([H])([H])C2([H])[H])c(C([H])([H])N([H])C(=O)C([H])(c2c([H])c([H])c(N([H])S(=O)(=O)C([H])([H])[H])c(F)c2[H])C([H])([H])[H])c1[H]


 35 37  0  0  0  0  0  0  0  0999 V2000
  154.4743  138.8586  184.6334 C   0  0  0  0  0  0  0  0  0  0  0  0
  154.3325  138.2801  183.5589 O   0  0  0  0  0  0  0  0  0  0  0  0
  155.5177  139.8429  184.7836 N   0  0  0  0  0  0  0  0  0  0  0  0
  155.6563  140.3274  185.6899 H   0  0  0  0  0  0  0  0  0  0  0  0
  152.6250  137.4787  185.5433 C   0  0  0  0  0  0  0  0  0  0  0  0
  153.6194  138.6012  185.7997 C   0  0  0  0  0  0  0  0  0  0  0  0
  154.3996  138.2405  187.0107 C   0  0  0  0  0  0  0  0  0  0  0  0
  155.5002  137.4281  186.9088 C   0  0  0  0  0  0  0  0  0  0  0  0
  156.2390  137.1178  188.0456 C   0  0  0  0  0  0  0  0  0  0  0  0
  155.8867  137.6141  189.2668 C   0  0  0  0  0  0  0  0  0  0  0  0
  154.7621  138.4452  189.3718 C   0  0  0  0  0  0  0  0  0  0  0  0
  154.4044  138.9558  190.5787 F   0  0  0  0  0  0  0  0  0  0  0  0
  154.0298  138.7529  188.2548 C   0  0  0  0  0  0  0  0  0  0  0  0
  156.6094  137.3476  190.4522 N   0  0  0  0  0  0  0  0  0  0  0  0
  157.4073  138.0277  190.6982 H   0  0  0  0  0  0  0  0  0  0  0  0
  156.3026  136.0497  191.4992 S   0  0  0  0  0  0  0  0  0  0  0  0
  156.7066  134.5017  190.7715 C   0  0  0  0  0  0  0  0  0  0  0  0
  154.8157  136.0172  191.8540 O   0  0  0  0  0  0  0  0  0  0  0  0
  157.0109  136.1889  192.8281 O   0  0  0  0  0  0  0  0  0  0  0  0
  156.3858  140.1775  183.6900 C   0  0  0  0  0  0  0  0  0  0  0  0
  157.6092  140.8312  184.1482 C   0  0  0  0  0  0  0  0  0  0  0  0
  158.0214  140.7075  185.4497 C   0  0  0  0  0  0  0  0  0  0  0  0
  159.1689  141.3933  185.8584 C   0  0  0  0  0  0  0  0  0  0  0  0
  159.8477  142.1680  184.9474 C   0  0  0  0  0  0  0  0  0  0  0  0
  159.4212  142.2690  183.6915 N   0  0  0  0  0  0  0  0  0  0  0  0
  158.3045  141.6192  183.2318 C   0  0  0  0  0  0  0  0  0  0  0  0
  157.9032  141.7348  181.8880 N   0  0  0  0  0  0  0  0  0  0  0  0
  156.9857  142.6402  181.2230 C   0  0  0  0  0  0  0  0  0  0  0  0
  157.7491  142.9590  179.9576 C   0  0  0  0  0  0  0  0  0  0  0  0
  158.8153  141.8920  179.7947 C   0  0  0  0  0  0  0  0  0  0  0  0
  158.3940  140.8602  180.8376 C   0  0  0  0  0  0  0  0  0  0  0  0
  161.0445  142.9063  185.4023 C   0  0  0  0  0  0  0  0  0  0  0  0
  162.3367  142.2408  184.8958 C   0  0  0  0  0  0  0  0  0  0  0  0
  161.0234  144.3192  184.8315 C   0  0  0  0  0  0  0  0  0  0  0  0
  161.1166  143.0477  186.9003 C   0  0  0  0  0  0  0  0  0  0  0  0
  5  6  1  0  0  0
  6  1  1  0  0  0
  1  2  2  0  0  0
  1  3  1  0  0  0
  3 20  1  0  0  0
 20 21  1  0  0  0
 21 22  2  0  0  0
 22 23  1  0  0  0
 23 24  2  0  0  0
 24 25  1  0  0  0
 25 26  2  0  0  0
 26 27  1  0  0  0
 27 28  1  0  0  0
 28 29  1  0  0  0
 29 30  1  0  0  0
 30 31  1  0  0  0
 24 32  1  0  0  0
 32 33  1  0  0  0
 32 34  1  0  0  0
 32 35  1  0  0  0
  6  7  1  0  0  0
  7  8  2  0  0  0
  8  9  1  0  0  0
  9 10  2  0  0  0
 10 14  1  0  0  0
 14 16  1  0  0  0
 16 17  1  0  0  0
 16 18  2  0  0  0
 16 19  2  0  0  0
 10 11  1  0  0  0
 11 12  1  0  0  0
 11 13  2  0  0  0
 26 21  1  0  0  0
 31 27  1  0  0  0
 13  7  1  0  0  0
  3  4  1  0  0  0
 14 15  1  0  0  0
M  END
> <minimizedAffinity>
-9.08432

> <CNNscore>
0.3122123778

> <CNNaffinity>
6.8223838806

> <CNN_VS>
2.1300327778

> <CNNaffinity_variance>
0.0870858654

$$$$
[H]c1c(C(C([H])([H])[H])(C([H])([H])[H])C([H])([H])[H])nc(N2C([H])([H])C([H])([H])C([H])([H])C2([H])[H])c(C([H])([H])N([H])C(=O)C([H])(c2c([H])c([H])c(N([H])S(=O)(=O)C([H])([H])[H])c(F)c2[H])C([H])([H])[H])c1[H]


 35 37  0  0  0  0  0  0  0  0999 V2000
  154.1328  137.1637  188.2511 C   0  0  0  0  0  0  0  0  0  0  0  0
  152.9560  137.4694  188.0748 O   0  0  0  0  0  0  0  0  0  0  0  0
  154.9186  136.6759  187.1444 N   0  0  0  0  0  0  0  0  0  0  0  0
  155.9088  136.4012  187.2840 H   0  0  0  0  0  0  0  0  0  0  0  0
  154.9892  138.7204  189.9817 C   0  0  0  0  0  0  0  0  0  0  0  0
  154.8012  137.2724  189.5546 C   0  0  0  0  0  0  0  0  0  0  0  0
  154.0574  136.5791  190.6368 C   0  0  0  0  0  0  0  0  0  0  0  0
  154.0706  135.2098  190.7188 C   0  0  0  0  0  0  0  0  0  0  0  0
  153.3920  134.5718  191.7518 C   0  0  0  0  0  0  0  0  0  0  0  0
  152.7126  135.2901  192.6922 C   0  0  0  0  0  0  0  0  0  0  0  0
  152.6993  136.6899  192.6096 C   0  0  0  0  0  0  0  0  0  0  0  0
  152.0364  137.4199  193.5439 F   0  0  0  0  0  0  0  0  0  0  0  0
  153.3652  137.3235  191.5927 C   0  0  0  0  0  0  0  0  0  0  0  0
  152.0210  134.6975  193.7732 N   0  0  0  0  0  0  0  0  0  0  0  0
  152.6000  134.4621  194.6501 H   0  0  0  0  0  0  0  0  0  0  0  0
  150.3627  134.3438  193.7812 S   0  0  0  0  0  0  0  0  0  0  0  0
  149.9741  133.0143  194.8630 C   0  0  0  0  0  0  0  0  0  0  0  0
  149.9180  133.9382  192.3756 O   0  0  0  0  0  0  0  0  0  0  0  0
  149.5091  135.5447  194.1218 O   0  0  0  0  0  0  0  0  0  0  0  0
  154.3561  136.5597  185.8285 C   0  0  0  0  0  0  0  0  0  0  0  0
  154.5338  137.7842  185.0520 C   0  0  0  0  0  0  0  0  0  0  0  0
  155.4781  138.7095  185.4140 C   0  0  0  0  0  0  0  0  0  0  0  0
  155.5780  139.8915  184.6743 C   0  0  0  0  0  0  0  0  0  0  0  0
  154.7304  140.0904  183.6099 C   0  0  0  0  0  0  0  0  0  0  0  0
  153.8231  139.1736  183.2846 N   0  0  0  0  0  0  0  0  0  0  0  0
  153.6789  137.9951  183.9708 C   0  0  0  0  0  0  0  0  0  0  0  0
  152.7217  137.0420  183.5767 N   0  0  0  0  0  0  0  0  0  0  0  0
  152.8154  135.8590  182.7426 C   0  0  0  0  0  0  0  0  0  0  0  0
  151.9761  134.8763  183.5270 C   0  0  0  0  0  0  0  0  0  0  0  0
  151.1250  135.6810  184.4913 C   0  0  0  0  0  0  0  0  0  0  0  0
  151.3286  137.1053  183.9820 C   0  0  0  0  0  0  0  0  0  0  0  0
  154.8324  141.3562  182.8539 C   0  0  0  0  0  0  0  0  0  0  0  0
  153.5689  141.6062  182.0111 C   0  0  0  0  0  0  0  0  0  0  0  0
  154.9534  142.5250  183.8243 C   0  0  0  0  0  0  0  0  0  0  0  0
  156.0422  141.4127  181.9582 C   0  0  0  0  0  0  0  0  0  0  0  0
  5  6  1  0  0  0
  6  1  1  0  0  0
  1  2  2  0  0  0
  1  3  1  0  0  0
  3 20  1  0  0  0
 20 21  1  0  0  0
 21 22  2  0  0  0
 22 23  1  0  0  0
 23 24  2  0  0  0
 24 25  1  0  0  0
 25 26  2  0  0  0
 26 27  1  0  0  0
 27 28  1  0  0  0
 28 29  1  0  0  0
 29 30  1  0  0  0
 30 31  1  0  0  0
 24 32  1  0  0  0
 32 33  1  0  0  0
 32 34  1  0  0  0
 32 35  1  0  0  0
  6  7  1  0  0  0
  7  8  2  0  0  0
  8  9  1  0  0  0
  9 10  2  0  0  0
 10 14  1  0  0  0
 14 16  1  0  0  0
 16 17  1  0  0  0
 16 18  2  0  0  0
 16 19  2  0  0  0
 10 11  1  0  0  0
 11 12  1  0  0  0
 11 13  2  0  0  0
 26 21  1  0  0  0
 31 27  1  0  0  0
 13  7  1  0  0  0
  3  4  1  0  0  0
 14 15  1  0  0  0
M  END
> <minimizedAffinity>
-6.61165

> <CNNscore>
0.2919360995

> <CNNaffinity>
5.8984012604

> <CNN_VS>
1.7219562531

> <CNNaffinity_variance>
0.1284867227

$$$$
[H]c1c(C(F)(F)F)nc(-c2c([H])c([H])c(F)c(F)c2[H])c(C([H])([H])N([H])C(=O)C([H])(c2c([H])c([H])c(N([H])S(=O)(=O)C([H])([H])[H])c(F)c2[H])C([H])([H])[H])c1[H]


 38 40  0  0  0  0  0  0  0  0999 V2000
  156.4288  139.4260  184.6633 C   0  0  0  0  0  0  0  0  0  0  0  0
  156.1053  140.6210  184.6030 O   0  0  0  0  0  0  0  0  0  0  0  0
  157.7366  138.9776  184.4160 N   0  0  0  0  0  0  0  0  0  0  0  0
  157.8499  137.8992  184.5229 H   0  0  0  0  0  0  0  0  0  0  0  0
  154.2238  138.6070  184.1580 C   0  0  0  0  0  0  0  0  0  0  0  0
  155.4083  138.3830  185.0330 C   0  0  0  0  0  0  0  0  0  0  0  0
  155.0721  138.3564  186.4644 C   0  0  0  0  0  0  0  0  0  0  0  0
  153.8300  138.6079  186.9918 C   0  0  0  0  0  0  0  0  0  0  0  0
  153.5666  138.5194  188.3653 C   0  0  0  0  0  0  0  0  0  0  0  0
  154.6539  138.1637  189.1691 C   0  0  0  0  0  0  0  0  0  0  0  0
  155.9130  137.9154  188.6569 C   0  0  0  0  0  0  0  0  0  0  0  0
  156.9362  137.5785  189.5056 F   0  0  0  0  0  0  0  0  0  0  0  0
  156.1324  138.0058  187.3203 C   0  0  0  0  0  0  0  0  0  0  0  0
  154.4237  137.9837  190.5447 N   0  0  0  0  0  0  0  0  0  0  0  0
  154.5611  138.8448  191.1408 H   0  0  0  0  0  0  0  0  0  0  0  0
  153.9402  136.5026  191.2517 S   0  0  0  0  0  0  0  0  0  0  0  0
  155.4097  135.6243  191.7411 C   0  0  0  0  0  0  0  0  0  0  0  0
  153.1489  135.6510  190.2585 O   0  0  0  0  0  0  0  0  0  0  0  0
  153.1142  136.6858  192.4942 O   0  0  0  0  0  0  0  0  0  0  0  0
  158.9123  139.6913  184.0597 C   0  0  0  0  0  0  0  0  0  0  0  0
  158.9026  140.5903  182.9221 C   0  0  0  0  0  0  0  0  0  0  0  0
  158.3892  140.2398  181.7096 C   0  0  0  0  0  0  0  0  0  0  0  0
  158.4461  141.1696  180.6929 C   0  0  0  0  0  0  0  0  0  0  0  0
  159.0015  142.3873  180.9162 C   0  0  0  0  0  0  0  0  0  0  0  0
  159.5098  142.7197  182.1474 N   0  0  0  0  0  0  0  0  0  0  0  0
  159.4760  141.8583  183.1446 C   0  0  0  0  0  0  0  0  0  0  0  0
  160.1150  142.1934  184.4157 C   0  0  0  0  0  0  0  0  0  0  0  0
  159.5040  142.4608  185.5847 C   0  0  0  0  0  0  0  0  0  0  0  0
  160.2616  142.6519  186.7274 C   0  0  0  0  0  0  0  0  0  0  0  0
  161.6335  142.5796  186.7027 C   0  0  0  0  0  0  0  0  0  0  0  0
  162.3972  142.7521  187.7975 F   0  0  0  0  0  0  0  0  0  0  0  0
  162.2703  142.3095  185.5191 C   0  0  0  0  0  0  0  0  0  0  0  0
  163.6330  142.2267  185.4538 F   0  0  0  0  0  0  0  0  0  0  0  0
  161.5165  142.1224  184.3978 C   0  0  0  0  0  0  0  0  0  0  0  0
  159.1172  143.4280  179.8928 C   0  0  0  0  0  0  0  0  0  0  0  0
  158.9897  144.6646  180.5389 F   0  0  0  0  0  0  0  0  0  0  0  0
  160.3721  143.3891  179.2760 F   0  0  0  0  0  0  0  0  0  0  0  0
  158.1808  143.2437  178.9273 F   0  0  0  0  0  0  0  0  0  0  0  0
  5  6  1  0  0  0
  6  1  1  0  0  0
  1  2  2  0  0  0
  1  3  1  0  0  0
  3 20  1  0  0  0
 20 21  1  0  0  0
 21 22  2  0  0  0
 22 23  1  0  0  0
 23 24  2  0  0  0
 24 25  1  0  0  0
 25 26  2  0  0  0
 26 27  1  0  0  0
 27 28  2  0  0  0
 28 29  1  0  0  0
 29 30  2  0  0  0
 30 31  1  0  0  0
 30 32  1  0  0  0
 32 33  1  0  0  0
 32 34  2  0  0  0
 24 35  1  0  0  0
 35 36  1  0  0  0
 35 37  1  0  0  0
 35 38  1  0  0  0
  6  7  1  0  0  0
  7  8  2  0  0  0
  8  9  1  0  0  0
  9 10  2  0  0  0
 10 14  1  0  0  0
 14 16  1  0  0  0
 16 17  1  0  0  0
 16 18  2  0  0  0
 16 19  2  0  0  0
 10 11  1  0  0  0
 11 12  1  0  0  0
 11 13  2  0  0  0
 26 21  1  0  0  0
 34 27  1  0  0  0
 13  7  1  0  0  0
  3  4  1  0  0  0
 14 15  1  0  0  0
M  END
> <minimizedAffinity>
-10.34820

> <CNNscore>
0.5328230262

> <CNNaffinity>
7.2000031471

> <CNN_VS>
3.8363275528

> <CNNaffinity_variance>
0.0580888577

$$$$
[H]c1c(C(F)(F)F)nc(-c2c([H])c([H])c(F)c(F)c2[H])c(C([H])([H])N([H])C(=O)C([H])(c2c([H])c([H])c(N([H])S(=O)(=O)C([H])([H])[H])c(F)c2[H])C([H])([H])[H])c1[H]


 38 40  0  0  0  0  0  0  0  0999 V2000
  156.2146  142.7103  181.9668 C   0  0  0  0  0  0  0  0  0  0  0  0
  155.7016  143.6685  182.5623 O   0  0  0  0  0  0  0  0  0  0  0  0
  155.5512  141.4868  181.7787 N   0  0  0  0  0  0  0  0  0  0  0  0
  156.1415  140.7570  181.2253 H   0  0  0  0  0  0  0  0  0  0  0  0
  157.7039  141.8213  180.2995 C   0  0  0  0  0  0  0  0  0  0  0  0
  157.5996  142.8314  181.3893 C   0  0  0  0  0  0  0  0  0  0  0  0
  158.6749  142.7186  182.3860 C   0  0  0  0  0  0  0  0  0  0  0  0
  159.2083  141.5408  182.8470 C   0  0  0  0  0  0  0  0  0  0  0  0
  160.2666  141.5054  183.7649 C   0  0  0  0  0  0  0  0  0  0  0  0
  160.7430  142.7497  184.1886 C   0  0  0  0  0  0  0  0  0  0  0  0
  160.2128  143.9451  183.7422 C   0  0  0  0  0  0  0  0  0  0  0  0
  160.7247  145.1296  184.2066 F   0  0  0  0  0  0  0  0  0  0  0  0
  159.1905  143.9432  182.8491 C   0  0  0  0  0  0  0  0  0  0  0  0
  161.8559  142.7697  185.0482 N   0  0  0  0  0  0  0  0  0  0  0  0
  162.7915  142.6352  184.5768 H   0  0  0  0  0  0  0  0  0  0  0  0
  161.7585  143.0060  186.7399 S   0  0  0  0  0  0  0  0  0  0  0  0
  163.2477  142.3580  187.4697 C   0  0  0  0  0  0  0  0  0  0  0  0
  160.5489  142.2792  187.3284 O   0  0  0  0  0  0  0  0  0  0  0  0
  161.6846  144.4564  187.1281 O   0  0  0  0  0  0  0  0  0  0  0  0
  154.2583  141.0585  182.1834 C   0  0  0  0  0  0  0  0  0  0  0  0
  154.1142  139.9642  183.1236 C   0  0  0  0  0  0  0  0  0  0  0  0
  154.9809  139.7590  184.1549 C   0  0  0  0  0  0  0  0  0  0  0  0
  154.7561  138.6770  184.9796 C   0  0  0  0  0  0  0  0  0  0  0  0
  153.7000  137.8563  184.7509 C   0  0  0  0  0  0  0  0  0  0  0  0
  152.8378  138.0845  183.7072 N   0  0  0  0  0  0  0  0  0  0  0  0
  153.0193  139.1069  182.8952 C   0  0  0  0  0  0  0  0  0  0  0  0
  152.1520  139.2721  181.7304 C   0  0  0  0  0  0  0  0  0  0  0  0
  152.5197  139.6538  180.4932 C   0  0  0  0  0  0  0  0  0  0  0  0
  151.5880  139.6538  179.4694 C   0  0  0  0  0  0  0  0  0  0  0  0
  150.2843  139.2752  179.6817 C   0  0  0  0  0  0  0  0  0  0  0  0
  149.3576  139.2565  178.7058 F   0  0  0  0  0  0  0  0  0  0  0  0
  149.8943  138.8853  180.9368 C   0  0  0  0  0  0  0  0  0  0  0  0
  148.6075  138.4992  181.1878 F   0  0  0  0  0  0  0  0  0  0  0  0
  150.8185  138.8880  181.9400 C   0  0  0  0  0  0  0  0  0  0  0  0
  153.3945  136.6785  185.5652 C   0  0  0  0  0  0  0  0  0  0  0  0
  152.2551  136.9792  186.3230 F   0  0  0  0  0  0  0  0  0  0  0  0
  153.0998  135.5733  184.7600 F   0  0  0  0  0  0  0  0  0  0  0  0
  154.4629  136.3501  186.3357 F   0  0  0  0  0  0  0  0  0  0  0  0
  5  6  1  0  0  0
  6  1  1  0  0  0
  1  2  2  0  0  0
  1  3  1  0  0  0
  3 20  1  0  0  0
 20 21  1  0  0  0
 21 22  2  0  0  0
 22 23  1  0  0  0
 23 24  2  0  0  0
 24 25  1  0  0  0
 25 26  2  0  0  0
 26 27  1  0  0  0
 27 28  2  0  0  0
 28 29  1  0  0  0
 29 30  2  0  0  0
 30 31  1  0  0  0
 30 32  1  0  0  0
 32 33  1  0  0  0
 32 34  2  0  0  0
 24 35  1  0  0  0
 35 36  1  0  0  0
 35 37  1  0  0  0
 35 38  1  0  0  0
  6  7  1  0  0  0
  7  8  2  0  0  0
  8  9  1  0  0  0
  9 10  2  0  0  0
 10 14  1  0  0  0
 14 16  1  0  0  0
 16 17  1  0  0  0
 16 18  2  0  0  0
 16 19  2  0  0  0
 10 11  1  0  0  0
 11 12  1  0  0  0
 11 13  2  0  0  0
 26 21  1  0  0  0
 34 27  1  0  0  0
 13  7  1  0  0  0
  3  4  1  0  0  0
 14 15  1  0  0  0
M  END
> <minimizedAffinity>
-9.55014

> <CNNscore>
0.5232090950

> <CNNaffinity>
7.1860985756

> <CNN_VS>
3.7598321438

> <CNNaffinity_variance>
0.0421058834

$$$$
[H]c1c(C(F)(F)F)nc(-c2c([H])c([H])c(F)c(F)c2[H])c(C([H])([H])N([H])C(=O)C([H])(c2c([H])c([H])c(N([H])S(=O)(=O)C([H])([H])[H])c(F)c2[H])C([H])([H])[H])c1[H]


 38 40  0  0  0  0  0  0  0  0999 V2000
  154.2188  136.5542  184.7802 C   0  0  0  0  0  0  0  0  0  0  0  0
  154.2697  135.5309  184.0828 O   0  0  0  0  0  0  0  0  0  0  0  0
  154.3552  136.5309  186.1778 N   0  0  0  0  0  0  0  0  0  0  0  0
  154.2967  137.5191  186.6332 H   0  0  0  0  0  0  0  0  0  0  0  0
  154.2180  138.9228  185.2019 C   0  0  0  0  0  0  0  0  0  0  0  0
  154.0228  137.9006  184.1361 C   0  0  0  0  0  0  0  0  0  0  0  0
  152.7427  138.0433  183.4266 C   0  0  0  0  0  0  0  0  0  0  0  0
  151.5995  137.3360  183.7039 C   0  0  0  0  0  0  0  0  0  0  0  0
  150.3971  137.5552  183.0182 C   0  0  0  0  0  0  0  0  0  0  0  0
  150.4365  138.5388  182.0254 C   0  0  0  0  0  0  0  0  0  0  0  0
  151.5801  139.2545  181.7266 C   0  0  0  0  0  0  0  0  0  0  0  0
  151.5484  140.2003  180.7339 F   0  0  0  0  0  0  0  0  0  0  0  0
  152.7271  139.0200  182.4138 C   0  0  0  0  0  0  0  0  0  0  0  0
  149.2365  138.8526  181.3626 N   0  0  0  0  0  0  0  0  0  0  0  0
  148.6100  139.5381  181.8658 H   0  0  0  0  0  0  0  0  0  0  0  0
  148.7823  138.2101  179.8433 S   0  0  0  0  0  0  0  0  0  0  0  0
  147.0342  138.4778  179.6363 C   0  0  0  0  0  0  0  0  0  0  0  0
  149.0770  136.7117  179.7689 O   0  0  0  0  0  0  0  0  0  0  0  0
  149.4620  138.8925  178.6891 O   0  0  0  0  0  0  0  0  0  0  0  0
  154.5568  135.4472  187.0743 C   0  0  0  0  0  0  0  0  0  0  0  0
  155.8743  134.8607  187.2242 C   0  0  0  0  0  0  0  0  0  0  0  0
  156.3294  133.8556  186.4245 C   0  0  0  0  0  0  0  0  0  0  0  0
  157.5941  133.3624  186.6665 C   0  0  0  0  0  0  0  0  0  0  0  0
  158.3423  133.8765  187.6750 C   0  0  0  0  0  0  0  0  0  0  0  0
  157.8642  134.8916  188.4661 N   0  0  0  0  0  0  0  0  0  0  0  0
  156.6597  135.3891  188.2682 C   0  0  0  0  0  0  0  0  0  0  0  0
  156.1301  136.3962  189.1856 C   0  0  0  0  0  0  0  0  0  0  0  0
  155.9981  137.7153  188.9532 C   0  0  0  0  0  0  0  0  0  0  0  0
  155.3722  138.5183  189.8910 C   0  0  0  0  0  0  0  0  0  0  0  0
  154.8799  138.0040  191.0663 C   0  0  0  0  0  0  0  0  0  0  0  0
  154.2593  138.7568  191.9935 F   0  0  0  0  0  0  0  0  0  0  0  0
  155.0082  136.6626  191.3179 C   0  0  0  0  0  0  0  0  0  0  0  0
  154.5293  136.1124  192.4737 F   0  0  0  0  0  0  0  0  0  0  0  0
  155.6260  135.8782  190.3886 C   0  0  0  0  0  0  0  0  0  0  0  0
  159.6867  133.4046  188.0119 C   0  0  0  0  0  0  0  0  0  0  0  0
  160.5903  134.3966  187.6089 F   0  0  0  0  0  0  0  0  0  0  0  0
  159.8260  133.2271  189.3924 F   0  0  0  0  0  0  0  0  0  0  0  0
  159.9266  132.2071  187.4192 F   0  0  0  0  0  0  0  0  0  0  0  0
  5  6  1  0  0  0
  6  1  1  0  0  0
  1  2  2  0  0  0
  1  3  1  0  0  0
  3 20  1  0  0  0
 20 21  1  0  0  0
 21 22  2  0  0  0
 22 23  1  0  0  0
 23 24  2  0  0  0
 24 25  1  0  0  0
 25 26  2  0  0  0
 26 27  1  0  0  0
 27 28  2  0  0  0
 28 29  1  0  0  0
 29 30  2  0  0  0
 30 31  1  0  0  0
 30 32  1  0  0  0
 32 33  1  0  0  0
 32 34  2  0  0  0
 24 35  1  0  0  0
 35 36  1  0  0  0
 35 37  1  0  0  0
 35 38  1  0  0  0
  6  7  1  0  0  0
  7  8  2  0  0  0
  8  9  1  0  0  0
  9 10  2  0  0  0
 10 14  1  0  0  0
 14 16  1  0  0  0
 16 17  1  0  0  0
 16 18  2  0  0  0
 16 19  2  0  0  0
 10 11  1  0  0  0
 11 12  1  0  0  0
 11 13  2  0  0  0
 26 21  1  0  0  0
 34 27  1  0  0  0
 13  7  1  0  0  0
  3  4  1  0  0  0
 14 15  1  0  0  0
M  END
> <minimizedAffinity>
-7.55696

> <CNNscore>
0.5179784298

> <CNNaffinity>
6.0556912422

> <CNN_VS>
3.1367175579

> <CNNaffinity_variance>
0.1174486130

$$$$
[H]c1c(C(F)(F)F)nc(-c2c([H])c([H])c(F)c(F)c2[H])c(C([H])([H])N([H])C(=O)C([H])(c2c([H])c([H])c(N([H])S(=O)(=O)C([H])([H])[H])c(F)c2[H])C([H])([H])[H])c1[H]


 38 40  0  0  0  0  0  0  0  0999 V2000
  153.8108  137.7687  186.1407 C   0  0  0  0  0  0  0  0  0  0  0  0
  153.5998  138.4540  187.1516 O   0  0  0  0  0  0  0  0  0  0  0  0
  154.2638  136.4408  186.2016 N   0  0  0  0  0  0  0  0  0  0  0  0
  154.3864  135.9817  185.2211 H   0  0  0  0  0  0  0  0  0  0  0  0
  153.4819  137.1936  183.8279 C   0  0  0  0  0  0  0  0  0  0  0  0
  153.5642  138.3434  184.7713 C   0  0  0  0  0  0  0  0  0  0  0  0
  154.5480  139.3569  184.3621 C   0  0  0  0  0  0  0  0  0  0  0  0
  155.8758  139.3587  184.7101 C   0  0  0  0  0  0  0  0  0  0  0  0
  156.7713  140.3315  184.2459 C   0  0  0  0  0  0  0  0  0  0  0  0
  156.2244  141.3079  183.4081 C   0  0  0  0  0  0  0  0  0  0  0  0
  154.8889  141.3270  183.0541 C   0  0  0  0  0  0  0  0  0  0  0  0
  154.4187  142.3203  182.2337 F   0  0  0  0  0  0  0  0  0  0  0  0
  154.0495  140.3664  183.5182 C   0  0  0  0  0  0  0  0  0  0  0  0
  157.0966  142.2605  182.8516 N   0  0  0  0  0  0  0  0  0  0  0  0
  156.9495  143.2530  183.1819 H   0  0  0  0  0  0  0  0  0  0  0  0
  158.3330  141.8901  181.7285 S   0  0  0  0  0  0  0  0  0  0  0  0
  158.6300  143.3427  180.7426 C   0  0  0  0  0  0  0  0  0  0  0  0
  157.9196  140.7351  180.8159 O   0  0  0  0  0  0  0  0  0  0  0  0
  159.6392  141.5411  182.3853 O   0  0  0  0  0  0  0  0  0  0  0  0
  154.5778  135.6158  187.3150 C   0  0  0  0  0  0  0  0  0  0  0  0
  155.9153  135.0773  187.4689 C   0  0  0  0  0  0  0  0  0  0  0  0
  156.4222  134.1157  186.6472 C   0  0  0  0  0  0  0  0  0  0  0  0
  157.7018  133.6656  186.8951 C   0  0  0  0  0  0  0  0  0  0  0  0
  158.4134  134.1779  187.9307 C   0  0  0  0  0  0  0  0  0  0  0  0
  157.8832  135.1487  188.7438 N   0  0  0  0  0  0  0  0  0  0  0  0
  156.6630  135.6042  188.5410 C   0  0  0  0  0  0  0  0  0  0  0  0
  156.0798  136.5613  189.4792 C   0  0  0  0  0  0  0  0  0  0  0  0
  156.0632  137.9022  189.3643 C   0  0  0  0  0  0  0  0  0  0  0  0
  155.3691  138.6620  190.2901 C   0  0  0  0  0  0  0  0  0  0  0  0
  154.6927  138.0821  191.3361 C   0  0  0  0  0  0  0  0  0  0  0  0
  154.0022  138.7926  192.2472 F   0  0  0  0  0  0  0  0  0  0  0  0
  154.7016  136.7176  191.4673 C   0  0  0  0  0  0  0  0  0  0  0  0
  154.0388  136.1028  192.4923 F   0  0  0  0  0  0  0  0  0  0  0  0
  155.3877  135.9761  190.5508 C   0  0  0  0  0  0  0  0  0  0  0  0
  159.7702  133.7493  188.2754 C   0  0  0  0  0  0  0  0  0  0  0  0
  160.6005  134.8735  188.1774 F   0  0  0  0  0  0  0  0  0  0  0  0
  159.8301  133.2802  189.5919 F   0  0  0  0  0  0  0  0  0  0  0  0
  160.1639  132.7363  187.4619 F   0  0  0  0  0  0  0  0  0  0  0  0
  5  6  1  0  0  0
  6  1  1  0  0  0
  1  2  2  0  0  0
  1  3  1  0  0  0
  3 20  1  0  0  0
 20 21  1  0  0  0
 21 22  2  0  0  0
 22 23  1  0  0  0
 23 24  2  0  0  0
 24 25  1  0  0  0
 25 26  2  0  0  0
 26 27  1  0  0  0
 27 28  2  0  0  0
 28 29  1  0  0  0
 29 30  2  0  0  0
 30 31  1  0  0  0
 30 32  1  0  0  0
 32 33  1  0  0  0
 32 34  2  0  0  0
 24 35  1  0  0  0
 35 36  1  0  0  0
 35 37  1  0  0  0
 35 38  1  0  0  0
  6  7  1  0  0  0
  7  8  2  0  0  0
  8  9  1  0  0  0
  9 10  2  0  0  0
 10 14  1  0  0  0
 14 16  1  0  0  0
 16 17  1  0  0  0
 16 18  2  0  0  0
 16 19  2  0  0  0
 10 11  1  0  0  0
 11 12  1  0  0  0
 11 13  2  0  0  0
 26 21  1  0  0  0
 34 27  1  0  0  0
 13  7  1  0  0  0
  3  4  1  0  0  0
 14 15  1  0  0  0
M  END
> <minimizedAffinity>
-8.76173

> <CNNscore>
0.4779453874

> <CNNaffinity>
6.5709266663

> <CNN_VS>
3.1405441761

> <CNNaffinity_variance>
0.1633591652

$$$$
[H]c1c(C(F)(F)F)nc(-c2c([H])c([H])c(F)c(F)c2[H])c(C([H])([H])N([H])C(=O)C([H])(c2c([H])c([H])c(N([H])S(=O)(=O)C([H])([H])[H])c(F)c2[H])C([H])([H])[H])c1[H]


 38 40  0  0  0  0  0  0  0  0999 V2000
  154.8152  138.4195  184.8585 C   0  0  0  0  0  0  0  0  0  0  0  0
  154.2050  137.5331  184.2437 O   0  0  0  0  0  0  0  0  0  0  0  0
  155.4882  138.1822  186.0681 N   0  0  0  0  0  0  0  0  0  0  0  0
  155.9812  139.0678  186.4681 H   0  0  0  0  0  0  0  0  0  0  0  0
  154.1625  139.8003  182.9996 C   0  0  0  0  0  0  0  0  0  0  0  0
  154.8762  139.8189  184.3069 C   0  0  0  0  0  0  0  0  0  0  0  0
  156.2381  140.3659  184.2136 C   0  0  0  0  0  0  0  0  0  0  0  0
  157.3848  139.7041  184.5760 C   0  0  0  0  0  0  0  0  0  0  0  0
  158.6579  140.2676  184.4168 C   0  0  0  0  0  0  0  0  0  0  0  0
  158.6871  141.5539  183.8698 C   0  0  0  0  0  0  0  0  0  0  0  0
  157.5429  142.2386  183.5074 C   0  0  0  0  0  0  0  0  0  0  0  0
  157.6457  143.5018  182.9833 F   0  0  0  0  0  0  0  0  0  0  0  0
  156.3253  141.6612  183.6710 C   0  0  0  0  0  0  0  0  0  0  0  0
  159.9436  142.1322  183.6159 N   0  0  0  0  0  0  0  0  0  0  0  0
  160.2592  142.0995  182.6084 H   0  0  0  0  0  0  0  0  0  0  0  0
  160.9243  142.8621  184.8129 S   0  0  0  0  0  0  0  0  0  0  0  0
  160.1484  142.5959  186.3932 C   0  0  0  0  0  0  0  0  0  0  0  0
  161.0676  144.3642  184.5662 O   0  0  0  0  0  0  0  0  0  0  0  0
  162.2968  142.2551  184.8995 O   0  0  0  0  0  0  0  0  0  0  0  0
  155.6292  136.9952  186.8362 C   0  0  0  0  0  0  0  0  0  0  0  0
  155.0128  136.8964  188.1449 C   0  0  0  0  0  0  0  0  0  0  0  0
  154.1299  137.8213  188.6159 C   0  0  0  0  0  0  0  0  0  0  0  0
  153.6162  137.6351  189.8820 C   0  0  0  0  0  0  0  0  0  0  0  0
  153.9937  136.5586  190.6167 C   0  0  0  0  0  0  0  0  0  0  0  0
  154.8825  135.6377  190.1202 N   0  0  0  0  0  0  0  0  0  0  0  0
  155.3974  135.7807  188.9152 C   0  0  0  0  0  0  0  0  0  0  0  0
  156.4193  134.8467  188.4465 C   0  0  0  0  0  0  0  0  0  0  0  0
  156.2253  133.7284  187.7232 C   0  0  0  0  0  0  0  0  0  0  0  0
  157.3157  133.0101  187.2637 C   0  0  0  0  0  0  0  0  0  0  0  0
  158.6040  133.4071  187.5300 C   0  0  0  0  0  0  0  0  0  0  0  0
  159.6844  132.7354  187.0905 F   0  0  0  0  0  0  0  0  0  0  0  0
  158.8177  134.5432  188.2667 C   0  0  0  0  0  0  0  0  0  0  0  0
  160.0838  134.9725  188.5506 F   0  0  0  0  0  0  0  0  0  0  0  0
  157.7378  135.2453  188.7157 C   0  0  0  0  0  0  0  0  0  0  0  0
  153.5110  136.2903  191.9727 C   0  0  0  0  0  0  0  0  0  0  0  0
  152.5651  135.2607  191.8829 F   0  0  0  0  0  0  0  0  0  0  0  0
  154.5511  135.8519  192.7990 F   0  0  0  0  0  0  0  0  0  0  0  0
  153.0011  137.4220  192.5225 F   0  0  0  0  0  0  0  0  0  0  0  0
  5  6  1  0  0  0
  6  1  1  0  0  0
  1  2  2  0  0  0
  1  3  1  0  0  0
  3 20  1  0  0  0
 20 21  1  0  0  0
 21 22  2  0  0  0
 22 23  1  0  0  0
 23 24  2  0  0  0
 24 25  1  0  0  0
 25 26  2  0  0  0
 26 27  1  0  0  0
 27 28  2  0  0  0
 28 29  1  0  0  0
 29 30  2  0  0  0
 30 31  1  0  0  0
 30 32  1  0  0  0
 32 33  1  0  0  0
 32 34  2  0  0  0
 24 35  1  0  0  0
 35 36  1  0  0  0
 35 37  1  0  0  0
 35 38  1  0  0  0
  6  7  1  0  0  0
  7  8  2  0  0  0
  8  9  1  0  0  0
  9 10  2  0  0  0
 10 14  1  0  0  0
 14 16  1  0  0  0
 16 17  1  0  0  0
 16 18  2  0  0  0
 16 19  2  0  0  0
 10 11  1  0  0  0
 11 12  1  0  0  0
 11 13  2  0  0  0
 26 21  1  0  0  0
 34 27  1  0  0  0
 13  7  1  0  0  0
  3  4  1  0  0  0
 14 15  1  0  0  0
M  END
> <minimizedAffinity>
-8.69662

> <CNNscore>
0.3775961399

> <CNNaffinity>
6.8162908554

> <CNN_VS>
2.5738050938

> <CNNaffinity_variance>
0.0689205378

$$$$
[H]c1c(C(F)(F)F)nc(-c2c([H])c([H])c(F)c(F)c2[H])c(C([H])([H])N([H])C(=O)C([H])(c2c([H])c([H])c(N([H])S(=O)(=O)C([H])([H])[H])c(F)c2[H])C([H])([H])[H])c1[H]


 38 40  0  0  0  0  0  0  0  0999 V2000
  156.5075  139.8408  184.7979 C   0  0  0  0  0  0  0  0  0  0  0  0
  156.3141  140.9970  184.3953 O   0  0  0  0  0  0  0  0  0  0  0  0
  157.7388  139.1805  184.6549 N   0  0  0  0  0  0  0  0  0  0  0  0
  157.7397  138.1746  185.0737 H   0  0  0  0  0  0  0  0  0  0  0  0
  156.0590  138.1088  186.4063 C   0  0  0  0  0  0  0  0  0  0  0  0
  155.4052  139.0863  185.4920 C   0  0  0  0  0  0  0  0  0  0  0  0
  154.4385  138.4628  184.5758 C   0  0  0  0  0  0  0  0  0  0  0  0
  154.0697  137.1408  184.5923 C   0  0  0  0  0  0  0  0  0  0  0  0
  153.1051  136.6205  183.7189 C   0  0  0  0  0  0  0  0  0  0  0  0
  152.5443  137.5343  182.8216 C   0  0  0  0  0  0  0  0  0  0  0  0
  152.9096  138.8664  182.7848 C   0  0  0  0  0  0  0  0  0  0  0  0
  152.3232  139.7055  181.8721 F   0  0  0  0  0  0  0  0  0  0  0  0
  153.8444  139.3385  183.6485 C   0  0  0  0  0  0  0  0  0  0  0  0
  151.5149  137.0802  181.9779 N   0  0  0  0  0  0  0  0  0  0  0  0
  151.8346  136.6640  181.0612 H   0  0  0  0  0  0  0  0  0  0  0  0
  149.8504  137.1590  182.3657 S   0  0  0  0  0  0  0  0  0  0  0  0
  149.2119  138.6941  181.7284 C   0  0  0  0  0  0  0  0  0  0  0  0
  149.6349  137.1106  183.8786 O   0  0  0  0  0  0  0  0  0  0  0  0
  149.0454  136.0605  181.7292 O   0  0  0  0  0  0  0  0  0  0  0  0
  158.9597  139.6073  184.0667 C   0  0  0  0  0  0  0  0  0  0  0  0
  158.9452  140.4926  182.9184 C   0  0  0  0  0  0  0  0  0  0  0  0
  158.4483  140.1194  181.7058 C   0  0  0  0  0  0  0  0  0  0  0  0
  158.4989  141.0380  180.6786 C   0  0  0  0  0  0  0  0  0  0  0  0
  159.0323  142.2672  180.8922 C   0  0  0  0  0  0  0  0  0  0  0  0
  159.5243  142.6224  182.1236 N   0  0  0  0  0  0  0  0  0  0  0  0
  159.4958  141.7723  183.1307 C   0  0  0  0  0  0  0  0  0  0  0  0
  160.1180  142.1328  184.4032 C   0  0  0  0  0  0  0  0  0  0  0  0
  159.4926  142.4017  185.5643 C   0  0  0  0  0  0  0  0  0  0  0  0
  160.2371  142.6190  186.7108 C   0  0  0  0  0  0  0  0  0  0  0  0
  161.6103  142.5715  186.6980 C   0  0  0  0  0  0  0  0  0  0  0  0
  162.3616  142.7699  187.7970 F   0  0  0  0  0  0  0  0  0  0  0  0
  162.2617  142.3003  185.5227 C   0  0  0  0  0  0  0  0  0  0  0  0
  163.6261  142.2418  185.4692 F   0  0  0  0  0  0  0  0  0  0  0  0
  161.5207  142.0873  184.3974 C   0  0  0  0  0  0  0  0  0  0  0  0
  159.1399  143.2976  179.8575 C   0  0  0  0  0  0  0  0  0  0  0  0
  158.1450  143.0386  178.9057 F   0  0  0  0  0  0  0  0  0  0  0  0
  158.9091  144.5705  180.3897 F   0  0  0  0  0  0  0  0  0  0  0  0
  160.3876  143.2978  179.3226 F   0  0  0  0  0  0  0  0  0  0  0  0
  5  6  1  0  0  0
  6  1  1  0  0  0
  1  2  2  0  0  0
  1  3  1  0  0  0
  3 20  1  0  0  0
 20 21  1  0  0  0
 21 22  2  0  0  0
 22 23  1  0  0  0
 23 24  2  0  0  0
 24 25  1  0  0  0
 25 26  2  0  0  0
 26 27  1  0  0  0
 27 28  2  0  0  0
 28 29  1  0  0  0
 29 30  2  0  0  0
 30 31  1  0  0  0
 30 32  1  0  0  0
 32 33  1  0  0  0
 32 34  2  0  0  0
 24 35  1  0  0  0
 35 36  1  0  0  0
 35 37  1  0  0  0
 35 38  1  0  0  0
  6  7  1  0  0  0
  7  8  2  0  0  0
  8  9  1  0  0  0
  9 10  2  0  0  0
 10 14  1  0  0  0
 14 16  1  0  0  0
 16 17  1  0  0  0
 16 18  2  0  0  0
 16 19  2  0  0  0
 10 11  1  0  0  0
 11 12  1  0  0  0
 11 13  2  0  0  0
 26 21  1  0  0  0
 34 27  1  0  0  0
 13  7  1  0  0  0
  3  4  1  0  0  0
 14 15  1  0  0  0
M  END
> <minimizedAffinity>
-9.87557

> <CNNscore>
0.3738482893

> <CNNaffinity>
7.0720214844

> <CNN_VS>
2.6438632011

> <CNNaffinity_variance>
0.1263448894

$$$$
[H]c1c(C(F)(F)F)nc(-c2c([H])c([H])c(F)c(F)c2[H])c(C([H])([H])N([H])C(=O)C([H])(c2c([H])c([H])c(N([H])S(=O)(=O)C([H])([H])[H])c(F)c2[H])C([H])([H])[H])c1[H]


 38 40  0  0  0  0  0  0  0  0999 V2000
  155.4842  139.0271  185.2681 C   0  0  0  0  0  0  0  0  0  0  0  0
  154.7863  139.9666  184.8604 O   0  0  0  0  0  0  0  0  0  0  0  0
  156.8776  139.1218  185.4166 N   0  0  0  0  0  0  0  0  0  0  0  0
  157.3337  138.2081  185.7965 H   0  0  0  0  0  0  0  0  0  0  0  0
  153.5316  137.6584  184.9484 C   0  0  0  0  0  0  0  0  0  0  0  0
  154.8450  137.7184  185.6487 C   0  0  0  0  0  0  0  0  0  0  0  0
  154.7359  137.5058  187.0997 C   0  0  0  0  0  0  0  0  0  0  0  0
  154.5777  138.4967  188.0364 C   0  0  0  0  0  0  0  0  0  0  0  0
  154.4329  138.2207  189.4027 C   0  0  0  0  0  0  0  0  0  0  0  0
  154.4662  136.8681  189.7545 C   0  0  0  0  0  0  0  0  0  0  0  0
  154.6334  135.8579  188.8266 C   0  0  0  0  0  0  0  0  0  0  0  0
  154.6643  134.5518  189.2440 F   0  0  0  0  0  0  0  0  0  0  0  0
  154.7663  136.1602  187.5100 C   0  0  0  0  0  0  0  0  0  0  0  0
  154.2459  136.5336  191.1026 N   0  0  0  0  0  0  0  0  0  0  0  0
  155.1153  136.4716  191.6991 H   0  0  0  0  0  0  0  0  0  0  0  0
  152.7011  136.2517  191.7818 S   0  0  0  0  0  0  0  0  0  0  0  0
  152.7541  134.6883  192.6323 C   0  0  0  0  0  0  0  0  0  0  0  0
  151.6239  136.2018  190.6979 O   0  0  0  0  0  0  0  0  0  0  0  0
  152.3099  137.2839  192.8023 O   0  0  0  0  0  0  0  0  0  0  0  0
  157.7689  140.1981  185.1594 C   0  0  0  0  0  0  0  0  0  0  0  0
  157.8606  140.7662  183.8285 C   0  0  0  0  0  0  0  0  0  0  0  0
  157.0910  140.3375  182.7890 C   0  0  0  0  0  0  0  0  0  0  0  0
  157.2728  140.9394  181.5618 C   0  0  0  0  0  0  0  0  0  0  0  0
  158.1955  141.9239  181.4181 C   0  0  0  0  0  0  0  0  0  0  0  0
  158.9577  142.3419  182.4807 N   0  0  0  0  0  0  0  0  0  0  0  0
  158.8153  141.7906  183.6695 C   0  0  0  0  0  0  0  0  0  0  0  0
  159.7072  142.1773  184.7609 C   0  0  0  0  0  0  0  0  0  0  0  0
  159.3540  142.5262  186.0119 C   0  0  0  0  0  0  0  0  0  0  0  0
  160.3333  142.7587  186.9622 C   0  0  0  0  0  0  0  0  0  0  0  0
  161.6695  142.6462  186.6622 C   0  0  0  0  0  0  0  0  0  0  0  0
  162.6446  142.8573  187.5656 F   0  0  0  0  0  0  0  0  0  0  0  0
  162.0450  142.2931  185.3919 C   0  0  0  0  0  0  0  0  0  0  0  0
  163.3635  142.1682  185.0547 F   0  0  0  0  0  0  0  0  0  0  0  0
  161.0738  142.0656  184.4615 C   0  0  0  0  0  0  0  0  0  0  0  0
  158.4651  142.6066  180.1513 C   0  0  0  0  0  0  0  0  0  0  0  0
  159.8297  142.9234  180.1301 F   0  0  0  0  0  0  0  0  0  0  0  0
  158.1978  141.7701  179.0625 F   0  0  0  0  0  0  0  0  0  0  0  0
  157.6723  143.7020  180.0299 F   0  0  0  0  0  0  0  0  0  0  0  0
  5  6  1  0  0  0
  6  1  1  0  0  0
  1  2  2  0  0  0
  1  3  1  0  0  0
  3 20  1  0  0  0
 20 21  1  0  0  0
 21 22  2  0  0  0
 22 23  1  0  0  0
 23 24  2  0  0  0
 24 25  1  0  0  0
 25 26  2  0  0  0
 26 27  1  0  0  0
 27 28  2  0  0  0
 28 29  1  0  0  0
 29 30  2  0  0  0
 30 31  1  0  0  0
 30 32  1  0  0  0
 32 33  1  0  0  0
 32 34  2  0  0  0
 24 35  1  0  0  0
 35 36  1  0  0  0
 35 37  1  0  0  0
 35 38  1  0  0  0
  6  7  1  0  0  0
  7  8  2  0  0  0
  8  9  1  0  0  0
  9 10  2  0  0  0
 10 14  1  0  0  0
 14 16  1  0  0  0
 16 17  1  0  0  0
 16 18  2  0  0  0
 16 19  2  0  0  0
 10 11  1  0  0  0
 11 12  1  0  0  0
 11 13  2  0  0  0
 26 21  1  0  0  0
 34 27  1  0  0  0
 13  7  1  0  0  0
  3  4  1  0  0  0
 14 15  1  0  0  0
M  END
> <minimizedAffinity>
-9.48560

> <CNNscore>
0.3630177677

> <CNNaffinity>
6.8900284767

> <CNN_VS>
2.5012028217

> <CNNaffinity_variance>
0.0507547371

$$$$
[H]c1c(C(F)(F)F)nc(-c2c([H])c([H])c(F)c(F)c2[H])c(C([H])([H])N([H])C(=O)C([H])(c2c([H])c([H])c(N([H])S(=O)(=O)C([H])([H])[H])c(F)c2[H])C([H])([H])[H])c1[H]


 38 40  0  0  0  0  0  0  0  0999 V2000
  153.6395  137.7159  186.2269 C   0  0  0  0  0  0  0  0  0  0  0  0
  153.5025  136.4855  186.2870 O   0  0  0  0  0  0  0  0  0  0  0  0
  153.9257  138.5062  187.3521 N   0  0  0  0  0  0  0  0  0  0  0  0
  154.0248  139.5663  187.1203 H   0  0  0  0  0  0  0  0  0  0  0  0
  153.3199  137.3795  183.8662 C   0  0  0  0  0  0  0  0  0  0  0  0
  153.5201  138.4275  184.9058 C   0  0  0  0  0  0  0  0  0  0  0  0
  154.6434  139.3288  184.6084 C   0  0  0  0  0  0  0  0  0  0  0  0
  155.9390  139.1440  185.0224 C   0  0  0  0  0  0  0  0  0  0  0  0
  156.9731  140.0190  184.6633 C   0  0  0  0  0  0  0  0  0  0  0  0
  156.6000  141.1002  183.8592 C   0  0  0  0  0  0  0  0  0  0  0  0
  155.2996  141.3070  183.4402 C   0  0  0  0  0  0  0  0  0  0  0  0
  155.0036  142.3941  182.6583 F   0  0  0  0  0  0  0  0  0  0  0  0
  154.3227  140.4369  183.8027 C   0  0  0  0  0  0  0  0  0  0  0  0
  157.6136  141.9631  183.4057 N   0  0  0  0  0  0  0  0  0  0  0  0
  157.5334  142.9638  183.7339 H   0  0  0  0  0  0  0  0  0  0  0  0
  158.9134  141.4756  182.4056 S   0  0  0  0  0  0  0  0  0  0  0  0
  160.3660  141.3348  183.4257 C   0  0  0  0  0  0  0  0  0  0  0  0
  159.1698  142.4986  181.2986 O   0  0  0  0  0  0  0  0  0  0  0  0
  158.6976  140.1280  181.7755 O   0  0  0  0  0  0  0  0  0  0  0  0
  154.1068  138.1512  188.7159 C   0  0  0  0  0  0  0  0  0  0  0  0
  155.0968  137.1582  189.0852 C   0  0  0  0  0  0  0  0  0  0  0  0
  156.3083  137.0601  188.4692 C   0  0  0  0  0  0  0  0  0  0  0  0
  157.1672  136.0676  188.8918 C   0  0  0  0  0  0  0  0  0  0  0  0
  156.7954  135.2269  189.8898 C   0  0  0  0  0  0  0  0  0  0  0  0
  155.5705  135.3466  190.4983 N   0  0  0  0  0  0  0  0  0  0  0  0
  154.7204  136.2811  190.1220 C   0  0  0  0  0  0  0  0  0  0  0  0
  153.3831  136.3259  190.7104 C   0  0  0  0  0  0  0  0  0  0  0  0
  152.2750  135.7144  190.2527 C   0  0  0  0  0  0  0  0  0  0  0  0
  151.1061  135.7679  190.9923 C   0  0  0  0  0  0  0  0  0  0  0  0
  151.0419  136.4370  192.1908 C   0  0  0  0  0  0  0  0  0  0  0  0
  149.9234  136.5001  192.9368 F   0  0  0  0  0  0  0  0  0  0  0  0
  152.1620  137.0661  192.6693 C   0  0  0  0  0  0  0  0  0  0  0  0
  152.1394  137.7397  193.8583 F   0  0  0  0  0  0  0  0  0  0  0  0
  153.3097  137.0084  191.9344 C   0  0  0  0  0  0  0  0  0  0  0  0
  157.6360  134.1379  190.3909 C   0  0  0  0  0  0  0  0  0  0  0  0
  156.9597  132.9376  190.1364 F   0  0  0  0  0  0  0  0  0  0  0  0
  158.8604  134.0965  189.7158 F   0  0  0  0  0  0  0  0  0  0  0  0
  157.9020  134.3184  191.7099 F   0  0  0  0  0  0  0  0  0  0  0  0
  5  6  1  0  0  0
  6  1  1  0  0  0
  1  2  2  0  0  0
  1  3  1  0  0  0
  3 20  1  0  0  0
 20 21  1  0  0  0
 21 22  2  0  0  0
 22 23  1  0  0  0
 23 24  2  0  0  0
 24 25  1  0  0  0
 25 26  2  0  0  0
 26 27  1  0  0  0
 27 28  2  0  0  0
 28 29  1  0  0  0
 29 30  2  0  0  0
 30 31  1  0  0  0
 30 32  1  0  0  0
 32 33  1  0  0  0
 32 34  2  0  0  0
 24 35  1  0  0  0
 35 36  1  0  0  0
 35 37  1  0  0  0
 35 38  1  0  0  0
  6  7  1  0  0  0
  7  8  2  0  0  0
  8  9  1  0  0  0
  9 10  2  0  0  0
 10 14  1  0  0  0
 14 16  1  0  0  0
 16 17  1  0  0  0
 16 18  2  0  0  0
 16 19  2  0  0  0
 10 11  1  0  0  0
 11 12  1  0  0  0
 11 13  2  0  0  0
 26 21  1  0  0  0
 34 27  1  0  0  0
 13  7  1  0  0  0
  3  4  1  0  0  0
 14 15  1  0  0  0
M  END
> <minimizedAffinity>
-8.59379

> <CNNscore>
0.3006330431

> <CNNaffinity>
6.4298467636

> <CNN_VS>
1.9330244064

> <CNNaffinity_variance>
0.0889375359

$$$$
[H]c1c(C(F)(F)F)nc(-c2c([H])c([H])c(F)c(F)c2[H])c(C([H])([H])N([H])C(=O)C([H])(c2c([H])c([H])c(N([H])S(=O)(=O)C([H])([H])[H])c(F)c2[H])C([H])([H])[H])c1[H]


 38 40  0  0  0  0  0  0  0  0999 V2000
  154.4512  138.5665  184.7758 C   0  0  0  0  0  0  0  0  0  0  0  0
  154.4490  137.5993  184.0008 O   0  0  0  0  0  0  0  0  0  0  0  0
  154.2766  138.4317  186.1628 N   0  0  0  0  0  0  0  0  0  0  0  0
  154.3167  139.3807  186.6966 H   0  0  0  0  0  0  0  0  0  0  0  0
  153.9873  140.0301  182.9235 C   0  0  0  0  0  0  0  0  0  0  0  0
  154.6663  139.9597  184.2475 C   0  0  0  0  0  0  0  0  0  0  0  0
  156.0781  140.3678  184.1948 C   0  0  0  0  0  0  0  0  0  0  0  0
  157.1409  139.6003  184.6018 C   0  0  0  0  0  0  0  0  0  0  0  0
  158.4683  140.0327  184.4802 C   0  0  0  0  0  0  0  0  0  0  0  0
  158.6431  141.3026  183.9222 C   0  0  0  0  0  0  0  0  0  0  0  0
  157.5851  142.0927  183.5150 C   0  0  0  0  0  0  0  0  0  0  0  0
  157.8300  143.3327  182.9827 F   0  0  0  0  0  0  0  0  0  0  0  0
  156.3114  141.6410  183.6431 C   0  0  0  0  0  0  0  0  0  0  0  0
  159.9585  141.7502  183.7052 N   0  0  0  0  0  0  0  0  0  0  0  0
  160.4055  141.4166  182.8082 H   0  0  0  0  0  0  0  0  0  0  0  0
  160.8136  142.7737  184.7769 S   0  0  0  0  0  0  0  0  0  0  0  0
  160.1199  142.5652  186.4034 C   0  0  0  0  0  0  0  0  0  0  0  0
  160.6878  144.2385  184.3571 O   0  0  0  0  0  0  0  0  0  0  0  0
  162.2724  142.4268  184.8833 O   0  0  0  0  0  0  0  0  0  0  0  0
  154.0640  137.2785  186.9652 C   0  0  0  0  0  0  0  0  0  0  0  0
  152.7166  136.8698  187.3115 C   0  0  0  0  0  0  0  0  0  0  0  0
  151.6699  136.9705  186.4449 C   0  0  0  0  0  0  0  0  0  0  0  0
  150.4276  136.5656  186.8857 C   0  0  0  0  0  0  0  0  0  0  0  0
  150.2768  136.0869  188.1463 C   0  0  0  0  0  0  0  0  0  0  0  0
  151.3468  135.9915  189.0012 N   0  0  0  0  0  0  0  0  0  0  0  0
  152.5501  136.3698  188.6185 C   0  0  0  0  0  0  0  0  0  0  0  0
  153.6542  136.3576  189.5762 C   0  0  0  0  0  0  0  0  0  0  0  0
  154.4441  135.3140  189.8898 C   0  0  0  0  0  0  0  0  0  0  0  0
  155.5210  135.4991  190.7396 C   0  0  0  0  0  0  0  0  0  0  0  0
  155.8084  136.7288  191.2811 C   0  0  0  0  0  0  0  0  0  0  0  0
  156.8524  136.9426  192.1032 F   0  0  0  0  0  0  0  0  0  0  0  0
  155.0121  137.8011  190.9723 C   0  0  0  0  0  0  0  0  0  0  0  0
  155.2664  139.0408  191.4883 F   0  0  0  0  0  0  0  0  0  0  0  0
  153.9530  137.6102  190.1341 C   0  0  0  0  0  0  0  0  0  0  0  0
  148.9948  135.6491  188.7017 C   0  0  0  0  0  0  0  0  0  0  0  0
  147.9865  136.1438  187.8642 F   0  0  0  0  0  0  0  0  0  0  0  0
  148.9022  134.2534  188.7132 F   0  0  0  0  0  0  0  0  0  0  0  0
  148.8669  136.0782  189.9833 F   0  0  0  0  0  0  0  0  0  0  0  0
  5  6  1  0  0  0
  6  1  1  0  0  0
  1  2  2  0  0  0
  1  3  1  0  0  0
  3 20  1  0  0  0
 20 21  1  0  0  0
 21 22  2  0  0  0
 22 23  1  0  0  0
 23 24  2  0  0  0
 24 25  1  0  0  0
 25 26  2  0  0  0
 26 27  1  0  0  0
 27 28  2  0  0  0
 28 29  1  0  0  0
 29 30  2  0  0  0
 30 31  1  0  0  0
 30 32  1  0  0  0
 32 33  1  0  0  0
 32 34  2  0  0  0
 24 35  1  0  0  0
 35 36  1  0  0  0
 35 37  1  0  0  0
 35 38  1  0  0  0
  6  7  1  0  0  0
  7  8  2  0  0  0
  8  9  1  0  0  0
  9 10  2  0  0  0
 10 14  1  0  0  0
 14 16  1  0  0  0
 16 17  1  0  0  0
 16 18  2  0  0  0
 16 19  2  0  0  0
 10 11  1  0  0  0
 11 12  1  0  0  0
 11 13  2  0  0  0
 26 21  1  0  0  0
 34 27  1  0  0  0
 13  7  1  0  0  0
  3  4  1  0  0  0
 14 15  1  0  0  0
M  END
> <minimizedAffinity>
-8.41394

> <CNNscore>
0.2948459983

> <CNNaffinity>
6.6430864334

> <CNN_VS>
1.9586874247

> <CNNaffinity_variance>
0.0881298929

$$$$
[H]c1c(C(C([H])([H])[H])(C([H])([H])[H])C([H])([H])[H])nc(N2C([H])([H])C([H])([H])C([H])(C([H])([H])[H])C([H])([H])C2([H])[H])c(C([H])([H])N([H])C(=O)C([H])(c2c([H])c([H])c(N([H])S(=O)(=O)C([H])([H])[H])c(F)c2[H])C([H])([H])[H])c1[H]


 37 39  0  0  0  0  0  0  0  0999 V2000
  154.8463  137.7657  186.2293 N   0  0  0  0  0  0  0  0  0  0  0  0
  155.2390  136.6526  186.9197 C   0  0  0  0  0  0  0  0  0  0  0  0
  154.6255  135.6085  186.7128 O   0  0  0  0  0  0  0  0  0  0  0  0
  155.5056  138.6573  186.3803 H   0  0  0  0  0  0  0  0  0  0  0  0
  156.4425  136.7869  187.8928 C   0  0  0  0  0  0  0  0  0  0  0  0
  157.2273  135.5172  187.6255 C   0  0  0  0  0  0  0  0  0  0  0  0
  155.8766  136.8159  189.2546 C   0  0  0  0  0  0  0  0  0  0  0  0
  155.2848  137.9498  189.7290 C   0  0  0  0  0  0  0  0  0  0  0  0
  154.5097  137.8754  190.9100 C   0  0  0  0  0  0  0  0  0  0  0  0
  154.3386  136.7393  191.5934 C   0  0  0  0  0  0  0  0  0  0  0  0
  154.9989  135.5914  191.0580 C   0  0  0  0  0  0  0  0  0  0  0  0
  154.8761  134.4290  191.7591 F   0  0  0  0  0  0  0  0  0  0  0  0
  155.7458  135.5891  189.9397 C   0  0  0  0  0  0  0  0  0  0  0  0
  153.4531  136.3995  192.6398 N   0  0  0  0  0  0  0  0  0  0  0  0
  153.9322  135.5244  193.2122 H   0  0  0  0  0  0  0  0  0  0  0  0
  151.9868  136.8264  193.2441 S   0  0  0  0  0  0  0  0  0  0  0  0
  150.6059  136.5897  192.1975 C   0  0  0  0  0  0  0  0  0  0  0  0
  152.0380  138.3020  193.6959 O   0  0  0  0  0  0  0  0  0  0  0  0
  151.6661  136.0111  194.5497 O   0  0  0  0  0  0  0  0  0  0  0  0
  153.8494  138.0742  185.1930 C   0  0  0  0  0  0  0  0  0  0  0  0
  154.3745  139.5024  183.2187 C   0  0  0  0  0  0  0  0  0  0  0  0
  155.3465  140.2687  182.5693 N   0  0  0  0  0  0  0  0  0  0  0  0
  156.5482  140.4646  183.1356 C   0  0  0  0  0  0  0  0  0  0  0  0
  156.9057  139.9519  184.3687 C   0  0  0  0  0  0  0  0  0  0  0  0
  155.9772  139.1887  185.0379 C   0  0  0  0  0  0  0  0  0  0  0  0
  154.7298  139.0073  184.3848 C   0  0  0  0  0  0  0  0  0  0  0  0
  150.2563  139.1056  179.4560 C   0  0  0  0  0  0  0  0  0  0  0  0
  151.0662  139.2725  180.7286 C   0  0  0  0  0  0  0  0  0  0  0  0
  152.2609  140.1872  180.5098 C   0  0  0  0  0  0  0  0  0  0  0  0
  152.7134  140.5910  181.8837 C   0  0  0  0  0  0  0  0  0  0  0  0
  153.1100  139.3643  182.6447 N   0  0  0  0  0  0  0  0  0  0  0  0
  152.1669  138.3081  182.6605 C   0  0  0  0  0  0  0  0  0  0  0  0
  151.6021  137.9668  181.2642 C   0  0  0  0  0  0  0  0  0  0  0  0
  157.7034  141.0786  182.3983 C   0  0  0  0  0  0  0  0  0  0  0  0
  158.5665  139.9421  181.9635 C   0  0  0  0  0  0  0  0  0  0  0  0
  158.4609  141.9290  183.4240 C   0  0  0  0  0  0  0  0  0  0  0  0
  157.1445  141.8974  181.2790 C   0  0  0  0  0  0  0  0  0  0  0  0
 27 28  1  0  0  0
 28 29  1  0  0  0
 29 30  1  0  0  0
 30 31  1  0  0  0
 31 32  1  0  0  0
 32 33  1  0  0  0
 31 21  1  0  0  0
 21 22  2  0  0  0
 22 23  1  0  0  0
 23 24  2  0  0  0
 24 25  1  0  0  0
 25 26  2  0  0  0
 26 20  1  0  0  0
 20  1  1  0  0  0
  1  2  1  0  0  0
  2  3  2  0  0  0
  2  5  1  0  0  0
  5  6  1  0  0  0
  5  7  1  0  0  0
  7  8  2  0  0  0
  8  9  1  0  0  0
  9 10  2  0  0  0
 10 14  1  0  0  0
 14 16  1  0  0  0
 16 17  1  0  0  0
 16 18  2  0  0  0
 16 19  2  0  0  0
 10 11  1  0  0  0
 11 12  1  0  0  0
 11 13  2  0  0  0
 23 34  1  0  0  0
 34 35  1  0  0  0
 34 36  1  0  0  0
 34 37  1  0  0  0
 33 28  1  0  0  0
 26 21  1  0  0  0
 13  7  1  0  0  0
  1  4  1  0  0  0
 14 15  1  0  0  0
M  END
> <minimizedAffinity>
-8.59541

> <CNNscore>
0.4893835783

> <CNNaffinity>
6.4231619835

> <CNN_VS>
3.1433899403

> <CNNaffinity_variance>
0.0297340397

$$$$
[H]c1c(C(C([H])([H])[H])(C([H])([H])[H])C([H])([H])[H])nc(N2C([H])([H])C([H])([H])C([H])(C([H])([H])[H])C([H])([H])C2([H])[H])c(C([H])([H])N([H])C(=O)C([H])(c2c([H])c([H])c(N([H])S(=O)(=O)C([H])([H])[H])c(F)c2[H])C([H])([H])[H])c1[H]


 37 39  0  0  0  0  0  0  0  0999 V2000
  153.8970  139.3547  184.1758 N   0  0  0  0  0  0  0  0  0  0  0  0
  154.1042  140.2994  183.2091 C   0  0  0  0  0  0  0  0  0  0  0  0
  153.8608  139.9868  182.0461 O   0  0  0  0  0  0  0  0  0  0  0  0
  154.0354  139.7283  185.2215 H   0  0  0  0  0  0  0  0  0  0  0  0
  154.6075  141.6994  183.6560 C   0  0  0  0  0  0  0  0  0  0  0  0
  153.8998  142.6294  182.6896 C   0  0  0  0  0  0  0  0  0  0  0  0
  156.0694  141.6994  183.4597 C   0  0  0  0  0  0  0  0  0  0  0  0
  156.6765  142.7381  182.8167 C   0  0  0  0  0  0  0  0  0  0  0  0
  158.0845  142.8573  182.8851 C   0  0  0  0  0  0  0  0  0  0  0  0
  158.8535  141.9865  183.5462 C   0  0  0  0  0  0  0  0  0  0  0  0
  158.1618  140.9104  184.1818 C   0  0  0  0  0  0  0  0  0  0  0  0
  158.9260  139.9844  184.8268 F   0  0  0  0  0  0  0  0  0  0  0  0
  156.8282  140.7386  184.1617 C   0  0  0  0  0  0  0  0  0  0  0  0
  160.2146  142.0340  183.9202 N   0  0  0  0  0  0  0  0  0  0  0  0
  160.7765  141.3051  183.2303 H   0  0  0  0  0  0  0  0  0  0  0  0
  161.1989  142.7522  185.0214 S   0  0  0  0  0  0  0  0  0  0  0  0
  160.7214  142.6316  186.6994 C   0  0  0  0  0  0  0  0  0  0  0  0
  161.3744  144.2397  184.6462 O   0  0  0  0  0  0  0  0  0  0  0  0
  162.6461  142.1412  184.9538 O   0  0  0  0  0  0  0  0  0  0  0  0
  153.3786  137.9791  184.2206 C   0  0  0  0  0  0  0  0  0  0  0  0
  153.0002  137.1395  186.5369 C   0  0  0  0  0  0  0  0  0  0  0  0
  153.5229  137.0286  187.8285 N   0  0  0  0  0  0  0  0  0  0  0  0
  154.7653  137.4608  188.0986 C   0  0  0  0  0  0  0  0  0  0  0  0
  155.6033  138.0207  187.1524 C   0  0  0  0  0  0  0  0  0  0  0  0
  155.1236  138.1506  185.8696 C   0  0  0  0  0  0  0  0  0  0  0  0
  153.8004  137.6866  185.6473 C   0  0  0  0  0  0  0  0  0  0  0  0
  148.2851  134.1507  186.8683 C   0  0  0  0  0  0  0  0  0  0  0  0
  149.4295  135.0342  186.4071 C   0  0  0  0  0  0  0  0  0  0  0  0
  150.7765  134.4444  186.7941 C   0  0  0  0  0  0  0  0  0  0  0  0
  151.7870  135.1629  185.9468 C   0  0  0  0  0  0  0  0  0  0  0  0
  151.7323  136.6257  186.2610 N   0  0  0  0  0  0  0  0  0  0  0  0
  150.4499  137.2247  186.2207 C   0  0  0  0  0  0  0  0  0  0  0  0
  149.3737  136.4262  186.9884 C   0  0  0  0  0  0  0  0  0  0  0  0
  155.2977  137.5798  189.4977 C   0  0  0  0  0  0  0  0  0  0  0  0
  154.5493  138.7049  190.1299 C   0  0  0  0  0  0  0  0  0  0  0  0
  156.7749  137.9651  189.3609 C   0  0  0  0  0  0  0  0  0  0  0  0
  155.1126  136.2564  190.1685 C   0  0  0  0  0  0  0  0  0  0  0  0
 27 28  1  0  0  0
 28 29  1  0  0  0
 29 30  1  0  0  0
 30 31  1  0  0  0
 31 32  1  0  0  0
 32 33  1  0  0  0
 31 21  1  0  0  0
 21 22  2  0  0  0
 22 23  1  0  0  0
 23 24  2  0  0  0
 24 25  1  0  0  0
 25 26  2  0  0  0
 26 20  1  0  0  0
 20  1  1  0  0  0
  1  2  1  0  0  0
  2  3  2  0  0  0
  2  5  1  0  0  0
  5  6  1  0  0  0
  5  7  1  0  0  0
  7  8  2  0  0  0
  8  9  1  0  0  0
  9 10  2  0  0  0
 10 14  1  0  0  0
 14 16  1  0  0  0
 16 17  1  0  0  0
 16 18  2  0  0  0
 16 19  2  0  0  0
 10 11  1  0  0  0
 11 12  1  0  0  0
 11 13  2  0  0  0
 23 34  1  0  0  0
 34 35  1  0  0  0
 34 36  1  0  0  0
 34 37  1  0  0  0
 33 28  1  0  0  0
 26 21  1  0  0  0
 13  7  1  0  0  0
  1  4  1  0  0  0
 14 15  1  0  0  0
M  END
> <minimizedAffinity>
-8.26839

> <CNNscore>
0.4885604978

> <CNNaffinity>
6.9479699135

> <CNN_VS>
3.3945035934

> <CNNaffinity_variance>
0.1309978664

$$$$
[H]c1c(C(C([H])([H])[H])(C([H])([H])[H])C([H])([H])[H])nc(N2C([H])([H])C([H])([H])C([H])(C([H])([H])[H])C([H])([H])C2([H])[H])c(C([H])([H])N([H])C(=O)C([H])(c2c([H])c([H])c(N([H])S(=O)(=O)C([H])([H])[H])c(F)c2[H])C([H])([H])[H])c1[H]


 37 39  0  0  0  0  0  0  0  0999 V2000
  155.9265  137.7916  188.4712 N   0  0  0  0  0  0  0  0  0  0  0  0
  155.3127  137.4202  187.3072 C   0  0  0  0  0  0  0  0  0  0  0  0
  155.5389  136.2909  186.8794 O   0  0  0  0  0  0  0  0  0  0  0  0
  155.6023  138.7877  188.8649 H   0  0  0  0  0  0  0  0  0  0  0  0
  154.3603  138.4427  186.6284 C   0  0  0  0  0  0  0  0  0  0  0  0
  153.1346  137.6027  186.3257 C   0  0  0  0  0  0  0  0  0  0  0  0
  155.0415  138.8967  185.4014 C   0  0  0  0  0  0  0  0  0  0  0  0
  154.3141  139.2737  184.3108 C   0  0  0  0  0  0  0  0  0  0  0  0
  154.9628  139.9628  183.2594 C   0  0  0  0  0  0  0  0  0  0  0  0
  156.2673  140.2536  183.2808 C   0  0  0  0  0  0  0  0  0  0  0  0
  156.9786  139.8157  184.4395 C   0  0  0  0  0  0  0  0  0  0  0  0
  158.3189  140.0617  184.4674 F   0  0  0  0  0  0  0  0  0  0  0  0
  156.4257  139.1615  185.4762 C   0  0  0  0  0  0  0  0  0  0  0  0
  157.0518  141.1016  182.4683 N   0  0  0  0  0  0  0  0  0  0  0  0
  156.6134  142.1602  182.5688 H   0  0  0  0  0  0  0  0  0  0  0  0
  158.3244  141.0374  181.4321 S   0  0  0  0  0  0  0  0  0  0  0  0
  158.0782  141.7208  179.8413 C   0  0  0  0  0  0  0  0  0  0  0  0
  158.7865  139.5707  181.2916 O   0  0  0  0  0  0  0  0  0  0  0  0
  159.5637  141.8001  182.0274 O   0  0  0  0  0  0  0  0  0  0  0  0
  156.8120  137.1502  189.4548 C   0  0  0  0  0  0  0  0  0  0  0  0
  155.5089  135.5503  190.8534 C   0  0  0  0  0  0  0  0  0  0  0  0
  154.4058  135.3796  191.6946 N   0  0  0  0  0  0  0  0  0  0  0  0
  153.6461  136.4312  192.0415 C   0  0  0  0  0  0  0  0  0  0  0  0
  153.8910  137.7245  191.6192 C   0  0  0  0  0  0  0  0  0  0  0  0
  154.9660  137.9330  190.7865 C   0  0  0  0  0  0  0  0  0  0  0  0
  155.7247  136.7825  190.4456 C   0  0  0  0  0  0  0  0  0  0  0  0
  159.0764  132.1319  188.2337 C   0  0  0  0  0  0  0  0  0  0  0  0
  158.0352  132.7297  189.1619 C   0  0  0  0  0  0  0  0  0  0  0  0
  157.0229  133.5658  188.3950 C   0  0  0  0  0  0  0  0  0  0  0  0
  155.8586  133.7405  189.3273 C   0  0  0  0  0  0  0  0  0  0  0  0
  156.3240  134.4571  190.5566 N   0  0  0  0  0  0  0  0  0  0  0  0
  157.4690  133.9215  191.1949 C   0  0  0  0  0  0  0  0  0  0  0  0
  158.6315  133.6224  190.2232 C   0  0  0  0  0  0  0  0  0  0  0  0
  152.3292  136.2841  192.7479 C   0  0  0  0  0  0  0  0  0  0  0  0
  152.0275  137.6193  193.3410 C   0  0  0  0  0  0  0  0  0  0  0  0
  152.5591  135.2684  193.8725 C   0  0  0  0  0  0  0  0  0  0  0  0
  151.3264  135.8091  191.7457 C   0  0  0  0  0  0  0  0  0  0  0  0
 27 28  1  0  0  0
 28 29  1  0  0  0
 29 30  1  0  0  0
 30 31  1  0  0  0
 31 32  1  0  0  0
 32 33  1  0  0  0
 31 21  1  0  0  0
 21 22  2  0  0  0
 22 23  1  0  0  0
 23 24  2  0  0  0
 24 25  1  0  0  0
 25 26  2  0  0  0
 26 20  1  0  0  0
 20  1  1  0  0  0
  1  2  1  0  0  0
  2  3  2  0  0  0
  2  5  1  0  0  0
  5  6  1  0  0  0
  5  7  1  0  0  0
  7  8  2  0  0  0
  8  9  1  0  0  0
  9 10  2  0  0  0
 10 14  1  0  0  0
 14 16  1  0  0  0
 16 17  1  0  0  0
 16 18  2  0  0  0
 16 19  2  0  0  0
 10 11  1  0  0  0
 11 12  1  0  0  0
 11 13  2  0  0  0
 23 34  1  0  0  0
 34 35  1  0  0  0
 34 36  1  0  0  0
 34 37  1  0  0  0
 33 28  1  0  0  0
 26 21  1  0  0  0
 13  7  1  0  0  0
  1  4  1  0  0  0
 14 15  1  0  0  0
M  END
> <minimizedAffinity>
-8.15416

> <CNNscore>
0.4383451641

> <CNNaffinity>
6.4187364578

> <CNN_VS>
2.8136219978

> <CNNaffinity_variance>
0.0786712915

$$$$
[H]c1c(C(C([H])([H])[H])(C([H])([H])[H])C([H])([H])[H])nc(N2C([H])([H])C([H])([H])C([H])(C([H])([H])[H])C([H])([H])C2([H])[H])c(C([H])([H])N([H])C(=O)C([H])(c2c([H])c([H])c(N([H])S(=O)(=O)C([H])([H])[H])c(F)c2[H])C([H])([H])[H])c1[H]


 37 39  0  0  0  0  0  0  0  0999 V2000
  154.1219  138.5280  183.8078 N   0  0  0  0  0  0  0  0  0  0  0  0
  153.9527  139.5969  182.9720 C   0  0  0  0  0  0  0  0  0  0  0  0
  153.4801  139.3800  181.8588 O   0  0  0  0  0  0  0  0  0  0  0  0
  154.4566  138.7999  184.8405 H   0  0  0  0  0  0  0  0  0  0  0  0
  154.3477  141.0034  183.5002 C   0  0  0  0  0  0  0  0  0  0  0  0
  153.5863  141.9308  182.5732 C   0  0  0  0  0  0  0  0  0  0  0  0
  155.8081  141.1189  183.3276 C   0  0  0  0  0  0  0  0  0  0  0  0
  156.3303  142.0866  182.5204 C   0  0  0  0  0  0  0  0  0  0  0  0
  157.7168  142.3593  182.5866 C   0  0  0  0  0  0  0  0  0  0  0  0
  158.5463  141.6999  183.4014 C   0  0  0  0  0  0  0  0  0  0  0  0
  157.9438  140.6857  184.2069 C   0  0  0  0  0  0  0  0  0  0  0  0
  158.7744  139.9690  185.0156 F   0  0  0  0  0  0  0  0  0  0  0  0
  156.6348  140.3775  184.1985 C   0  0  0  0  0  0  0  0  0  0  0  0
  159.8835  141.9507  183.7804 N   0  0  0  0  0  0  0  0  0  0  0  0
  160.5527  141.3534  183.0604 H   0  0  0  0  0  0  0  0  0  0  0  0
  160.7439  142.7699  184.9144 S   0  0  0  0  0  0  0  0  0  0  0  0
  160.2005  142.6245  186.5703 C   0  0  0  0  0  0  0  0  0  0  0  0
  160.7987  144.2630  184.5244 O   0  0  0  0  0  0  0  0  0  0  0  0
  162.2429  142.2955  184.9234 O   0  0  0  0  0  0  0  0  0  0  0  0
  153.8286  137.0877  183.7603 C   0  0  0  0  0  0  0  0  0  0  0  0
  152.5959  137.1810  185.9249 C   0  0  0  0  0  0  0  0  0  0  0  0
  151.3462  137.1338  186.5489 N   0  0  0  0  0  0  0  0  0  0  0  0
  150.2230  137.0591  185.8167 C   0  0  0  0  0  0  0  0  0  0  0  0
  150.2108  137.0350  184.4345 C   0  0  0  0  0  0  0  0  0  0  0  0
  151.4218  137.0761  183.7832 C   0  0  0  0  0  0  0  0  0  0  0  0
  152.5740  137.1431  184.6099 C   0  0  0  0  0  0  0  0  0  0  0  0
  156.0084  137.9263  190.2924 C   0  0  0  0  0  0  0  0  0  0  0  0
  155.4174  137.8027  188.8999 C   0  0  0  0  0  0  0  0  0  0  0  0
  154.0844  138.5266  188.7968 C   0  0  0  0  0  0  0  0  0  0  0  0
  153.8254  138.6820  187.3257 C   0  0  0  0  0  0  0  0  0  0  0  0
  153.7475  137.3240  186.7002 N   0  0  0  0  0  0  0  0  0  0  0  0
  154.8203  136.4443  186.9837 C   0  0  0  0  0  0  0  0  0  0  0  0
  155.1759  136.3716  188.4848 C   0  0  0  0  0  0  0  0  0  0  0  0
  148.8770  136.7777  186.4202 C   0  0  0  0  0  0  0  0  0  0  0  0
  149.1418  136.0862  187.7154 C   0  0  0  0  0  0  0  0  0  0  0  0
  148.1733  135.8103  185.4619 C   0  0  0  0  0  0  0  0  0  0  0  0
  148.1549  138.0807  186.5483 C   0  0  0  0  0  0  0  0  0  0  0  0
 27 28  1  0  0  0
 28 29  1  0  0  0
 29 30  1  0  0  0
 30 31  1  0  0  0
 31 32  1  0  0  0
 32 33  1  0  0  0
 31 21  1  0  0  0
 21 22  2  0  0  0
 22 23  1  0  0  0
 23 24  2  0  0  0
 24 25  1  0  0  0
 25 26  2  0  0  0
 26 20  1  0  0  0
 20  1  1  0  0  0
  1  2  1  0  0  0
  2  3  2  0  0  0
  2  5  1  0  0  0
  5  6  1  0  0  0
  5  7  1  0  0  0
  7  8  2  0  0  0
  8  9  1  0  0  0
  9 10  2  0  0  0
 10 14  1  0  0  0
 14 16  1  0  0  0
 16 17  1  0  0  0
 16 18  2  0  0  0
 16 19  2  0  0  0
 10 11  1  0  0  0
 11 12  1  0  0  0
 11 13  2  0  0  0
 23 34  1  0  0  0
 34 35  1  0  0  0
 34 36  1  0  0  0
 34 37  1  0  0  0
 33 28  1  0  0  0
 26 21  1  0  0  0
 13  7  1  0  0  0
  1  4  1  0  0  0
 14 15  1  0  0  0
M  END
> <minimizedAffinity>
-8.23812

> <CNNscore>
0.3437887430

> <CNNaffinity>
6.8516259193

> <CNN_VS>
2.3555119038

> <CNNaffinity_variance>
0.0767686814

$$$$
[H]c1c(C(C([H])([H])[H])(C([H])([H])[H])C([H])([H])[H])nc(N2C([H])([H])C([H])([H])C([H])(C([H])([H])[H])C([H])([H])C2([H])[H])c(C([H])([H])N([H])C(=O)C([H])(c2c([H])c([H])c(N([H])S(=O)(=O)C([H])([H])[H])c(F)c2[H])C([H])([H])[H])c1[H]


 37 39  0  0  0  0  0  0  0  0999 V2000
  153.5946  138.9916  183.0489 N   0  0  0  0  0  0  0  0  0  0  0  0
  154.0129  139.8821  183.9985 C   0  0  0  0  0  0  0  0  0  0  0  0
  154.1191  139.4753  185.1530 O   0  0  0  0  0  0  0  0  0  0  0  0
  153.6172  139.3895  182.0032 H   0  0  0  0  0  0  0  0  0  0  0  0
  154.3437  141.3299  183.5429 C   0  0  0  0  0  0  0  0  0  0  0  0
  153.6038  141.4388  182.2237 C   0  0  0  0  0  0  0  0  0  0  0  0
  155.8071  141.3880  183.3674 C   0  0  0  0  0  0  0  0  0  0  0  0
  156.3689  142.3658  182.5998 C   0  0  0  0  0  0  0  0  0  0  0  0
  157.7664  142.5737  182.6700 C   0  0  0  0  0  0  0  0  0  0  0  0
  158.5687  141.8435  183.4511 C   0  0  0  0  0  0  0  0  0  0  0  0
  157.9246  140.8230  184.2153 C   0  0  0  0  0  0  0  0  0  0  0  0
  158.7254  140.0358  184.9878 F   0  0  0  0  0  0  0  0  0  0  0  0
  156.6032  140.5737  184.2009 C   0  0  0  0  0  0  0  0  0  0  0  0
  159.9171  142.0182  183.8332 N   0  0  0  0  0  0  0  0  0  0  0  0
  160.5526  141.3801  183.1178 H   0  0  0  0  0  0  0  0  0  0  0  0
  160.8202  142.7912  184.9665 S   0  0  0  0  0  0  0  0  0  0  0  0
  160.2696  142.6770  186.6225 C   0  0  0  0  0  0  0  0  0  0  0  0
  160.9552  144.2787  184.5749 O   0  0  0  0  0  0  0  0  0  0  0  0
  162.2915  142.2368  184.9762 O   0  0  0  0  0  0  0  0  0  0  0  0
  153.2569  137.5607  183.0122 C   0  0  0  0  0  0  0  0  0  0  0  0
  150.7949  137.2032  182.8558 C   0  0  0  0  0  0  0  0  0  0  0  0
  149.6470  137.3743  182.0770 N   0  0  0  0  0  0  0  0  0  0  0  0
  149.7089  138.0373  180.9109 C   0  0  0  0  0  0  0  0  0  0  0  0
  150.8699  138.5950  180.4086 C   0  0  0  0  0  0  0  0  0  0  0  0
  152.0224  138.4447  181.1445 C   0  0  0  0  0  0  0  0  0  0  0  0
  151.8971  137.7252  182.3620 C   0  0  0  0  0  0  0  0  0  0  0  0
  152.0491  134.2138  187.4128 C   0  0  0  0  0  0  0  0  0  0  0  0
  151.3342  134.9779  186.3136 C   0  0  0  0  0  0  0  0  0  0  0  0
  151.8617  134.5965  184.9394 C   0  0  0  0  0  0  0  0  0  0  0  0
  150.8282  135.0826  183.9642 C   0  0  0  0  0  0  0  0  0  0  0  0
  150.6979  136.5683  184.0948 N   0  0  0  0  0  0  0  0  0  0  0  0
  150.4983  137.0640  185.4061 C   0  0  0  0  0  0  0  0  0  0  0  0
  151.4800  136.4749  186.4426 C   0  0  0  0  0  0  0  0  0  0  0  0
  148.5744  138.0588  179.9274 C   0  0  0  0  0  0  0  0  0  0  0  0
  148.2218  136.6318  179.6727 C   0  0  0  0  0  0  0  0  0  0  0  0
  149.1344  138.6811  178.6434 C   0  0  0  0  0  0  0  0  0  0  0  0
  147.4717  138.8740  180.5232 C   0  0  0  0  0  0  0  0  0  0  0  0
 27 28  1  0  0  0
 28 29  1  0  0  0
 29 30  1  0  0  0
 30 31  1  0  0  0
 31 32  1  0  0  0
 32 33  1  0  0  0
 31 21  1  0  0  0
 21 22  2  0  0  0
 22 23  1  0  0  0
 23 24  2  0  0  0
 24 25  1  0  0  0
 25 26  2  0  0  0
 26 20  1  0  0  0
 20  1  1  0  0  0
  1  2  1  0  0  0
  2  3  2  0  0  0
  2  5  1  0  0  0
  5  6  1  0  0  0
  5  7  1  0  0  0
  7  8  2  0  0  0
  8  9  1  0  0  0
  9 10  2  0  0  0
 10 14  1  0  0  0
 14 16  1  0  0  0
 16 17  1  0  0  0
 16 18  2  0  0  0
 16 19  2  0  0  0
 10 11  1  0  0  0
 11 12  1  0  0  0
 11 13  2  0  0  0
 23 34  1  0  0  0
 34 35  1  0  0  0
 34 36  1  0  0  0
 34 37  1  0  0  0
 33 28  1  0  0  0
 26 21  1  0  0  0
 13  7  1  0  0  0
  1  4  1  0  0  0
 14 15  1  0  0  0
M  END
> <minimizedAffinity>
-7.89758

> <CNNscore>
0.2493955046

> <CNNaffinity>
6.4078202248

> <CNN_VS>
1.5980815887

> <CNNaffinity_variance>
0.1548886895

$$$$
[H]c1c(C(C([H])([H])[H])(C([H])([H])[H])C([H])([H])[H])nc(N2C([H])([H])C([H])([H])C([H])(C([H])([H])[H])C([H])([H])C2([H])[H])c(C([H])([H])N([H])C(=O)C([H])(c2c([H])c([H])c(N([H])S(=O)(=O)C([H])([H])[H])c(F)c2[H])C([H])([H])[H])c1[H]


 37 39  0  0  0  0  0  0  0  0999 V2000
  153.2343  139.3642  181.8915 N   0  0  0  0  0  0  0  0  0  0  0  0
  153.9039  139.6304  183.0536 C   0  0  0  0  0  0  0  0  0  0  0  0
  154.1855  138.6796  183.7790 O   0  0  0  0  0  0  0  0  0  0  0  0
  153.0983  140.2528  181.2249 H   0  0  0  0  0  0  0  0  0  0  0  0
  154.2775  141.1076  183.3562 C   0  0  0  0  0  0  0  0  0  0  0  0
  153.5762  141.8609  182.2426 C   0  0  0  0  0  0  0  0  0  0  0  0
  155.7460  141.1966  183.2504 C   0  0  0  0  0  0  0  0  0  0  0  0
  156.3257  142.2441  182.5965 C   0  0  0  0  0  0  0  0  0  0  0  0
  157.7158  142.4601  182.7455 C   0  0  0  0  0  0  0  0  0  0  0  0
  158.4947  141.6727  183.4940 C   0  0  0  0  0  0  0  0  0  0  0  0
  157.8336  140.5820  184.1372 C   0  0  0  0  0  0  0  0  0  0  0  0
  158.6122  139.7386  184.8720 F   0  0  0  0  0  0  0  0  0  0  0  0
  156.5178  140.3207  184.0434 C   0  0  0  0  0  0  0  0  0  0  0  0
  159.8229  141.8277  183.9482 N   0  0  0  0  0  0  0  0  0  0  0  0
  160.4511  141.0171  183.4273 H   0  0  0  0  0  0  0  0  0  0  0  0
  160.7063  142.7482  184.9825 S   0  0  0  0  0  0  0  0  0  0  0  0
  160.2332  142.7137  186.6657 C   0  0  0  0  0  0  0  0  0  0  0  0
  160.7068  144.2091  184.4822 O   0  0  0  0  0  0  0  0  0  0  0  0
  162.2162  142.3102  184.9638 O   0  0  0  0  0  0  0  0  0  0  0  0
  152.7635  138.1601  181.1906 C   0  0  0  0  0  0  0  0  0  0  0  0
  151.0461  137.0422  182.6097 C   0  0  0  0  0  0  0  0  0  0  0  0
  149.7377  137.0910  183.0990 N   0  0  0  0  0  0  0  0  0  0  0  0
  148.9491  138.1434  182.8276 C   0  0  0  0  0  0  0  0  0  0  0  0
  149.3560  139.2313  182.0780 C   0  0  0  0  0  0  0  0  0  0  0  0
  150.6364  139.2190  181.5752 C   0  0  0  0  0  0  0  0  0  0  0  0
  151.4187  138.0756  181.8856 C   0  0  0  0  0  0  0  0  0  0  0  0
  155.1679  133.2632  182.5373 C   0  0  0  0  0  0  0  0  0  0  0  0
  153.8928  134.0341  182.8254 C   0  0  0  0  0  0  0  0  0  0  0  0
  153.2424  134.5295  181.5434 C   0  0  0  0  0  0  0  0  0  0  0  0
  151.8344  134.8900  181.9216 C   0  0  0  0  0  0  0  0  0  0  0  0
  151.8712  135.9713  182.9564 N   0  0  0  0  0  0  0  0  0  0  0  0
  152.7021  135.7333  184.0780 C   0  0  0  0  0  0  0  0  0  0  0  0
  154.1173  135.2424  183.7020 C   0  0  0  0  0  0  0  0  0  0  0  0
  147.4774  138.1542  183.1262 C   0  0  0  0  0  0  0  0  0  0  0  0
  146.8118  138.6876  181.9022 C   0  0  0  0  0  0  0  0  0  0  0  0
  147.2836  139.1422  184.2819 C   0  0  0  0  0  0  0  0  0  0  0  0
  147.0779  136.7608  183.4931 C   0  0  0  0  0  0  0  0  0  0  0  0
 27 28  1  0  0  0
 28 29  1  0  0  0
 29 30  1  0  0  0
 30 31  1  0  0  0
 31 32  1  0  0  0
 32 33  1  0  0  0
 31 21  1  0  0  0
 21 22  2  0  0  0
 22 23  1  0  0  0
 23 24  2  0  0  0
 24 25  1  0  0  0
 25 26  2  0  0  0
 26 20  1  0  0  0
 20  1  1  0  0  0
  1  2  1  0  0  0
  2  3  2  0  0  0
  2  5  1  0  0  0
  5  6  1  0  0  0
  5  7  1  0  0  0
  7  8  2  0  0  0
  8  9  1  0  0  0
  9 10  2  0  0  0
 10 14  1  0  0  0
 14 16  1  0  0  0
 16 17  1  0  0  0
 16 18  2  0  0  0
 16 19  2  0  0  0
 10 11  1  0  0  0
 11 12  1  0  0  0
 11 13  2  0  0  0
 23 34  1  0  0  0
 34 35  1  0  0  0
 34 36  1  0  0  0
 34 37  1  0  0  0
 33 28  1  0  0  0
 26 21  1  0  0  0
 13  7  1  0  0  0
  1  4  1  0  0  0
 14 15  1  0  0  0
M  END
> <minimizedAffinity>
-7.96295

> <CNNscore>
0.2187765688

> <CNNaffinity>
6.5669059753

> <CNN_VS>
1.4366852045

> <CNNaffinity_variance>
0.0857605785

$$$$
[H]c1c(C(C([H])([H])[H])(C([H])([H])[H])C([H])([H])[H])nc(N2C([H])([H])C([H])([H])C([H])(C([H])([H])[H])C([H])([H])C2([H])[H])c(C([H])([H])N([H])C(=O)C([H])(c2c([H])c([H])c(N([H])S(=O)(=O)C([H])([H])[H])c(F)c2[H])C([H])([H])[H])c1[H]


 37 39  0  0  0  0  0  0  0  0999 V2000
  155.0003  137.8244  187.0442 N   0  0  0  0  0  0  0  0  0  0  0  0
  154.3561  138.4415  186.0078 C   0  0  0  0  0  0  0  0  0  0  0  0
  153.2728  138.9702  186.2448 O   0  0  0  0  0  0  0  0  0  0  0  0
  156.0259  137.4537  186.7932 H   0  0  0  0  0  0  0  0  0  0  0  0
  155.0519  138.4474  184.6189 C   0  0  0  0  0  0  0  0  0  0  0  0
  155.7807  139.7772  184.6197 C   0  0  0  0  0  0  0  0  0  0  0  0
  153.9745  138.4031  183.6124 C   0  0  0  0  0  0  0  0  0  0  0  0
  153.1446  137.3228  183.5411 C   0  0  0  0  0  0  0  0  0  0  0  0
  151.9609  137.4178  182.7723 C   0  0  0  0  0  0  0  0  0  0  0  0
  151.6217  138.5215  182.0987 C   0  0  0  0  0  0  0  0  0  0  0  0
  152.5401  139.6111  182.1963 C   0  0  0  0  0  0  0  0  0  0  0  0
  152.2396  140.7338  181.4844 F   0  0  0  0  0  0  0  0  0  0  0  0
  153.6789  139.5917  182.9113 C   0  0  0  0  0  0  0  0  0  0  0  0
  150.4163  138.9012  181.4683 N   0  0  0  0  0  0  0  0  0  0  0  0
  150.6871  139.6915  180.6776 H   0  0  0  0  0  0  0  0  0  0  0  0
  148.8029  138.6028  181.5408 S   0  0  0  0  0  0  0  0  0  0  0  0
  147.9097  139.4127  182.8076 C   0  0  0  0  0  0  0  0  0  0  0  0
  148.5766  137.0792  181.6506 O   0  0  0  0  0  0  0  0  0  0  0  0
  148.0999  139.0238  180.1990 O   0  0  0  0  0  0  0  0  0  0  0  0
  154.7628  137.6452  188.4845 C   0  0  0  0  0  0  0  0  0  0  0  0
  155.3510  135.4645  189.5388 C   0  0  0  0  0  0  0  0  0  0  0  0
  156.2801  134.4222  189.6029 N   0  0  0  0  0  0  0  0  0  0  0  0
  157.3404  134.4050  188.7790 C   0  0  0  0  0  0  0  0  0  0  0  0
  157.5849  135.3762  187.8262 C   0  0  0  0  0  0  0  0  0  0  0  0
  156.6948  136.4211  187.7345 C   0  0  0  0  0  0  0  0  0  0  0  0
  155.6006  136.3910  188.6386 C   0  0  0  0  0  0  0  0  0  0  0  0
  151.0545  137.0648  192.7410 C   0  0  0  0  0  0  0  0  0  0  0  0
  152.1424  136.2734  192.0386 C   0  0  0  0  0  0  0  0  0  0  0  0
  153.4666  137.0205  192.0492 C   0  0  0  0  0  0  0  0  0  0  0  0
  154.5095  135.9925  191.7159 C   0  0  0  0  0  0  0  0  0  0  0  0
  154.2217  135.4312  190.3581 N   0  0  0  0  0  0  0  0  0  0  0  0
  152.9006  134.9703  190.1410 C   0  0  0  0  0  0  0  0  0  0  0  0
  151.8169  135.9723  190.5956 C   0  0  0  0  0  0  0  0  0  0  0  0
  158.4848  133.4474  188.9478 C   0  0  0  0  0  0  0  0  0  0  0  0
  158.5946  133.1896  190.4130 C   0  0  0  0  0  0  0  0  0  0  0  0
  159.7367  134.1896  188.4669 C   0  0  0  0  0  0  0  0  0  0  0  0
  158.1882  132.2350  188.1245 C   0  0  0  0  0  0  0  0  0  0  0  0
 27 28  1  0  0  0
 28 29  1  0  0  0
 29 30  1  0  0  0
 30 31  1  0  0  0
 31 32  1  0  0  0
 32 33  1  0  0  0
 31 21  1  0  0  0
 21 22  2  0  0  0
 22 23  1  0  0  0
 23 24  2  0  0  0
 24 25  1  0  0  0
 25 26  2  0  0  0
 26 20  1  0  0  0
 20  1  1  0  0  0
  1  2  1  0  0  0
  2  3  2  0  0  0
  2  5  1  0  0  0
  5  6  1  0  0  0
  5  7  1  0  0  0
  7  8  2  0  0  0
  8  9  1  0  0  0
  9 10  2  0  0  0
 10 14  1  0  0  0
 14 16  1  0  0  0
 16 17  1  0  0  0
 16 18  2  0  0  0
 16 19  2  0  0  0
 10 11  1  0  0  0
 11 12  1  0  0  0
 11 13  2  0  0  0
 23 34  1  0  0  0
 34 35  1  0  0  0
 34 36  1  0  0  0
 34 37  1  0  0  0
 33 28  1  0  0  0
 26 21  1  0  0  0
 13  7  1  0  0  0
  1  4  1  0  0  0
 14 15  1  0  0  0
M  END
> <minimizedAffinity>
-7.03322

> <CNNscore>
0.2179499418

> <CNNaffinity>
5.9040284157

> <CNN_VS>
1.2867826223

> <CNNaffinity_variance>
0.1117187291

$$$$
[H]c1c(C(C([H])([H])[H])(C([H])([H])[H])C([H])([H])[H])nc(N2C([H])([H])C([H])([H])C([H])(C([H])([H])[H])C([H])([H])C2([H])[H])c(C([H])([H])N([H])C(=O)C([H])(c2c([H])c([H])c(N([H])S(=O)(=O)C([H])([H])[H])c(F)c2[H])C([H])([H])[H])c1[H]


 37 39  0  0  0  0  0  0  0  0999 V2000
  153.2313  137.0997  184.8616 N   0  0  0  0  0  0  0  0  0  0  0  0
  153.7306  135.8347  185.0049 C   0  0  0  0  0  0  0  0  0  0  0  0
  153.4140  134.9988  184.1620 O   0  0  0  0  0  0  0  0  0  0  0  0
  153.6360  137.8401  185.5967 H   0  0  0  0  0  0  0  0  0  0  0  0
  154.6762  135.5575  186.2058 C   0  0  0  0  0  0  0  0  0  0  0  0
  154.7498  134.0430  186.2261 C   0  0  0  0  0  0  0  0  0  0  0  0
  154.0023  136.0986  187.4011 C   0  0  0  0  0  0  0  0  0  0  0  0
  153.0100  135.3886  188.0112 C   0  0  0  0  0  0  0  0  0  0  0  0
  152.5763  135.7844  189.2982 C   0  0  0  0  0  0  0  0  0  0  0  0
  153.0900  136.8362  189.9437 C   0  0  0  0  0  0  0  0  0  0  0  0
  154.1111  137.5506  189.2456 C   0  0  0  0  0  0  0  0  0  0  0  0
  154.6220  138.6528  189.8633 F   0  0  0  0  0  0  0  0  0  0  0  0
  154.5742  137.2280  188.0249 C   0  0  0  0  0  0  0  0  0  0  0  0
  152.9675  137.2644  191.2839 N   0  0  0  0  0  0  0  0  0  0  0  0
  153.7853  138.0542  191.4586 H   0  0  0  0  0  0  0  0  0  0  0  0
  152.0766  136.9647  192.6307 S   0  0  0  0  0  0  0  0  0  0  0  0
  152.5425  135.5780  193.5891 C   0  0  0  0  0  0  0  0  0  0  0  0
  150.5902  136.8343  192.2331 O   0  0  0  0  0  0  0  0  0  0  0  0
  152.1294  138.1897  193.6149 O   0  0  0  0  0  0  0  0  0  0  0  0
  152.3960  137.8051  183.8780 C   0  0  0  0  0  0  0  0  0  0  0  0
  153.4306  139.5096  182.3822 C   0  0  0  0  0  0  0  0  0  0  0  0
  154.4900  140.4037  182.2038 N   0  0  0  0  0  0  0  0  0  0  0  0
  155.4004  140.5817  183.1748 C   0  0  0  0  0  0  0  0  0  0  0  0
  155.3593  139.9267  184.3915 C   0  0  0  0  0  0  0  0  0  0  0  0
  154.3334  139.0352  184.6040 C   0  0  0  0  0  0  0  0  0  0  0  0
  153.4088  138.8809  183.5377 C   0  0  0  0  0  0  0  0  0  0  0  0
  148.8636  137.9119  179.5776 C   0  0  0  0  0  0  0  0  0  0  0  0
  150.2126  138.4813  179.9769 C   0  0  0  0  0  0  0  0  0  0  0  0
  150.9812  137.5161  180.8654 C   0  0  0  0  0  0  0  0  0  0  0  0
  152.4045  137.9947  180.8399 C   0  0  0  0  0  0  0  0  0  0  0  0
  152.4588  139.3867  181.3881 N   0  0  0  0  0  0  0  0  0  0  0  0
  151.5521  140.3156  180.8223 C   0  0  0  0  0  0  0  0  0  0  0  0
  150.1047  139.7848  180.7307 C   0  0  0  0  0  0  0  0  0  0  0  0
  156.6755  141.3460  182.9627 C   0  0  0  0  0  0  0  0  0  0  0  0
  157.5935  140.4233  182.2336 C   0  0  0  0  0  0  0  0  0  0  0  0
  157.2414  141.6279  184.3589 C   0  0  0  0  0  0  0  0  0  0  0  0
  156.3363  142.5988  182.2204 C   0  0  0  0  0  0  0  0  0  0  0  0
 27 28  1  0  0  0
 28 29  1  0  0  0
 29 30  1  0  0  0
 30 31  1  0  0  0
 31 32  1  0  0  0
 32 33  1  0  0  0
 31 21  1  0  0  0
 21 22  2  0  0  0
 22 23  1  0  0  0
 23 24  2  0  0  0
 24 25  1  0  0  0
 25 26  2  0  0  0
 26 20  1  0  0  0
 20  1  1  0  0  0
  1  2  1  0  0  0
  2  3  2  0  0  0
  2  5  1  0  0  0
  5  6  1  0  0  0
  5  7  1  0  0  0
  7  8  2  0  0  0
  8  9  1  0  0  0
  9 10  2  0  0  0
 10 14  1  0  0  0
 14 16  1  0  0  0
 16 17  1  0  0  0
 16 18  2  0  0  0
 16 19  2  0  0  0
 10 11  1  0  0  0
 11 12  1  0  0  0
 11 13  2  0  0  0
 23 34  1  0  0  0
 34 35  1  0  0  0
 34 36  1  0  0  0
 34 37  1  0  0  0
 33 28  1  0  0  0
 26 21  1  0  0  0
 13  7  1  0  0  0
  1  4  1  0  0  0
 14 15  1  0  0  0
M  END
> <minimizedAffinity>
-7.28719

> <CNNscore>
0.2084021717

> <CNNaffinity>
6.2450704575

> <CNN_VS>
1.3014862537

> <CNNaffinity_variance>
0.0579859391

$$$$
[H]c1c(C(C([H])([H])[H])(C([H])([H])[H])C([H])([H])[H])nc(N2C([H])([H])C([H])([H])C([H])(C([H])([H])[H])C([H])([H])C2([H])[H])c(C([H])([H])N([H])C(=O)C([H])(c2c([H])c([H])c(N([H])S(=O)(=O)C([H])([H])[H])c(F)c2[H])C([H])([H])[H])c1[H]


 37 39  0  0  0  0  0  0  0  0999 V2000
  153.6962  139.8326  183.3315 N   0  0  0  0  0  0  0  0  0  0  0  0
  153.9980  140.9729  182.6397 C   0  0  0  0  0  0  0  0  0  0  0  0
  153.7520  140.9906  181.4361 O   0  0  0  0  0  0  0  0  0  0  0  0
  153.8446  139.9126  184.4378 H   0  0  0  0  0  0  0  0  0  0  0  0
  154.6052  142.1643  183.4303 C   0  0  0  0  0  0  0  0  0  0  0  0
  154.0625  143.3676  182.6839 C   0  0  0  0  0  0  0  0  0  0  0  0
  156.0701  142.0450  183.3048 C   0  0  0  0  0  0  0  0  0  0  0  0
  156.7704  142.9404  182.5509 C   0  0  0  0  0  0  0  0  0  0  0  0
  158.1797  142.9803  182.6678 C   0  0  0  0  0  0  0  0  0  0  0  0
  158.8620  142.1675  183.4805 C   0  0  0  0  0  0  0  0  0  0  0  0
  158.0750  141.2393  184.2285 C   0  0  0  0  0  0  0  0  0  0  0  0
  158.7493  140.3700  185.0329 F   0  0  0  0  0  0  0  0  0  0  0  0
  156.7345  141.1499  184.1702 C   0  0  0  0  0  0  0  0  0  0  0  0
  160.2081  142.1834  183.9076 N   0  0  0  0  0  0  0  0  0  0  0  0
  160.7896  141.4809  183.2066 H   0  0  0  0  0  0  0  0  0  0  0  0
  161.1559  142.8402  185.0771 S   0  0  0  0  0  0  0  0  0  0  0  0
  160.5899  142.6888  186.7248 C   0  0  0  0  0  0  0  0  0  0  0  0
  161.3946  144.3312  184.7542 O   0  0  0  0  0  0  0  0  0  0  0  0
  162.5858  142.1863  185.0647 O   0  0  0  0  0  0  0  0  0  0  0  0
  153.0666  138.5399  183.0224 C   0  0  0  0  0  0  0  0  0  0  0  0
  152.3848  137.0361  184.8897 C   0  0  0  0  0  0  0  0  0  0  0  0
  152.5997  136.6738  186.2225 N   0  0  0  0  0  0  0  0  0  0  0  0
  153.5886  137.2427  186.9308 C   0  0  0  0  0  0  0  0  0  0  0  0
  154.4515  138.1914  186.4146 C   0  0  0  0  0  0  0  0  0  0  0  0
  154.2699  138.5774  185.1068 C   0  0  0  0  0  0  0  0  0  0  0  0
  153.2021  137.9500  184.4125 C   0  0  0  0  0  0  0  0  0  0  0  0
  148.3240  136.0155  181.1824 C   0  0  0  0  0  0  0  0  0  0  0  0
  149.2931  135.9487  182.3485 C   0  0  0  0  0  0  0  0  0  0  0  0
  149.4188  137.2955  183.0431 C   0  0  0  0  0  0  0  0  0  0  0  0
  150.0480  137.0023  184.3748 C   0  0  0  0  0  0  0  0  0  0  0  0
  151.3943  136.3871  184.1511 N   0  0  0  0  0  0  0  0  0  0  0  0
  151.4364  135.2841  183.2641 C   0  0  0  0  0  0  0  0  0  0  0  0
  150.6848  135.5322  181.9380 C   0  0  0  0  0  0  0  0  0  0  0  0
  153.7280  137.0690  188.4158 C   0  0  0  0  0  0  0  0  0  0  0  0
  154.1518  138.3964  188.9487 C   0  0  0  0  0  0  0  0  0  0  0  0
  154.8576  136.0539  188.6226 C   0  0  0  0  0  0  0  0  0  0  0  0
  152.4167  136.5790  188.9412 C   0  0  0  0  0  0  0  0  0  0  0  0
 27 28  1  0  0  0
 28 29  1  0  0  0
 29 30  1  0  0  0
 30 31  1  0  0  0
 31 32  1  0  0  0
 32 33  1  0  0  0
 31 21  1  0  0  0
 21 22  2  0  0  0
 22 23  1  0  0  0
 23 24  2  0  0  0
 24 25  1  0  0  0
 25 26  2  0  0  0
 26 20  1  0  0  0
 20  1  1  0  0  0
  1  2  1  0  0  0
  2  3  2  0  0  0
  2  5  1  0  0  0
  5  6  1  0  0  0
  5  7  1  0  0  0
  7  8  2  0  0  0
  8  9  1  0  0  0
  9 10  2  0  0  0
 10 14  1  0  0  0
 14 16  1  0  0  0
 16 17  1  0  0  0
 16 18  2  0  0  0
 16 19  2  0  0  0
 10 11  1  0  0  0
 11 12  1  0  0  0
 11 13  2  0  0  0
 23 34  1  0  0  0
 34 35  1  0  0  0
 34 36  1  0  0  0
 34 37  1  0  0  0
 33 28  1  0  0  0
 26 21  1  0  0  0
 13  7  1  0  0  0
  1  4  1  0  0  0
 14 15  1  0  0  0
M  END
> <minimizedAffinity>
-8.43559

> <CNNscore>
0.1999077499

> <CNNaffinity>
6.5571427345

> <CNN_VS>
1.3108236790

> <CNNaffinity_variance>
0.1973713785

$$$$
[H]c1nc(N2C([H])([H])C([H])([H])c3nc(N4C([H])([H])C([H])([H])C([H])([H])C([H])([H])C([H])([H])C4([H])[H])nc(N([H])c4c([H])c([H])c(C(C([H])([H])[H])(C([H])([H])[H])C([H])([H])[H])c([H])c4[H])c3C([H])([H])C2([H])[H])c(C(F)(F)F)c([H])c1[H]


 40 44  0  0  0  0  0  0  0  0999 V2000
  154.1264  137.7186  184.5536 C   0  0  0  0  0  0  0  0  0  0  0  0
  153.9875  136.8125  183.5485 N   0  0  0  0  0  0  0  0  0  0  0  0
  154.1200  135.4983  183.6595 C   0  0  0  0  0  0  0  0  0  0  0  0
  154.4232  135.0011  184.8942 N   0  0  0  0  0  0  0  0  0  0  0  0
  154.5897  135.7883  185.9632 C   0  0  0  0  0  0  0  0  0  0  0  0
  154.9059  135.0812  187.2059 C   0  0  0  0  0  0  0  0  0  0  0  0
  154.3902  135.5004  188.4961 C   0  0  0  0  0  0  0  0  0  0  0  0
  153.7867  136.7747  188.7259 N   0  0  0  0  0  0  0  0  0  0  0  0
  153.5738  137.9232  187.8964 C   0  0  0  0  0  0  0  0  0  0  0  0
  154.7039  138.0965  186.9017 C   0  0  0  0  0  0  0  0  0  0  0  0
  154.4403  137.1613  185.7792 C   0  0  0  0  0  0  0  0  0  0  0  0
  153.9729  134.5756  182.5686 N   0  0  0  0  0  0  0  0  0  0  0  0
  155.0884  133.6792  182.3704 C   0  0  0  0  0  0  0  0  0  0  0  0
  155.7169  133.8508  181.0341 C   0  0  0  0  0  0  0  0  0  0  0  0
  154.7274  133.7030  179.9265 C   0  0  0  0  0  0  0  0  0  0  0  0
  153.6247  132.7748  180.3230 C   0  0  0  0  0  0  0  0  0  0  0  0
  152.4804  133.5257  180.8892 C   0  0  0  0  0  0  0  0  0  0  0  0
  152.7570  134.6415  181.8136 C   0  0  0  0  0  0  0  0  0  0  0  0
  153.2614  136.9094  190.0315 C   0  0  0  0  0  0  0  0  0  0  0  0
  151.9749  136.3979  190.1323 N   0  0  0  0  0  0  0  0  0  0  0  0
  151.3727  136.3876  191.3245 C   0  0  0  0  0  0  0  0  0  0  0  0
  152.0026  136.8705  192.4432 C   0  0  0  0  0  0  0  0  0  0  0  0
  153.2718  137.3703  192.3226 C   0  0  0  0  0  0  0  0  0  0  0  0
  153.9437  137.3993  191.0797 C   0  0  0  0  0  0  0  0  0  0  0  0
  155.2447  138.0073  191.0234 C   0  0  0  0  0  0  0  0  0  0  0  0
  156.2005  137.4444  191.8303 F   0  0  0  0  0  0  0  0  0  0  0  0
  155.0700  139.3117  191.6480 F   0  0  0  0  0  0  0  0  0  0  0  0
  155.7245  138.3783  189.7799 F   0  0  0  0  0  0  0  0  0  0  0  0
  153.8529  139.0740  184.4613 N   0  0  0  0  0  0  0  0  0  0  0  0
  152.8902  139.3718  184.8503 H   0  0  0  0  0  0  0  0  0  0  0  0
  156.4159  141.9846  182.7574 C   0  0  0  0  0  0  0  0  0  0  0  0
  155.0851  141.9318  182.4049 C   0  0  0  0  0  0  0  0  0  0  0  0
  154.2115  140.9785  182.9659 C   0  0  0  0  0  0  0  0  0  0  0  0
  154.6509  140.0680  183.8820 C   0  0  0  0  0  0  0  0  0  0  0  0
  156.0152  140.1420  184.2279 C   0  0  0  0  0  0  0  0  0  0  0  0
  156.8597  141.0692  183.6814 C   0  0  0  0  0  0  0  0  0  0  0  0
  158.6608  142.9883  182.9650 C   0  0  0  0  0  0  0  0  0  0  0  0
  157.3597  142.9479  182.1725 C   0  0  0  0  0  0  0  0  0  0  0  0
  156.7950  144.3583  182.1104 C   0  0  0  0  0  0  0  0  0  0  0  0
  157.7212  142.5229  180.7504 C   0  0  0  0  0  0  0  0  0  0  0  0
 37 38  1  0  0  0
 38 39  1  0  0  0
 38 40  1  0  0  0
 38 31  1  0  0  0
 31 32  2  0  0  0
 32 33  1  0  0  0
 33 34  2  0  0  0
 34 29  1  0  0  0
 29  1  1  0  0  0
  1  2  2  0  0  0
  2  3  1  0  0  0
  3  4  2  0  0  0
  4  5  1  0  0  0
  5  6  1  0  0  0
  6  7  1  0  0  0
  7  8  1  0  0  0
  8  9  1  0  0  0
  9 10  1  0  0  0
 10 11  1  0  0  0
  8 19  1  0  0  0
 19 20  2  0  0  0
 20 21  1  0  0  0
 21 22  2  0  0  0
 22 23  1  0  0  0
 23 24  2  0  0  0
 24 25  1  0  0  0
 25 26  1  0  0  0
 25 27  1  0  0  0
 25 28  1  0  0  0
  3 12  1  0  0  0
 12 13  1  0  0  0
 13 14  1  0  0  0
 14 15  1  0  0  0
 15 16  1  0  0  0
 16 17  1  0  0  0
 17 18  1  0  0  0
 34 35  1  0  0  0
 35 36  2  0  0  0
 36 31  1  0  0  0
 11  1  1  0  0  0
 24 19  1  0  0  0
 18 12  1  0  0  0
 11  5  2  0  0  0
 29 30  1  0  0  0
M  END
> <minimizedAffinity>
-9.63194

> <CNNscore>
0.5762124062

> <CNNaffinity>
7.1872434616

> <CNN_VS>
4.1413788795

> <CNNaffinity_variance>
0.0513822213

$$$$
[H]c1nc(N2C([H])([H])C([H])([H])c3nc(N4C([H])([H])C([H])([H])C([H])([H])C([H])([H])C([H])([H])C4([H])[H])nc(N([H])c4c([H])c([H])c(C(C([H])([H])[H])(C([H])([H])[H])C([H])([H])[H])c([H])c4[H])c3C([H])([H])C2([H])[H])c(C(F)(F)F)c([H])c1[H]


 40 44  0  0  0  0  0  0  0  0999 V2000
  153.7076  139.3652  183.8468 C   0  0  0  0  0  0  0  0  0  0  0  0
  152.8106  139.1789  182.8411 N   0  0  0  0  0  0  0  0  0  0  0  0
  152.0980  138.0824  182.6249 C   0  0  0  0  0  0  0  0  0  0  0  0
  152.2750  137.0397  183.4881 N   0  0  0  0  0  0  0  0  0  0  0  0
  153.1307  137.0962  184.5150 C   0  0  0  0  0  0  0  0  0  0  0  0
  153.1857  135.8866  185.3385 C   0  0  0  0  0  0  0  0  0  0  0  0
  153.3502  135.9297  186.7798 C   0  0  0  0  0  0  0  0  0  0  0  0
  153.7625  137.0986  187.4902 N   0  0  0  0  0  0  0  0  0  0  0  0
  154.1542  138.4123  187.0738 C   0  0  0  0  0  0  0  0  0  0  0  0
  154.8857  138.3703  185.7474 C   0  0  0  0  0  0  0  0  0  0  0  0
  153.8523  138.2758  184.6855 C   0  0  0  0  0  0  0  0  0  0  0  0
  151.1658  137.9237  181.5437 N   0  0  0  0  0  0  0  0  0  0  0  0
  151.5332  138.5903  180.3158 C   0  0  0  0  0  0  0  0  0  0  0  0
  150.5337  139.6137  179.9110 C   0  0  0  0  0  0  0  0  0  0  0  0
  149.1593  139.0419  179.8016 C   0  0  0  0  0  0  0  0  0  0  0  0
  149.2164  137.5971  179.4224 C   0  0  0  0  0  0  0  0  0  0  0  0
  149.1929  136.7339  180.6259 C   0  0  0  0  0  0  0  0  0  0  0  0
  149.9978  137.1329  181.7958 C   0  0  0  0  0  0  0  0  0  0  0  0
  153.7424  136.9277  188.8933 C   0  0  0  0  0  0  0  0  0  0  0  0
  152.4504  136.8070  189.3865 N   0  0  0  0  0  0  0  0  0  0  0  0
  152.2729  136.5670  190.6884 C   0  0  0  0  0  0  0  0  0  0  0  0
  153.3409  136.4379  191.5394 C   0  0  0  0  0  0  0  0  0  0  0  0
  154.6073  136.5598  191.0330 C   0  0  0  0  0  0  0  0  0  0  0  0
  154.8379  136.8137  189.6620 C   0  0  0  0  0  0  0  0  0  0  0  0
  156.1935  137.0015  189.2233 C   0  0  0  0  0  0  0  0  0  0  0  0
  156.5852  136.2356  188.1549 F   0  0  0  0  0  0  0  0  0  0  0  0
  157.0088  136.4436  190.2939 F   0  0  0  0  0  0  0  0  0  0  0  0
  156.6778  138.2967  189.1777 F   0  0  0  0  0  0  0  0  0  0  0  0
  154.3459  140.5578  184.1478 N   0  0  0  0  0  0  0  0  0  0  0  0
  153.9671  141.0695  185.0204 H   0  0  0  0  0  0  0  0  0  0  0  0
  157.4941  142.2840  181.8997 C   0  0  0  0  0  0  0  0  0  0  0  0
  156.4658  143.0660  182.3787 C   0  0  0  0  0  0  0  0  0  0  0  0
  155.4131  142.5154  183.1371 C   0  0  0  0  0  0  0  0  0  0  0  0
  155.3706  141.1828  183.4268 C   0  0  0  0  0  0  0  0  0  0  0  0
  156.4335  140.4033  182.9274 C   0  0  0  0  0  0  0  0  0  0  0  0
  157.4538  140.9418  182.1922 C   0  0  0  0  0  0  0  0  0  0  0  0
  158.7895  144.3096  181.3442 C   0  0  0  0  0  0  0  0  0  0  0  0
  158.5927  142.8208  181.0840 C   0  0  0  0  0  0  0  0  0  0  0  0
  158.3675  142.6227  179.5934 C   0  0  0  0  0  0  0  0  0  0  0  0
  159.9029  142.1298  181.4577 C   0  0  0  0  0  0  0  0  0  0  0  0
 37 38  1  0  0  0
 38 39  1  0  0  0
 38 40  1  0  0  0
 38 31  1  0  0  0
 31 32  2  0  0  0
 32 33  1  0  0  0
 33 34  2  0  0  0
 34 29  1  0  0  0
 29  1  1  0  0  0
  1  2  2  0  0  0
  2  3  1  0  0  0
  3  4  2  0  0  0
  4  5  1  0  0  0
  5  6  1  0  0  0
  6  7  1  0  0  0
  7  8  1  0  0  0
  8  9  1  0  0  0
  9 10  1  0  0  0
 10 11  1  0  0  0
  8 19  1  0  0  0
 19 20  2  0  0  0
 20 21  1  0  0  0
 21 22  2  0  0  0
 22 23  1  0  0  0
 23 24  2  0  0  0
 24 25  1  0  0  0
 25 26  1  0  0  0
 25 27  1  0  0  0
 25 28  1  0  0  0
  3 12  1  0  0  0
 12 13  1  0  0  0
 13 14  1  0  0  0
 14 15  1  0  0  0
 15 16  1  0  0  0
 16 17  1  0  0  0
 17 18  1  0  0  0
 34 35  1  0  0  0
 35 36  2  0  0  0
 36 31  1  0  0  0
 11  1  1  0  0  0
 24 19  1  0  0  0
 18 12  1  0  0  0
 11  5  2  0  0  0
 29 30  1  0  0  0
M  END
> <minimizedAffinity>
-9.25098

> <CNNscore>
0.5349061489

> <CNNaffinity>
7.3324422836

> <CNN_VS>
3.9221684933

> <CNNaffinity_variance>
0.0549933240

$$$$
[H]c1nc(N2C([H])([H])C([H])([H])c3nc(N4C([H])([H])C([H])([H])C([H])([H])C([H])([H])C([H])([H])C4([H])[H])nc(N([H])c4c([H])c([H])c(C(C([H])([H])[H])(C([H])([H])[H])C([H])([H])[H])c([H])c4[H])c3C([H])([H])C2([H])[H])c(C(F)(F)F)c([H])c1[H]


 40 44  0  0  0  0  0  0  0  0999 V2000
  153.4500  138.1398  184.1149 C   0  0  0  0  0  0  0  0  0  0  0  0
  152.2708  137.7283  183.5757 N   0  0  0  0  0  0  0  0  0  0  0  0
  151.5560  138.3831  182.6717 C   0  0  0  0  0  0  0  0  0  0  0  0
  152.0427  139.5820  182.2366 N   0  0  0  0  0  0  0  0  0  0  0  0
  153.1897  140.0984  182.6925 C   0  0  0  0  0  0  0  0  0  0  0  0
  153.5585  141.3902  182.1097 C   0  0  0  0  0  0  0  0  0  0  0  0
  154.9325  141.7476  181.8086 C   0  0  0  0  0  0  0  0  0  0  0  0
  156.0605  141.0261  182.3069 N   0  0  0  0  0  0  0  0  0  0  0  0
  156.1965  139.9076  183.1917 C   0  0  0  0  0  0  0  0  0  0  0  0
  155.1219  139.9213  184.2600 C   0  0  0  0  0  0  0  0  0  0  0  0
  153.8919  139.3622  183.6443 C   0  0  0  0  0  0  0  0  0  0  0  0
  150.3089  137.9160  182.1335 N   0  0  0  0  0  0  0  0  0  0  0  0
  150.2889  137.7388  180.6999 C   0  0  0  0  0  0  0  0  0  0  0  0
  149.2799  138.6089  180.0400 C   0  0  0  0  0  0  0  0  0  0  0  0
  147.9137  138.4123  180.6078 C   0  0  0  0  0  0  0  0  0  0  0  0
  147.7477  137.0160  181.1151 C   0  0  0  0  0  0  0  0  0  0  0  0
  148.0704  136.9367  182.5585 C   0  0  0  0  0  0  0  0  0  0  0  0
  149.2429  137.6775  183.0608 C   0  0  0  0  0  0  0  0  0  0  0  0
  157.2889  141.4947  181.7875 C   0  0  0  0  0  0  0  0  0  0  0  0
  157.3085  141.4807  180.3995 N   0  0  0  0  0  0  0  0  0  0  0  0
  158.3775  141.9642  179.7611 C   0  0  0  0  0  0  0  0  0  0  0  0
  159.4484  142.4719  180.4516 C   0  0  0  0  0  0  0  0  0  0  0  0
  159.4091  142.4771  181.8204 C   0  0  0  0  0  0  0  0  0  0  0  0
  158.2973  141.9749  182.5336 C   0  0  0  0  0  0  0  0  0  0  0  0
  158.3649  141.9483  183.9689 C   0  0  0  0  0  0  0  0  0  0  0  0
  157.2727  142.4549  184.6261 F   0  0  0  0  0  0  0  0  0  0  0  0
  159.3876  142.9286  184.3087 F   0  0  0  0  0  0  0  0  0  0  0  0
  158.8867  140.8136  184.5642 F   0  0  0  0  0  0  0  0  0  0  0  0
  154.2584  137.3899  184.9544 N   0  0  0  0  0  0  0  0  0  0  0  0
  154.8023  136.5922  184.4699 H   0  0  0  0  0  0  0  0  0  0  0  0
  154.8643  137.7265  189.1333 C   0  0  0  0  0  0  0  0  0  0  0  0
  153.8021  138.3607  188.5270 C   0  0  0  0  0  0  0  0  0  0  0  0
  153.5751  138.2551  187.1399 C   0  0  0  0  0  0  0  0  0  0  0  0
  154.4009  137.5191  186.3412 C   0  0  0  0  0  0  0  0  0  0  0  0
  155.4796  136.8787  186.9837 C   0  0  0  0  0  0  0  0  0  0  0  0
  155.6960  136.9833  188.3305 C   0  0  0  0  0  0  0  0  0  0  0  0
  154.4304  136.7416  191.3541 C   0  0  0  0  0  0  0  0  0  0  0  0
  155.1453  137.8370  190.5719 C   0  0  0  0  0  0  0  0  0  0  0  0
  154.7323  139.1819  191.1485 C   0  0  0  0  0  0  0  0  0  0  0  0
  156.6410  137.6562  190.8245 C   0  0  0  0  0  0  0  0  0  0  0  0
 37 38  1  0  0  0
 38 39  1  0  0  0
 38 40  1  0  0  0
 38 31  1  0  0  0
 31 32  2  0  0  0
 32 33  1  0  0  0
 33 34  2  0  0  0
 34 29  1  0  0  0
 29  1  1  0  0  0
  1  2  2  0  0  0
  2  3  1  0  0  0
  3  4  2  0  0  0
  4  5  1  0  0  0
  5  6  1  0  0  0
  6  7  1  0  0  0
  7  8  1  0  0  0
  8  9  1  0  0  0
  9 10  1  0  0  0
 10 11  1  0  0  0
  8 19  1  0  0  0
 19 20  2  0  0  0
 20 21  1  0  0  0
 21 22  2  0  0  0
 22 23  1  0  0  0
 23 24  2  0  0  0
 24 25  1  0  0  0
 25 26  1  0  0  0
 25 27  1  0  0  0
 25 28  1  0  0  0
  3 12  1  0  0  0
 12 13  1  0  0  0
 13 14  1  0  0  0
 14 15  1  0  0  0
 15 16  1  0  0  0
 16 17  1  0  0  0
 17 18  1  0  0  0
 34 35  1  0  0  0
 35 36  2  0  0  0
 36 31  1  0  0  0
 11  1  1  0  0  0
 24 19  1  0  0  0
 18 12  1  0  0  0
 11  5  2  0  0  0
 29 30  1  0  0  0
M  END
> <minimizedAffinity>
-10.37584

> <CNNscore>
0.4743715525

> <CNNaffinity>
7.2883286476

> <CNN_VS>
3.4573757648

> <CNNaffinity_variance>
0.1881040782

$$$$
[H]c1nc(N2C([H])([H])C([H])([H])c3nc(N4C([H])([H])C([H])([H])C([H])([H])C([H])([H])C([H])([H])C4([H])[H])nc(N([H])c4c([H])c([H])c(C(C([H])([H])[H])(C([H])([H])[H])C([H])([H])[H])c([H])c4[H])c3C([H])([H])C2([H])[H])c(C(F)(F)F)c([H])c1[H]


 40 44  0  0  0  0  0  0  0  0999 V2000
  153.5622  138.3303  184.1195 C   0  0  0  0  0  0  0  0  0  0  0  0
  152.5759  138.2314  183.1878 N   0  0  0  0  0  0  0  0  0  0  0  0
  152.2509  139.1558  182.2951 C   0  0  0  0  0  0  0  0  0  0  0  0
  152.9689  140.3168  182.3056 N   0  0  0  0  0  0  0  0  0  0  0  0
  153.9615  140.5384  183.1749 C   0  0  0  0  0  0  0  0  0  0  0  0
  154.6238  141.8370  183.0359 C   0  0  0  0  0  0  0  0  0  0  0  0
  156.0518  142.0101  183.2286 C   0  0  0  0  0  0  0  0  0  0  0  0
  156.8872  141.0291  183.8457 N   0  0  0  0  0  0  0  0  0  0  0  0
  156.6246  139.7566  184.4490 C   0  0  0  0  0  0  0  0  0  0  0  0
  155.2766  139.7470  185.1411 C   0  0  0  0  0  0  0  0  0  0  0  0
  154.2513  139.5284  184.0898 C   0  0  0  0  0  0  0  0  0  0  0  0
  151.1945  139.0143  181.3322 N   0  0  0  0  0  0  0  0  0  0  0  0
  149.9211  138.6032  181.8765 C   0  0  0  0  0  0  0  0  0  0  0  0
  149.4631  137.3044  181.3162 C   0  0  0  0  0  0  0  0  0  0  0  0
  149.4092  137.3257  179.8248 C   0  0  0  0  0  0  0  0  0  0  0  0
  149.1246  138.7057  179.3255 C   0  0  0  0  0  0  0  0  0  0  0  0
  150.3820  139.4287  179.0260 C   0  0  0  0  0  0  0  0  0  0  0  0
  151.5129  139.2953  179.9637 C   0  0  0  0  0  0  0  0  0  0  0  0
  158.2575  141.3755  183.8194 C   0  0  0  0  0  0  0  0  0  0  0  0
  158.7066  141.8246  185.0537 N   0  0  0  0  0  0  0  0  0  0  0  0
  160.0003  142.1208  185.2046 C   0  0  0  0  0  0  0  0  0  0  0  0
  160.8858  141.9878  184.1656 C   0  0  0  0  0  0  0  0  0  0  0  0
  160.4228  141.5428  182.9561 C   0  0  0  0  0  0  0  0  0  0  0  0
  159.0620  141.2189  182.7552 C   0  0  0  0  0  0  0  0  0  0  0  0
  158.6425  140.8298  181.4368 C   0  0  0  0  0  0  0  0  0  0  0  0
  158.8406  139.5114  181.1138 F   0  0  0  0  0  0  0  0  0  0  0  0
  159.5808  141.4916  180.5404 F   0  0  0  0  0  0  0  0  0  0  0  0
  157.4411  141.3347  180.9723 F   0  0  0  0  0  0  0  0  0  0  0  0
  153.9861  137.3106  184.9568 N   0  0  0  0  0  0  0  0  0  0  0  0
  154.2085  136.3770  184.4610 H   0  0  0  0  0  0  0  0  0  0  0  0
  154.5198  137.3838  189.1584 C   0  0  0  0  0  0  0  0  0  0  0  0
  153.3892  137.9256  188.5871 C   0  0  0  0  0  0  0  0  0  0  0  0
  153.1856  137.9041  187.1926 C   0  0  0  0  0  0  0  0  0  0  0  0
  154.1028  137.3448  186.3516 C   0  0  0  0  0  0  0  0  0  0  0  0
  155.2504  136.7960  186.9587 C   0  0  0  0  0  0  0  0  0  0  0  0
  155.4439  136.8185  188.3128 C   0  0  0  0  0  0  0  0  0  0  0  0
  155.1148  138.8235  191.0723 C   0  0  0  0  0  0  0  0  0  0  0  0
  154.7759  137.4128  190.6056 C   0  0  0  0  0  0  0  0  0  0  0  0
  155.9099  136.4882  191.0191 C   0  0  0  0  0  0  0  0  0  0  0  0
  153.5205  136.9859  191.3640 C   0  0  0  0  0  0  0  0  0  0  0  0
 37 38  1  0  0  0
 38 39  1  0  0  0
 38 40  1  0  0  0
 38 31  1  0  0  0
 31 32  2  0  0  0
 32 33  1  0  0  0
 33 34  2  0  0  0
 34 29  1  0  0  0
 29  1  1  0  0  0
  1  2  2  0  0  0
  2  3  1  0  0  0
  3  4  2  0  0  0
  4  5  1  0  0  0
  5  6  1  0  0  0
  6  7  1  0  0  0
  7  8  1  0  0  0
  8  9  1  0  0  0
  9 10  1  0  0  0
 10 11  1  0  0  0
  8 19  1  0  0  0
 19 20  2  0  0  0
 20 21  1  0  0  0
 21 22  2  0  0  0
 22 23  1  0  0  0
 23 24  2  0  0  0
 24 25  1  0  0  0
 25 26  1  0  0  0
 25 27  1  0  0  0
 25 28  1  0  0  0
  3 12  1  0  0  0
 12 13  1  0  0  0
 13 14  1  0  0  0
 14 15  1  0  0  0
 15 16  1  0  0  0
 16 17  1  0  0  0
 17 18  1  0  0  0
 34 35  1  0  0  0
 35 36  2  0  0  0
 36 31  1  0  0  0
 11  1  1  0  0  0
 24 19  1  0  0  0
 18 12  1  0  0  0
 11  5  2  0  0  0
 29 30  1  0  0  0
M  END
> <minimizedAffinity>
-10.73672

> <CNNscore>
0.4698534012

> <CNNaffinity>
7.4407515526

> <CNN_VS>
3.4960625172

> <CNNaffinity_variance>
0.0877801776

$$$$
[H]c1nc(N2C([H])([H])C([H])([H])c3nc(N4C([H])([H])C([H])([H])C([H])([H])C([H])([H])C([H])([H])C4([H])[H])nc(N([H])c4c([H])c([H])c(C(C([H])([H])[H])(C([H])([H])[H])C([H])([H])[H])c([H])c4[H])c3C([H])([H])C2([H])[H])c(C(F)(F)F)c([H])c1[H]


 40 44  0  0  0  0  0  0  0  0999 V2000
  153.6044  138.0042  185.1470 C   0  0  0  0  0  0  0  0  0  0  0  0
  154.2109  137.9541  186.3637 N   0  0  0  0  0  0  0  0  0  0  0  0
  154.3212  136.8829  187.1366 C   0  0  0  0  0  0  0  0  0  0  0  0
  153.7788  135.7184  186.6747 N   0  0  0  0  0  0  0  0  0  0  0  0
  153.1521  135.6374  185.4954 C   0  0  0  0  0  0  0  0  0  0  0  0
  152.6378  134.3077  185.1611 C   0  0  0  0  0  0  0  0  0  0  0  0
  152.6590  133.7791  183.8096 C   0  0  0  0  0  0  0  0  0  0  0  0
  152.8979  134.5839  182.6536 N   0  0  0  0  0  0  0  0  0  0  0  0
  153.1057  135.9884  182.4620 C   0  0  0  0  0  0  0  0  0  0  0  0
  152.3039  136.8009  183.4586 C   0  0  0  0  0  0  0  0  0  0  0  0
  153.0670  136.7999  184.7322 C   0  0  0  0  0  0  0  0  0  0  0  0
  154.9635  136.8752  188.4213 N   0  0  0  0  0  0  0  0  0  0  0  0
  154.1835  137.4380  189.4992 C   0  0  0  0  0  0  0  0  0  0  0  0
  154.8451  138.6184  190.1151 C   0  0  0  0  0  0  0  0  0  0  0  0
  156.2279  138.3054  190.5816 C   0  0  0  0  0  0  0  0  0  0  0  0
  156.3412  136.8670  190.9725 C   0  0  0  0  0  0  0  0  0  0  0  0
  156.8240  136.0476  189.8371 C   0  0  0  0  0  0  0  0  0  0  0  0
  156.2811  136.3167  188.4921 C   0  0  0  0  0  0  0  0  0  0  0  0
  152.9813  133.8277  181.4621 C   0  0  0  0  0  0  0  0  0  0  0  0
  151.7306  133.5728  180.9165 N   0  0  0  0  0  0  0  0  0  0  0  0
  151.6514  132.9297  179.7485 C   0  0  0  0  0  0  0  0  0  0  0  0
  152.7796  132.5210  179.0841 C   0  0  0  0  0  0  0  0  0  0  0  0
  154.0040  132.7827  179.6389 C   0  0  0  0  0  0  0  0  0  0  0  0
  154.1310  133.4602  180.8726 C   0  0  0  0  0  0  0  0  0  0  0  0
  155.4475  133.6306  181.4231 C   0  0  0  0  0  0  0  0  0  0  0  0
  156.3440  134.2973  180.6273 F   0  0  0  0  0  0  0  0  0  0  0  0
  156.0169  132.2898  181.4404 F   0  0  0  0  0  0  0  0  0  0  0  0
  155.5428  133.9692  182.7612 F   0  0  0  0  0  0  0  0  0  0  0  0
  153.6122  139.0898  184.2858 N   0  0  0  0  0  0  0  0  0  0  0  0
  152.6355  139.4624  184.0138 H   0  0  0  0  0  0  0  0  0  0  0  0
  156.8697  141.0999  182.4714 C   0  0  0  0  0  0  0  0  0  0  0  0
  157.0903  140.0812  183.3723 C   0  0  0  0  0  0  0  0  0  0  0  0
  156.0222  139.3918  183.9810 C   0  0  0  0  0  0  0  0  0  0  0  0
  154.7247  139.7075  183.7016 C   0  0  0  0  0  0  0  0  0  0  0  0
  154.5237  140.7518  182.7765 C   0  0  0  0  0  0  0  0  0  0  0  0
  155.5633  141.4180  182.1874 C   0  0  0  0  0  0  0  0  0  0  0  0
  158.2538  141.3258  180.4408 C   0  0  0  0  0  0  0  0  0  0  0  0
  157.9596  141.8568  181.8387 C   0  0  0  0  0  0  0  0  0  0  0  0
  159.2476  141.8155  182.6456 C   0  0  0  0  0  0  0  0  0  0  0  0
  157.5512  143.3201  181.6789 C   0  0  0  0  0  0  0  0  0  0  0  0
 37 38  1  0  0  0
 38 39  1  0  0  0
 38 40  1  0  0  0
 38 31  1  0  0  0
 31 32  2  0  0  0
 32 33  1  0  0  0
 33 34  2  0  0  0
 34 29  1  0  0  0
 29  1  1  0  0  0
  1  2  2  0  0  0
  2  3  1  0  0  0
  3  4  2  0  0  0
  4  5  1  0  0  0
  5  6  1  0  0  0
  6  7  1  0  0  0
  7  8  1  0  0  0
  8  9  1  0  0  0
  9 10  1  0  0  0
 10 11  1  0  0  0
  8 19  1  0  0  0
 19 20  2  0  0  0
 20 21  1  0  0  0
 21 22  2  0  0  0
 22 23  1  0  0  0
 23 24  2  0  0  0
 24 25  1  0  0  0
 25 26  1  0  0  0
 25 27  1  0  0  0
 25 28  1  0  0  0
  3 12  1  0  0  0
 12 13  1  0  0  0
 13 14  1  0  0  0
 14 15  1  0  0  0
 15 16  1  0  0  0
 16 17  1  0  0  0
 17 18  1  0  0  0
 34 35  1  0  0  0
 35 36  2  0  0  0
 36 31  1  0  0  0
 11  1  1  0  0  0
 24 19  1  0  0  0
 18 12  1  0  0  0
 11  5  2  0  0  0
 29 30  1  0  0  0
M  END
> <minimizedAffinity>
-8.44783

> <CNNscore>
0.3965829015

> <CNNaffinity>
6.9753417969

> <CNN_VS>
2.7663013935

> <CNNaffinity_variance>
0.0340823606

$$$$
[H]c1nc(N2C([H])([H])C([H])([H])c3nc(N4C([H])([H])C([H])([H])C([H])([H])C([H])([H])C([H])([H])C4([H])[H])nc(N([H])c4c([H])c([H])c(C(C([H])([H])[H])(C([H])([H])[H])C([H])([H])[H])c([H])c4[H])c3C([H])([H])C2([H])[H])c(C(F)(F)F)c([H])c1[H]


 40 44  0  0  0  0  0  0  0  0999 V2000
  154.7229  139.7020  183.6553 C   0  0  0  0  0  0  0  0  0  0  0  0
  154.2648  138.9737  184.7091 N   0  0  0  0  0  0  0  0  0  0  0  0
  154.9901  138.5355  185.7284 C   0  0  0  0  0  0  0  0  0  0  0  0
  156.3207  138.8403  185.7274 N   0  0  0  0  0  0  0  0  0  0  0  0
  156.8939  139.5469  184.7465 C   0  0  0  0  0  0  0  0  0  0  0  0
  158.3293  139.7826  184.9145 C   0  0  0  0  0  0  0  0  0  0  0  0
  158.9668  141.0282  184.5294 C   0  0  0  0  0  0  0  0  0  0  0  0
  158.3413  142.0085  183.6994 N   0  0  0  0  0  0  0  0  0  0  0  0
  157.0823  142.0573  183.0175 C   0  0  0  0  0  0  0  0  0  0  0  0
  156.6669  140.6815  182.5367 C   0  0  0  0  0  0  0  0  0  0  0  0
  156.0773  139.9752  183.7020 C   0  0  0  0  0  0  0  0  0  0  0  0
  154.4674  137.7606  186.8190 N   0  0  0  0  0  0  0  0  0  0  0  0
  153.6068  138.4837  187.7266 C   0  0  0  0  0  0  0  0  0  0  0  0
  154.1467  138.5111  189.1115 C   0  0  0  0  0  0  0  0  0  0  0  0
  154.4189  137.1396  189.6338 C   0  0  0  0  0  0  0  0  0  0  0  0
  153.4879  136.1450  189.0184 C   0  0  0  0  0  0  0  0  0  0  0  0
  154.0972  135.5223  187.8205 C   0  0  0  0  0  0  0  0  0  0  0  0
  154.8464  136.3803  186.8834 C   0  0  0  0  0  0  0  0  0  0  0  0
  159.1134  143.1839  183.5556 C   0  0  0  0  0  0  0  0  0  0  0  0
  158.7279  143.9301  182.4503 N   0  0  0  0  0  0  0  0  0  0  0  0
  159.3182  145.1068  182.2244 C   0  0  0  0  0  0  0  0  0  0  0  0
  160.2921  145.5862  183.0630 C   0  0  0  0  0  0  0  0  0  0  0  0
  160.6575  144.8350  184.1481 C   0  0  0  0  0  0  0  0  0  0  0  0
  160.0578  143.5851  184.4224 C   0  0  0  0  0  0  0  0  0  0  0  0
  160.5490  142.8249  185.5387 C   0  0  0  0  0  0  0  0  0  0  0  0
  159.6413  142.5790  186.5373 F   0  0  0  0  0  0  0  0  0  0  0  0
  161.4840  143.7173  186.2104 F   0  0  0  0  0  0  0  0  0  0  0  0
  161.3715  141.7463  185.2661 F   0  0  0  0  0  0  0  0  0  0  0  0
  153.9373  140.2719  182.6663 N   0  0  0  0  0  0  0  0  0  0  0  0
  154.2597  141.2481  182.3346 H   0  0  0  0  0  0  0  0  0  0  0  0
  150.4281  138.7981  180.8069 C   0  0  0  0  0  0  0  0  0  0  0  0
  150.9682  138.1494  181.8958 C   0  0  0  0  0  0  0  0  0  0  0  0
  152.1293  138.6268  182.5365 C   0  0  0  0  0  0  0  0  0  0  0  0
  152.7659  139.7526  182.1020 C   0  0  0  0  0  0  0  0  0  0  0  0
  152.1947  140.3996  180.9877 C   0  0  0  0  0  0  0  0  0  0  0  0
  151.0671  139.9332  180.3690 C   0  0  0  0  0  0  0  0  0  0  0  0
  147.9650  138.9059  180.6991 C   0  0  0  0  0  0  0  0  0  0  0  0
  149.2345  138.3130  180.0993 C   0  0  0  0  0  0  0  0  0  0  0  0
  149.1122  136.7977  180.1259 C   0  0  0  0  0  0  0  0  0  0  0  0
  149.2813  138.7556  178.6378 C   0  0  0  0  0  0  0  0  0  0  0  0
 37 38  1  0  0  0
 38 39  1  0  0  0
 38 40  1  0  0  0
 38 31  1  0  0  0
 31 32  2  0  0  0
 32 33  1  0  0  0
 33 34  2  0  0  0
 34 29  1  0  0  0
 29  1  1  0  0  0
  1  2  2  0  0  0
  2  3  1  0  0  0
  3  4  2  0  0  0
  4  5  1  0  0  0
  5  6  1  0  0  0
  6  7  1  0  0  0
  7  8  1  0  0  0
  8  9  1  0  0  0
  9 10  1  0  0  0
 10 11  1  0  0  0
  8 19  1  0  0  0
 19 20  2  0  0  0
 20 21  1  0  0  0
 21 22  2  0  0  0
 22 23  1  0  0  0
 23 24  2  0  0  0
 24 25  1  0  0  0
 25 26  1  0  0  0
 25 27  1  0  0  0
 25 28  1  0  0  0
  3 12  1  0  0  0
 12 13  1  0  0  0
 13 14  1  0  0  0
 14 15  1  0  0  0
 15 16  1  0  0  0
 16 17  1  0  0  0
 17 18  1  0  0  0
 34 35  1  0  0  0
 35 36  2  0  0  0
 36 31  1  0  0  0
 11  1  1  0  0  0
 24 19  1  0  0  0
 18 12  1  0  0  0
 11  5  2  0  0  0
 29 30  1  0  0  0
M  END
> <minimizedAffinity>
-11.02956

> <CNNscore>
0.3612124920

> <CNNaffinity>
7.4719610214

> <CNN_VS>
2.6989655495

> <CNNaffinity_variance>
0.0681703016

$$$$
[H]c1nc(N2C([H])([H])C([H])([H])c3nc(N4C([H])([H])C([H])([H])C([H])([H])C([H])([H])C([H])([H])C4([H])[H])nc(N([H])c4c([H])c([H])c(C(C([H])([H])[H])(C([H])([H])[H])C([H])([H])[H])c([H])c4[H])c3C([H])([H])C2([H])[H])c(C(F)(F)F)c([H])c1[H]


 40 44  0  0  0  0  0  0  0  0999 V2000
  153.9735  138.3291  185.5122 C   0  0  0  0  0  0  0  0  0  0  0  0
  154.5427  138.3282  186.7478 N   0  0  0  0  0  0  0  0  0  0  0  0
  154.7463  137.2644  187.5119 C   0  0  0  0  0  0  0  0  0  0  0  0
  154.3512  136.0542  187.0192 N   0  0  0  0  0  0  0  0  0  0  0  0
  153.7752  135.9220  185.8188 C   0  0  0  0  0  0  0  0  0  0  0  0
  153.4223  134.5488  185.4526 C   0  0  0  0  0  0  0  0  0  0  0  0
  153.5450  134.0459  184.0968 C   0  0  0  0  0  0  0  0  0  0  0  0
  153.7299  134.8891  182.9585 N   0  0  0  0  0  0  0  0  0  0  0  0
  153.7869  136.3106  182.7897 C   0  0  0  0  0  0  0  0  0  0  0  0
  152.8687  137.0148  183.7681 C   0  0  0  0  0  0  0  0  0  0  0  0
  153.5862  137.0791  185.0663 C   0  0  0  0  0  0  0  0  0  0  0  0
  155.3443  137.3085  188.8171 N   0  0  0  0  0  0  0  0  0  0  0  0
  156.5554  136.5344  188.9621 C   0  0  0  0  0  0  0  0  0  0  0  0
  156.4194  135.4644  189.9854 C   0  0  0  0  0  0  0  0  0  0  0  0
  155.9862  136.0053  191.3073 C   0  0  0  0  0  0  0  0  0  0  0  0
  156.4682  137.4088  191.4880 C   0  0  0  0  0  0  0  0  0  0  0  0
  155.4395  138.3808  191.0513 C   0  0  0  0  0  0  0  0  0  0  0  0
  154.6886  138.1042  189.8121 C   0  0  0  0  0  0  0  0  0  0  0  0
  153.9345  134.1644  181.7620 C   0  0  0  0  0  0  0  0  0  0  0  0
  155.2812  133.9421  181.5097 N   0  0  0  0  0  0  0  0  0  0  0  0
  155.6298  133.2063  180.4508 C   0  0  0  0  0  0  0  0  0  0  0  0
  154.6834  132.6700  179.6153 C   0  0  0  0  0  0  0  0  0  0  0  0
  153.3602  132.9006  179.8820 C   0  0  0  0  0  0  0  0  0  0  0  0
  152.9498  133.6734  180.9917 C   0  0  0  0  0  0  0  0  0  0  0  0
  151.5459  133.9305  181.1601 C   0  0  0  0  0  0  0  0  0  0  0  0
  150.9086  133.1629  182.1015 F   0  0  0  0  0  0  0  0  0  0  0  0
  150.9320  133.4488  179.9300 F   0  0  0  0  0  0  0  0  0  0  0  0
  151.1319  135.2507  181.1558 F   0  0  0  0  0  0  0  0  0  0  0  0
  153.8884  139.4217  184.6640 N   0  0  0  0  0  0  0  0  0  0  0  0
  152.8881  139.7957  184.5022 H   0  0  0  0  0  0  0  0  0  0  0  0
  157.1476  141.1581  182.5888 C   0  0  0  0  0  0  0  0  0  0  0  0
  155.8693  141.6413  182.4138 C   0  0  0  0  0  0  0  0  0  0  0  0
  154.7711  141.0859  183.1009 C   0  0  0  0  0  0  0  0  0  0  0  0
  154.9313  140.0447  183.9680 C   0  0  0  0  0  0  0  0  0  0  0  0
  156.2476  139.5682  184.1316 C   0  0  0  0  0  0  0  0  0  0  0  0
  157.3109  140.1106  183.4632 C   0  0  0  0  0  0  0  0  0  0  0  0
  158.4365  141.0670  180.4863 C   0  0  0  0  0  0  0  0  0  0  0  0
  158.3106  141.6963  181.8687 C   0  0  0  0  0  0  0  0  0  0  0  0
  159.6167  141.4740  182.6148 C   0  0  0  0  0  0  0  0  0  0  0  0
  158.1401  143.1994  181.6564 C   0  0  0  0  0  0  0  0  0  0  0  0
 37 38  1  0  0  0
 38 39  1  0  0  0
 38 40  1  0  0  0
 38 31  1  0  0  0
 31 32  2  0  0  0
 32 33  1  0  0  0
 33 34  2  0  0  0
 34 29  1  0  0  0
 29  1  1  0  0  0
  1  2  2  0  0  0
  2  3  1  0  0  0
  3  4  2  0  0  0
  4  5  1  0  0  0
  5  6  1  0  0  0
  6  7  1  0  0  0
  7  8  1  0  0  0
  8  9  1  0  0  0
  9 10  1  0  0  0
 10 11  1  0  0  0
  8 19  1  0  0  0
 19 20  2  0  0  0
 20 21  1  0  0  0
 21 22  2  0  0  0
 22 23  1  0  0  0
 23 24  2  0  0  0
 24 25  1  0  0  0
 25 26  1  0  0  0
 25 27  1  0  0  0
 25 28  1  0  0  0
  3 12  1  0  0  0
 12 13  1  0  0  0
 13 14  1  0  0  0
 14 15  1  0  0  0
 15 16  1  0  0  0
 16 17  1  0  0  0
 17 18  1  0  0  0
 34 35  1  0  0  0
 35 36  2  0  0  0
 36 31  1  0  0  0
 11  1  1  0  0  0
 24 19  1  0  0  0
 18 12  1  0  0  0
 11  5  2  0  0  0
 29 30  1  0  0  0
M  END
> <minimizedAffinity>
-8.15197

> <CNNscore>
0.3074969351

> <CNNaffinity>
6.8841834068

> <CNN_VS>
2.1168653965

> <CNNaffinity_variance>
0.0216894671

$$$$
[H]c1nc(N2C([H])([H])C([H])([H])c3nc(N4C([H])([H])C([H])([H])C([H])([H])C([H])([H])C([H])([H])C4([H])[H])nc(N([H])c4c([H])c([H])c(C(C([H])([H])[H])(C([H])([H])[H])C([H])([H])[H])c([H])c4[H])c3C([H])([H])C2([H])[H])c(C(F)(F)F)c([H])c1[H]


 40 44  0  0  0  0  0  0  0  0999 V2000
  153.0626  137.0042  187.2400 C   0  0  0  0  0  0  0  0  0  0  0  0
  152.9906  136.1851  188.3238 N   0  0  0  0  0  0  0  0  0  0  0  0
  154.0117  135.5775  188.9113 C   0  0  0  0  0  0  0  0  0  0  0  0
  155.2536  135.7895  188.3857 N   0  0  0  0  0  0  0  0  0  0  0  0
  155.4570  136.5704  187.3185 C   0  0  0  0  0  0  0  0  0  0  0  0
  156.8546  136.6861  186.8971 C   0  0  0  0  0  0  0  0  0  0  0  0
  157.4173  137.9236  186.3887 C   0  0  0  0  0  0  0  0  0  0  0  0
  156.6239  139.0380  185.9770 N   0  0  0  0  0  0  0  0  0  0  0  0
  155.2109  139.2550  185.8835 C   0  0  0  0  0  0  0  0  0  0  0  0
  154.4856  137.9796  185.5041 C   0  0  0  0  0  0  0  0  0  0  0  0
  154.3418  137.1775  186.7451 C   0  0  0  0  0  0  0  0  0  0  0  0
  153.8907  134.7121  190.0513 N   0  0  0  0  0  0  0  0  0  0  0  0
  152.6315  134.0120  190.1575 C   0  0  0  0  0  0  0  0  0  0  0  0
  151.8981  134.3604  191.4030 C   0  0  0  0  0  0  0  0  0  0  0  0
  152.7259  134.1305  192.6234 C   0  0  0  0  0  0  0  0  0  0  0  0
  153.7023  133.0210  192.3989 C   0  0  0  0  0  0  0  0  0  0  0  0
  155.0062  133.5504  191.9371 C   0  0  0  0  0  0  0  0  0  0  0  0
  155.0130  134.6364  190.9389 C   0  0  0  0  0  0  0  0  0  0  0  0
  157.3984  140.1674  185.6259 C   0  0  0  0  0  0  0  0  0  0  0  0
  158.3143  140.5005  186.6144 N   0  0  0  0  0  0  0  0  0  0  0  0
  159.1688  141.5035  186.3954 C   0  0  0  0  0  0  0  0  0  0  0  0
  159.1555  142.2039  185.2161 C   0  0  0  0  0  0  0  0  0  0  0  0
  158.2446  141.8592  184.2535 C   0  0  0  0  0  0  0  0  0  0  0  0
  157.3236  140.8047  184.4459 C   0  0  0  0  0  0  0  0  0  0  0  0
  156.3516  140.5539  183.4174 C   0  0  0  0  0  0  0  0  0  0  0  0
  156.4627  139.3472  182.7746 F   0  0  0  0  0  0  0  0  0  0  0  0
  156.6954  141.4834  182.3498 F   0  0  0  0  0  0  0  0  0  0  0  0
  155.0425  140.9232  183.6702 F   0  0  0  0  0  0  0  0  0  0  0  0
  152.0137  137.7428  186.7159 N   0  0  0  0  0  0  0  0  0  0  0  0
  151.9490  138.7598  187.0743 H   0  0  0  0  0  0  0  0  0  0  0  0
  149.1385  136.3656  183.9265 C   0  0  0  0  0  0  0  0  0  0  0  0
  148.7925  136.5716  185.2441 C   0  0  0  0  0  0  0  0  0  0  0  0
  149.7296  137.0385  186.1877 C   0  0  0  0  0  0  0  0  0  0  0  0
  151.0196  137.3051  185.8324 C   0  0  0  0  0  0  0  0  0  0  0  0
  151.3499  137.0881  184.4795 C   0  0  0  0  0  0  0  0  0  0  0  0
  150.4371  136.6353  183.5666 C   0  0  0  0  0  0  0  0  0  0  0  0
  148.8089  135.8835  181.5288 C   0  0  0  0  0  0  0  0  0  0  0  0
  148.1938  135.8546  182.9230 C   0  0  0  0  0  0  0  0  0  0  0  0
  146.8935  136.6420  182.8871 C   0  0  0  0  0  0  0  0  0  0  0  0
  147.8526  134.3967  183.2256 C   0  0  0  0  0  0  0  0  0  0  0  0
 37 38  1  0  0  0
 38 39  1  0  0  0
 38 40  1  0  0  0
 38 31  1  0  0  0
 31 32  2  0  0  0
 32 33  1  0  0  0
 33 34  2  0  0  0
 34 29  1  0  0  0
 29  1  1  0  0  0
  1  2  2  0  0  0
  2  3  1  0  0  0
  3  4  2  0  0  0
  4  5  1  0  0  0
  5  6  1  0  0  0
  6  7  1  0  0  0
  7  8  1  0  0  0
  8  9  1  0  0  0
  9 10  1  0  0  0
 10 11  1  0  0  0
  8 19  1  0  0  0
 19 20  2  0  0  0
 20 21  1  0  0  0
 21 22  2  0  0  0
 22 23  1  0  0  0
 23 24  2  0  0  0
 24 25  1  0  0  0
 25 26  1  0  0  0
 25 27  1  0  0  0
 25 28  1  0  0  0
  3 12  1  0  0  0
 12 13  1  0  0  0
 13 14  1  0  0  0
 14 15  1  0  0  0
 15 16  1  0  0  0
 16 17  1  0  0  0
 17 18  1  0  0  0
 34 35  1  0  0  0
 35 36  2  0  0  0
 36 31  1  0  0  0
 11  1  1  0  0  0
 24 19  1  0  0  0
 18 12  1  0  0  0
 11  5  2  0  0  0
 29 30  1  0  0  0
M  END
> <minimizedAffinity>
-1.25977

> <CNNscore>
0.2517847419

> <CNNaffinity>
6.5805015564

> <CNN_VS>
1.6568698883

> <CNNaffinity_variance>
1.3513107300

$$$$
[H]c1nc(N2C([H])([H])C([H])([H])c3nc(N4C([H])([H])C([H])([H])C([H])([H])C([H])([H])C([H])([H])C4([H])[H])nc(N([H])c4c([H])c([H])c(C(C([H])([H])[H])(C([H])([H])[H])C([H])([H])[H])c([H])c4[H])c3C([H])([H])C2([H])[H])c(C(F)(F)F)c([H])c1[H]


 40 44  0  0  0  0  0  0  0  0999 V2000
  154.2639  137.4864  185.0426 C   0  0  0  0  0  0  0  0  0  0  0  0
  154.1527  136.6832  183.9503 N   0  0  0  0  0  0  0  0  0  0  0  0
  154.0918  135.3591  183.9589 C   0  0  0  0  0  0  0  0  0  0  0  0
  154.1443  134.7373  185.1730 N   0  0  0  0  0  0  0  0  0  0  0  0
  154.2575  135.4146  186.3213 C   0  0  0  0  0  0  0  0  0  0  0  0
  154.2937  134.5831  187.5261 C   0  0  0  0  0  0  0  0  0  0  0  0
  153.6570  134.9799  188.7685 C   0  0  0  0  0  0  0  0  0  0  0  0
  153.2014  136.3084  189.0298 N   0  0  0  0  0  0  0  0  0  0  0  0
  153.2654  137.5314  188.2864 C   0  0  0  0  0  0  0  0  0  0  0  0
  154.5404  137.6099  187.4712 C   0  0  0  0  0  0  0  0  0  0  0  0
  154.3201  136.8042  186.2437 C   0  0  0  0  0  0  0  0  0  0  0  0
  153.9829  134.5468  182.7793 N   0  0  0  0  0  0  0  0  0  0  0  0
  155.0893  133.6460  182.5520 C   0  0  0  0  0  0  0  0  0  0  0  0
  155.7888  133.9271  181.2706 C   0  0  0  0  0  0  0  0  0  0  0  0
  154.8547  133.9082  180.1066 C   0  0  0  0  0  0  0  0  0  0  0  0
  153.7151  132.9740  180.3583 C   0  0  0  0  0  0  0  0  0  0  0  0
  152.5582  133.6959  180.9363 C   0  0  0  0  0  0  0  0  0  0  0  0
  152.8088  134.7129  181.9750 C   0  0  0  0  0  0  0  0  0  0  0  0
  152.5153  136.4247  190.2604 C   0  0  0  0  0  0  0  0  0  0  0  0
  153.3153  136.9704  191.2550 N   0  0  0  0  0  0  0  0  0  0  0  0
  152.7833  137.2099  192.4566 C   0  0  0  0  0  0  0  0  0  0  0  0
  151.4672  136.9277  192.7203 C   0  0  0  0  0  0  0  0  0  0  0  0
  150.6948  136.3903  191.7254 C   0  0  0  0  0  0  0  0  0  0  0  0
  151.2192  136.1218  190.4409 C   0  0  0  0  0  0  0  0  0  0  0  0
  150.3634  135.4891  189.4751 C   0  0  0  0  0  0  0  0  0  0  0  0
  150.2074  136.1590  188.2883 F   0  0  0  0  0  0  0  0  0  0  0  0
  149.0261  135.5916  190.0434 F   0  0  0  0  0  0  0  0  0  0  0  0
  150.4749  134.1186  189.3217 F   0  0  0  0  0  0  0  0  0  0  0  0
  154.1892  138.8701  185.0374 N   0  0  0  0  0  0  0  0  0  0  0  0
  153.3627  139.2838  185.5965 H   0  0  0  0  0  0  0  0  0  0  0  0
  156.5623  141.6988  182.9611 C   0  0  0  0  0  0  0  0  0  0  0  0
  157.1534  140.6974  183.7000 C   0  0  0  0  0  0  0  0  0  0  0  0
  156.3843  139.7395  184.3910 C   0  0  0  0  0  0  0  0  0  0  0  0
  155.0206  139.7669  184.3556 C   0  0  0  0  0  0  0  0  0  0  0  0
  154.4386  140.7993  183.5927 C   0  0  0  0  0  0  0  0  0  0  0  0
  155.1889  141.7268  182.9230 C   0  0  0  0  0  0  0  0  0  0  0  0
  157.6636  142.2824  180.8312 C   0  0  0  0  0  0  0  0  0  0  0  0
  157.3336  142.7289  182.2505 C   0  0  0  0  0  0  0  0  0  0  0  0
  158.6347  143.0779  182.9556 C   0  0  0  0  0  0  0  0  0  0  0  0
  156.5059  144.0072  182.1306 C   0  0  0  0  0  0  0  0  0  0  0  0
 37 38  1  0  0  0
 38 39  1  0  0  0
 38 40  1  0  0  0
 38 31  1  0  0  0
 31 32  2  0  0  0
 32 33  1  0  0  0
 33 34  2  0  0  0
 34 29  1  0  0  0
 29  1  1  0  0  0
  1  2  2  0  0  0
  2  3  1  0  0  0
  3  4  2  0  0  0
  4  5  1  0  0  0
  5  6  1  0  0  0
  6  7  1  0  0  0
  7  8  1  0  0  0
  8  9  1  0  0  0
  9 10  1  0  0  0
 10 11  1  0  0  0
  8 19  1  0  0  0
 19 20  2  0  0  0
 20 21  1  0  0  0
 21 22  2  0  0  0
 22 23  1  0  0  0
 23 24  2  0  0  0
 24 25  1  0  0  0
 25 26  1  0  0  0
 25 27  1  0  0  0
 25 28  1  0  0  0
  3 12  1  0  0  0
 12 13  1  0  0  0
 13 14  1  0  0  0
 14 15  1  0  0  0
 15 16  1  0  0  0
 16 17  1  0  0  0
 17 18  1  0  0  0
 34 35  1  0  0  0
 35 36  2  0  0  0
 36 31  1  0  0  0
 11  1  1  0  0  0
 24 19  1  0  0  0
 18 12  1  0  0  0
 11  5  2  0  0  0
 29 30  1  0  0  0
M  END
> <minimizedAffinity>
-8.29872

> <CNNscore>
0.2001607418

> <CNNaffinity>
6.6174249649

> <CNN_VS>
1.3245487213

> <CNNaffinity_variance>
0.0544648767

$$$$
[H]c1c([H])c(C(F)(F)F)c([H])c([H])c1N([H])C(=O)C1(C(=O)N([H])c2c([H])c([H])c(C(C([H])([H])[H])(C([H])([H])[H])C([H])([H])[H])c([H])c2[H])C([H])([H])C1([H])[H]


 31 33  0  0  0  0  0  0  0  0999 V2000
  153.9752  138.0173  185.0558 C   0  0  0  0  0  0  0  0  0  0  0  0
  152.9027  137.6418  184.0526 C   0  0  0  0  0  0  0  0  0  0  0  0
  154.0804  136.7514  184.2585 C   0  0  0  0  0  0  0  0  0  0  0  0
  153.8419  136.7161  187.2824 N   0  0  0  0  0  0  0  0  0  0  0  0
  153.5678  137.8502  186.4936 C   0  0  0  0  0  0  0  0  0  0  0  0
  152.9487  138.8226  186.9608 O   0  0  0  0  0  0  0  0  0  0  0  0
  154.3571  135.8966  186.9975 H   0  0  0  0  0  0  0  0  0  0  0  0
  152.4047  136.6095  191.2749 C   0  0  0  0  0  0  0  0  0  0  0  0
  151.6423  136.1183  190.2243 C   0  0  0  0  0  0  0  0  0  0  0  0
  152.1086  136.1601  188.9321 C   0  0  0  0  0  0  0  0  0  0  0  0
  153.3584  136.6997  188.6411 C   0  0  0  0  0  0  0  0  0  0  0  0
  154.0807  137.1783  189.6717 C   0  0  0  0  0  0  0  0  0  0  0  0
  153.6333  137.1445  190.9793 C   0  0  0  0  0  0  0  0  0  0  0  0
  152.1122  137.9076  193.3490 C   0  0  0  0  0  0  0  0  0  0  0  0
  151.9769  136.5449  192.6866 C   0  0  0  0  0  0  0  0  0  0  0  0
  152.8329  135.5620  193.4633 C   0  0  0  0  0  0  0  0  0  0  0  0
  150.5064  136.1928  192.7221 C   0  0  0  0  0  0  0  0  0  0  0  0
  155.0002  139.0276  184.7184 C   0  0  0  0  0  0  0  0  0  0  0  0
  156.0251  139.1301  185.4006 O   0  0  0  0  0  0  0  0  0  0  0  0
  154.7768  139.8667  183.6085 N   0  0  0  0  0  0  0  0  0  0  0  0
  153.8758  139.7448  183.0615 H   0  0  0  0  0  0  0  0  0  0  0  0
  155.6465  140.8994  183.1551 C   0  0  0  0  0  0  0  0  0  0  0  0
  155.2910  142.2134  183.4249 C   0  0  0  0  0  0  0  0  0  0  0  0
  156.1225  143.2170  183.0509 C   0  0  0  0  0  0  0  0  0  0  0  0
  157.3250  142.9958  182.4068 C   0  0  0  0  0  0  0  0  0  0  0  0
  157.6763  141.7138  182.1458 C   0  0  0  0  0  0  0  0  0  0  0  0
  156.8374  140.6691  182.5198 C   0  0  0  0  0  0  0  0  0  0  0  0
  158.2139  144.1222  182.0213 C   0  0  0  0  0  0  0  0  0  0  0  0
  159.3231  144.0679  182.8649 F   0  0  0  0  0  0  0  0  0  0  0  0
  157.5881  145.3134  182.2574 F   0  0  0  0  0  0  0  0  0  0  0  0
  158.5842  144.0533  180.6945 F   0  0  0  0  0  0  0  0  0  0  0  0
 14 15  1  0  0  0
 15 16  1  0  0  0
 15 17  1  0  0  0
 15  8  1  0  0  0
  8  9  2  0  0  0
  9 10  1  0  0  0
 10 11  2  0  0  0
 11  4  1  0  0  0
  4  5  1  0  0  0
  5  6  2  0  0  0
  5  1  1  0  0  0
  1  2  1  0  0  0
  2  3  1  0  0  0
  1 18  1  0  0  0
 18 19  2  0  0  0
 18 20  1  0  0  0
 20 22  1  0  0  0
 22 23  2  0  0  0
 23 24  1  0  0  0
 24 25  2  0  0  0
 25 26  1  0  0  0
 26 27  2  0  0  0
 25 28  1  0  0  0
 28 29  1  0  0  0
 28 30  1  0  0  0
 28 31  1  0  0  0
 11 12  1  0  0  0
 12 13  2  0  0  0
 13  8  1  0  0  0
  3  1  1  0  0  0
 27 22  1  0  0  0
  4  7  1  0  0  0
 20 21  1  0  0  0
M  END
> <minimizedAffinity>
-8.07610

> <CNNscore>
0.3797180653

> <CNNaffinity>
5.5217790604

> <CNN_VS>
2.0967192650

> <CNNaffinity_variance>
0.2252523899

$$$$
[H]c1c([H])c(C(F)(F)F)c([H])c([H])c1N([H])C(=O)C1(C(=O)N([H])c2c([H])c([H])c(C(C([H])([H])[H])(C([H])([H])[H])C([H])([H])[H])c([H])c2[H])C([H])([H])C1([H])[H]


 31 33  0  0  0  0  0  0  0  0999 V2000
  154.0213  137.6910  185.6172 C   0  0  0  0  0  0  0  0  0  0  0  0
  154.3029  136.2977  185.0906 C   0  0  0  0  0  0  0  0  0  0  0  0
  153.0745  137.0258  184.6630 C   0  0  0  0  0  0  0  0  0  0  0  0
  154.5902  139.5008  183.8652 N   0  0  0  0  0  0  0  0  0  0  0  0
  154.8920  138.7662  185.0283 C   0  0  0  0  0  0  0  0  0  0  0  0
  155.9398  138.9747  185.6653 O   0  0  0  0  0  0  0  0  0  0  0  0
  153.7569  139.4185  183.3022 H   0  0  0  0  0  0  0  0  0  0  0  0
  157.3974  142.4190  182.5920 C   0  0  0  0  0  0  0  0  0  0  0  0
  156.2031  142.7872  183.1958 C   0  0  0  0  0  0  0  0  0  0  0  0
  155.2940  141.8396  183.6013 C   0  0  0  0  0  0  0  0  0  0  0  0
  155.5450  140.4831  183.4143 C   0  0  0  0  0  0  0  0  0  0  0  0
  156.7049  140.1449  182.8201 C   0  0  0  0  0  0  0  0  0  0  0  0
  157.6350  141.0803  182.4064 C   0  0  0  0  0  0  0  0  0  0  0  0
  157.8652  144.8013  182.1699 C   0  0  0  0  0  0  0  0  0  0  0  0
  158.4319  143.3896  182.1827 C   0  0  0  0  0  0  0  0  0  0  0  0
  158.9390  143.0783  180.7869 C   0  0  0  0  0  0  0  0  0  0  0  0
  159.5329  143.3768  183.2197 C   0  0  0  0  0  0  0  0  0  0  0  0
  153.4697  137.8846  186.9749 C   0  0  0  0  0  0  0  0  0  0  0  0
  152.7619  138.8652  187.2280 O   0  0  0  0  0  0  0  0  0  0  0  0
  153.7736  136.9301  187.9661 N   0  0  0  0  0  0  0  0  0  0  0  0
  154.3941  136.1116  187.7000 H   0  0  0  0  0  0  0  0  0  0  0  0
  153.3424  136.9703  189.3229 C   0  0  0  0  0  0  0  0  0  0  0  0
  152.1290  136.3746  189.6370 C   0  0  0  0  0  0  0  0  0  0  0  0
  151.7143  136.3517  190.9277 C   0  0  0  0  0  0  0  0  0  0  0  0
  152.4495  136.8975  191.9629 C   0  0  0  0  0  0  0  0  0  0  0  0
  153.6362  137.4761  191.6596 C   0  0  0  0  0  0  0  0  0  0  0  0
  154.0799  137.5116  190.3416 C   0  0  0  0  0  0  0  0  0  0  0  0
  151.9655  136.8442  193.3666 C   0  0  0  0  0  0  0  0  0  0  0  0
  152.6703  135.8195  193.9978 F   0  0  0  0  0  0  0  0  0  0  0  0
  150.6443  136.4975  193.3925 F   0  0  0  0  0  0  0  0  0  0  0  0
  152.1366  138.0493  194.0151 F   0  0  0  0  0  0  0  0  0  0  0  0
 14 15  1  0  0  0
 15 16  1  0  0  0
 15 17  1  0  0  0
 15  8  1  0  0  0
  8  9  2  0  0  0
  9 10  1  0  0  0
 10 11  2  0  0  0
 11  4  1  0  0  0
  4  5  1  0  0  0
  5  6  2  0  0  0
  5  1  1  0  0  0
  1  2  1  0  0  0
  2  3  1  0  0  0
  1 18  1  0  0  0
 18 19  2  0  0  0
 18 20  1  0  0  0
 20 22  1  0  0  0
 22 23  2  0  0  0
 23 24  1  0  0  0
 24 25  2  0  0  0
 25 26  1  0  0  0
 26 27  2  0  0  0
 25 28  1  0  0  0
 28 29  1  0  0  0
 28 30  1  0  0  0
 28 31  1  0  0  0
 11 12  1  0  0  0
 12 13  2  0  0  0
 13  8  1  0  0  0
  3  1  1  0  0  0
 27 22  1  0  0  0
  4  7  1  0  0  0
 20 21  1  0  0  0
M  END
> <minimizedAffinity>
-7.99774

> <CNNscore>
0.3771905303

> <CNNaffinity>
5.6677050591

> <CNN_VS>
2.1378047466

> <CNNaffinity_variance>
0.1746664941

$$$$
[H]c1c([H])c(C(F)(F)F)c([H])c([H])c1N([H])C(=O)C1(C(=O)N([H])c2c([H])c([H])c(C(C([H])([H])[H])(C([H])([H])[H])C([H])([H])[H])c([H])c2[H])C([H])([H])C1([H])[H]


 31 33  0  0  0  0  0  0  0  0999 V2000
  154.1380  138.2980  184.3823 C   0  0  0  0  0  0  0  0  0  0  0  0
  154.4162  137.0592  185.2104 C   0  0  0  0  0  0  0  0  0  0  0  0
  153.6878  138.2131  185.8104 C   0  0  0  0  0  0  0  0  0  0  0  0
  152.1314  139.1174  182.9783 N   0  0  0  0  0  0  0  0  0  0  0  0
  153.0605  138.1254  183.3477 C   0  0  0  0  0  0  0  0  0  0  0  0
  153.0452  137.0014  182.8152 O   0  0  0  0  0  0  0  0  0  0  0  0
  152.0852  140.0598  183.3356 H   0  0  0  0  0  0  0  0  0  0  0  0
  149.1722  138.1643  180.0884 C   0  0  0  0  0  0  0  0  0  0  0  0
  148.9865  137.8660  181.4312 C   0  0  0  0  0  0  0  0  0  0  0  0
  149.9497  138.1707  182.3630 C   0  0  0  0  0  0  0  0  0  0  0  0
  151.1404  138.7848  181.9848 C   0  0  0  0  0  0  0  0  0  0  0  0
  151.3064  139.0597  180.6772 C   0  0  0  0  0  0  0  0  0  0  0  0
  150.3507  138.7647  179.7228 C   0  0  0  0  0  0  0  0  0  0  0  0
  148.0167  136.4131  178.7959 C   0  0  0  0  0  0  0  0  0  0  0  0
  148.1526  137.9064  179.0521 C   0  0  0  0  0  0  0  0  0  0  0  0
  148.5365  138.5709  177.7432 C   0  0  0  0  0  0  0  0  0  0  0  0
  146.8137  138.3774  179.5747 C   0  0  0  0  0  0  0  0  0  0  0  0
  155.2002  139.2983  184.1450 C   0  0  0  0  0  0  0  0  0  0  0  0
  156.0993  139.4643  184.9760 O   0  0  0  0  0  0  0  0  0  0  0  0
  155.1580  140.0541  182.9565 N   0  0  0  0  0  0  0  0  0  0  0  0
  154.3591  139.8801  182.2801 H   0  0  0  0  0  0  0  0  0  0  0  0
  156.0858  141.0662  182.5782 C   0  0  0  0  0  0  0  0  0  0  0  0
  155.7080  142.3906  182.7483 C   0  0  0  0  0  0  0  0  0  0  0  0
  156.5877  143.3769  182.4449 C   0  0  0  0  0  0  0  0  0  0  0  0
  157.8612  143.1278  181.9696 C   0  0  0  0  0  0  0  0  0  0  0  0
  158.2340  141.8357  181.8064 C   0  0  0  0  0  0  0  0  0  0  0  0
  157.3466  140.8084  182.1104 C   0  0  0  0  0  0  0  0  0  0  0  0
  158.8001  144.2361  181.6573 C   0  0  0  0  0  0  0  0  0  0  0  0
  159.7543  144.2552  182.6742 F   0  0  0  0  0  0  0  0  0  0  0  0
  158.1422  145.4325  181.7018 F   0  0  0  0  0  0  0  0  0  0  0  0
  159.3852  144.0798  180.4182 F   0  0  0  0  0  0  0  0  0  0  0  0
 14 15  1  0  0  0
 15 16  1  0  0  0
 15 17  1  0  0  0
 15  8  1  0  0  0
  8  9  2  0  0  0
  9 10  1  0  0  0
 10 11  2  0  0  0
 11  4  1  0  0  0
  4  5  1  0  0  0
  5  6  2  0  0  0
  5  1  1  0  0  0
  1  2  1  0  0  0
  2  3  1  0  0  0
  1 18  1  0  0  0
 18 19  2  0  0  0
 18 20  1  0  0  0
 20 22  1  0  0  0
 22 23  2  0  0  0
 23 24  1  0  0  0
 24 25  2  0  0  0
 25 26  1  0  0  0
 26 27  2  0  0  0
 25 28  1  0  0  0
 28 29  1  0  0  0
 28 30  1  0  0  0
 28 31  1  0  0  0
 11 12  1  0  0  0
 12 13  2  0  0  0
 13  8  1  0  0  0
  3  1  1  0  0  0
 27 22  1  0  0  0
  4  7  1  0  0  0
 20 21  1  0  0  0
M  END
> <minimizedAffinity>
-7.52704

> <CNNscore>
0.3004950881

> <CNNaffinity>
5.8760881424

> <CNN_VS>
1.7657356262

> <CNNaffinity_variance>
0.1556282192

$$$$
[H]c1c([H])c(C(F)(F)F)c([H])c([H])c1N([H])C(=O)C1(C(=O)N([H])c2c([H])c([H])c(C(C([H])([H])[H])(C([H])([H])[H])C([H])([H])[H])c([H])c2[H])C([H])([H])C1([H])[H]


 31 33  0  0  0  0  0  0  0  0999 V2000
  153.7780  137.4515  184.6114 C   0  0  0  0  0  0  0  0  0  0  0  0
  153.4736  136.3591  183.6055 C   0  0  0  0  0  0  0  0  0  0  0  0
  152.3870  137.2602  184.0842 C   0  0  0  0  0  0  0  0  0  0  0  0
  155.7574  139.1088  184.5471 N   0  0  0  0  0  0  0  0  0  0  0  0
  154.5335  138.6230  184.0475 C   0  0  0  0  0  0  0  0  0  0  0  0
  153.9837  139.1556  183.0671 O   0  0  0  0  0  0  0  0  0  0  0  0
  156.2860  138.7265  185.3169 H   0  0  0  0  0  0  0  0  0  0  0  0
  157.4716  142.5341  182.7180 C   0  0  0  0  0  0  0  0  0  0  0  0
  156.2428  142.6023  183.3597 C   0  0  0  0  0  0  0  0  0  0  0  0
  155.6882  141.4896  183.9456 C   0  0  0  0  0  0  0  0  0  0  0  0
  156.3430  140.2617  183.9086 C   0  0  0  0  0  0  0  0  0  0  0  0
  157.5302  140.2127  183.2753 C   0  0  0  0  0  0  0  0  0  0  0  0
  158.1083  141.3191  182.6812 C   0  0  0  0  0  0  0  0  0  0  0  0
  158.5449  143.4107  180.6803 C   0  0  0  0  0  0  0  0  0  0  0  0
  158.1380  143.7061  182.1161 C   0  0  0  0  0  0  0  0  0  0  0  0
  159.3914  144.0684  182.8906 C   0  0  0  0  0  0  0  0  0  0  0  0
  157.1406  144.8415  182.0562 C   0  0  0  0  0  0  0  0  0  0  0  0
  153.9264  137.1319  186.0470 C   0  0  0  0  0  0  0  0  0  0  0  0
  154.9841  136.6585  186.4758 O   0  0  0  0  0  0  0  0  0  0  0  0
  152.8364  137.3764  186.9059 N   0  0  0  0  0  0  0  0  0  0  0  0
  151.9470  137.7745  186.4860 H   0  0  0  0  0  0  0  0  0  0  0  0
  152.8016  137.1127  188.3051 C   0  0  0  0  0  0  0  0  0  0  0  0
  153.7106  137.7790  189.1147 C   0  0  0  0  0  0  0  0  0  0  0  0
  153.6700  137.5880  190.4565 C   0  0  0  0  0  0  0  0  0  0  0  0
  152.7551  136.7529  191.0693 C   0  0  0  0  0  0  0  0  0  0  0  0
  151.8641  136.1044  190.2816 C   0  0  0  0  0  0  0  0  0  0  0  0
  151.8889  136.2850  188.9025 C   0  0  0  0  0  0  0  0  0  0  0  0
  152.7362  136.5770  192.5445 C   0  0  0  0  0  0  0  0  0  0  0  0
  153.9163  135.9177  192.8874 F   0  0  0  0  0  0  0  0  0  0  0  0
  151.7014  135.7609  192.9046 F   0  0  0  0  0  0  0  0  0  0  0  0
  152.6209  137.7827  193.2041 F   0  0  0  0  0  0  0  0  0  0  0  0
 14 15  1  0  0  0
 15 16  1  0  0  0
 15 17  1  0  0  0
 15  8  1  0  0  0
  8  9  2  0  0  0
  9 10  1  0  0  0
 10 11  2  0  0  0
 11  4  1  0  0  0
  4  5  1  0  0  0
  5  6  2  0  0  0
  5  1  1  0  0  0
  1  2  1  0  0  0
  2  3  1  0  0  0
  1 18  1  0  0  0
 18 19  2  0  0  0
 18 20  1  0  0  0
 20 22  1  0  0  0
 22 23  2  0  0  0
 23 24  1  0  0  0
 24 25  2  0  0  0
 25 26  1  0  0  0
 26 27  2  0  0  0
 25 28  1  0  0  0
 28 29  1  0  0  0
 28 30  1  0  0  0
 28 31  1  0  0  0
 11 12  1  0  0  0
 12 13  2  0  0  0
 13  8  1  0  0  0
  3  1  1  0  0  0
 27 22  1  0  0  0
  4  7  1  0  0  0
 20 21  1  0  0  0
M  END
> <minimizedAffinity>
-7.30315

> <CNNscore>
0.2978088856

> <CNNaffinity>
5.7567205429

> <CNN_VS>
1.7144025564

> <CNNaffinity_variance>
0.2436862886

$$$$
[H]c1c([H])c(C(F)(F)F)c([H])c([H])c1N([H])C(=O)C1(C(=O)N([H])c2c([H])c([H])c(C(C([H])([H])[H])(C([H])([H])[H])C([H])([H])[H])c([H])c2[H])C([H])([H])C1([H])[H]


 31 33  0  0  0  0  0  0  0  0999 V2000
  152.8209  138.0351  183.5250 C   0  0  0  0  0  0  0  0  0  0  0  0
  151.4280  137.6915  183.0356 C   0  0  0  0  0  0  0  0  0  0  0  0
  152.5951  136.8661  182.6130 C   0  0  0  0  0  0  0  0  0  0  0  0
  152.3504  138.2195  186.0575 N   0  0  0  0  0  0  0  0  0  0  0  0
  153.0740  137.6967  184.9682 C   0  0  0  0  0  0  0  0  0  0  0  0
  154.0025  136.8879  185.1433 O   0  0  0  0  0  0  0  0  0  0  0  0
  151.5695  138.8567  186.0095 H   0  0  0  0  0  0  0  0  0  0  0  0
  153.4869  136.9688  189.9512 C   0  0  0  0  0  0  0  0  0  0  0  0
  152.4772  136.3192  189.2549 C   0  0  0  0  0  0  0  0  0  0  0  0
  152.1079  136.7309  187.9967 C   0  0  0  0  0  0  0  0  0  0  0  0
  152.7351  137.8139  187.3869 C   0  0  0  0  0  0  0  0  0  0  0  0
  153.7068  138.4366  188.0804 C   0  0  0  0  0  0  0  0  0  0  0  0
  154.0965  138.0387  189.3456 C   0  0  0  0  0  0  0  0  0  0  0  0
  153.0476  137.0816  192.3734 C   0  0  0  0  0  0  0  0  0  0  0  0
  153.9591  136.5397  191.2827 C   0  0  0  0  0  0  0  0  0  0  0  0
  155.3611  137.0556  191.5479 C   0  0  0  0  0  0  0  0  0  0  0  0
  153.8690  135.0316  191.3559 C   0  0  0  0  0  0  0  0  0  0  0  0
  153.5835  139.1409  182.9079 C   0  0  0  0  0  0  0  0  0  0  0  0
  153.3441  139.4944  181.7485 O   0  0  0  0  0  0  0  0  0  0  0  0
  154.5856  139.7735  183.6703 N   0  0  0  0  0  0  0  0  0  0  0  0
  154.7588  139.4254  184.6576 H   0  0  0  0  0  0  0  0  0  0  0  0
  155.4225  140.8379  183.2288 C   0  0  0  0  0  0  0  0  0  0  0  0
  154.9440  142.1346  183.3517 C   0  0  0  0  0  0  0  0  0  0  0  0
  155.7363  143.1728  182.9871 C   0  0  0  0  0  0  0  0  0  0  0  0
  157.0162  143.0041  182.4938 C   0  0  0  0  0  0  0  0  0  0  0  0
  157.4873  141.7395  182.3765 C   0  0  0  0  0  0  0  0  0  0  0  0
  156.6905  140.6598  182.7436 C   0  0  0  0  0  0  0  0  0  0  0  0
  157.8577  144.1681  182.1138 C   0  0  0  0  0  0  0  0  0  0  0  0
  158.1680  144.0177  180.7625 F   0  0  0  0  0  0  0  0  0  0  0  0
  159.0373  144.1366  182.8023 F   0  0  0  0  0  0  0  0  0  0  0  0
  157.2172  145.3654  182.3550 F   0  0  0  0  0  0  0  0  0  0  0  0
 14 15  1  0  0  0
 15 16  1  0  0  0
 15 17  1  0  0  0
 15  8  1  0  0  0
  8  9  2  0  0  0
  9 10  1  0  0  0
 10 11  2  0  0  0
 11  4  1  0  0  0
  4  5  1  0  0  0
  5  6  2  0  0  0
  5  1  1  0  0  0
  1  2  1  0  0  0
  2  3  1  0  0  0
  1 18  1  0  0  0
 18 19  2  0  0  0
 18 20  1  0  0  0
 20 22  1  0  0  0
 22 23  2  0  0  0
 23 24  1  0  0  0
 24 25  2  0  0  0
 25 26  1  0  0  0
 26 27  2  0  0  0
 25 28  1  0  0  0
 28 29  1  0  0  0
 28 30  1  0  0  0
 28 31  1  0  0  0
 11 12  1  0  0  0
 12 13  2  0  0  0
 13  8  1  0  0  0
  3  1  1  0  0  0
 27 22  1  0  0  0
  4  7  1  0  0  0
 20 21  1  0  0  0
M  END
> <minimizedAffinity>
-7.84556

> <CNNscore>
0.2867729366

> <CNNaffinity>
5.7737431526

> <CNN_VS>
1.6557532549

> <CNNaffinity_variance>
0.1716319323

$$$$
[H]c1c([H])c(C(F)(F)F)c([H])c([H])c1N([H])C(=O)C1(C(=O)N([H])c2c([H])c([H])c(C(C([H])([H])[H])(C([H])([H])[H])C([H])([H])[H])c([H])c2[H])C([H])([H])C1([H])[H]


 31 33  0  0  0  0  0  0  0  0999 V2000
  154.7289  140.3155  183.4049 C   0  0  0  0  0  0  0  0  0  0  0  0
  154.7242  141.8168  183.6146 C   0  0  0  0  0  0  0  0  0  0  0  0
  155.6576  141.2012  182.6288 C   0  0  0  0  0  0  0  0  0  0  0  0
  152.8075  140.5211  181.6919 N   0  0  0  0  0  0  0  0  0  0  0  0
  153.5424  139.7900  182.6452 C   0  0  0  0  0  0  0  0  0  0  0  0
  153.2420  138.6157  182.9245 O   0  0  0  0  0  0  0  0  0  0  0  0
  152.9932  141.4641  181.3847 H   0  0  0  0  0  0  0  0  0  0  0  0
  149.4406  138.6627  179.8954 C   0  0  0  0  0  0  0  0  0  0  0  0
  149.6337  138.6240  181.2693 C   0  0  0  0  0  0  0  0  0  0  0  0
  150.7284  139.2218  181.8467 C   0  0  0  0  0  0  0  0  0  0  0  0
  151.6760  139.8804  181.0681 C   0  0  0  0  0  0  0  0  0  0  0  0
  151.4762  139.9012  179.7367 C   0  0  0  0  0  0  0  0  0  0  0  0
  150.3818  139.3092  179.1343 C   0  0  0  0  0  0  0  0  0  0  0  0
  148.2243  136.5737  179.4164 C   0  0  0  0  0  0  0  0  0  0  0  0
  148.2592  138.0827  179.2261 C   0  0  0  0  0  0  0  0  0  0  0  0
  148.2938  138.3638  177.7355 C   0  0  0  0  0  0  0  0  0  0  0  0
  147.0177  138.6300  179.8944 C   0  0  0  0  0  0  0  0  0  0  0  0
  155.4115  139.4239  184.3663 C   0  0  0  0  0  0  0  0  0  0  0  0
  156.6338  139.2550  184.3028 O   0  0  0  0  0  0  0  0  0  0  0  0
  154.6361  138.7739  185.3472 N   0  0  0  0  0  0  0  0  0  0  0  0
  153.5889  138.9448  185.3525 H   0  0  0  0  0  0  0  0  0  0  0  0
  155.1257  137.8726  186.3353 C   0  0  0  0  0  0  0  0  0  0  0  0
  155.7670  138.4087  187.4430 C   0  0  0  0  0  0  0  0  0  0  0  0
  156.2000  137.5807  188.4256 C   0  0  0  0  0  0  0  0  0  0  0  0
  156.0314  136.2097  188.3814 C   0  0  0  0  0  0  0  0  0  0  0  0
  155.4022  135.6842  187.3031 C   0  0  0  0  0  0  0  0  0  0  0  0
  154.9511  136.5155  186.2830 C   0  0  0  0  0  0  0  0  0  0  0  0
  156.5116  135.3360  189.4831 C   0  0  0  0  0  0  0  0  0  0  0  0
  155.5408  134.3525  189.6705 F   0  0  0  0  0  0  0  0  0  0  0  0
  156.5894  136.0497  190.6454 F   0  0  0  0  0  0  0  0  0  0  0  0
  157.7431  134.7832  189.2006 F   0  0  0  0  0  0  0  0  0  0  0  0
 14 15  1  0  0  0
 15 16  1  0  0  0
 15 17  1  0  0  0
 15  8  1  0  0  0
  8  9  2  0  0  0
  9 10  1  0  0  0
 10 11  2  0  0  0
 11  4  1  0  0  0
  4  5  1  0  0  0
  5  6  2  0  0  0
  5  1  1  0  0  0
  1  2  1  0  0  0
  2  3  1  0  0  0
  1 18  1  0  0  0
 18 19  2  0  0  0
 18 20  1  0  0  0
 20 22  1  0  0  0
 22 23  2  0  0  0
 23 24  1  0  0  0
 24 25  2  0  0  0
 25 26  1  0  0  0
 26 27  2  0  0  0
 25 28  1  0  0  0
 28 29  1  0  0  0
 28 30  1  0  0  0
 28 31  1  0  0  0
 11 12  1  0  0  0
 12 13  2  0  0  0
 13  8  1  0  0  0
  3  1  1  0  0  0
 27 22  1  0  0  0
  4  7  1  0  0  0
 20 21  1  0  0  0
M  END
> <minimizedAffinity>
-7.58401

> <CNNscore>
0.2788631916

> <CNNaffinity>
5.3802938461

> <CNN_VS>
1.5003659725

> <CNNaffinity_variance>
0.1178558022

$$$$
[H]c1c([H])c(C(F)(F)F)c([H])c([H])c1N([H])C(=O)C1(C(=O)N([H])c2c([H])c([H])c(C(C([H])([H])[H])(C([H])([H])[H])C([H])([H])[H])c([H])c2[H])C([H])([H])C1([H])[H]


 31 33  0  0  0  0  0  0  0  0999 V2000
  153.9238  137.6251  184.7331 C   0  0  0  0  0  0  0  0  0  0  0  0
  153.6048  136.6862  183.5865 C   0  0  0  0  0  0  0  0  0  0  0  0
  152.5586  137.6088  184.1122 C   0  0  0  0  0  0  0  0  0  0  0  0
  154.6330  139.5817  183.2043 N   0  0  0  0  0  0  0  0  0  0  0  0
  154.7966  138.7907  184.3579 C   0  0  0  0  0  0  0  0  0  0  0  0
  155.7099  139.0214  185.1702 O   0  0  0  0  0  0  0  0  0  0  0  0
  153.9096  139.4852  182.5075 H   0  0  0  0  0  0  0  0  0  0  0  0
  157.4166  142.7018  182.4739 C   0  0  0  0  0  0  0  0  0  0  0  0
  157.7913  141.3688  182.3783 C   0  0  0  0  0  0  0  0  0  0  0  0
  156.8886  140.3614  182.6215 C   0  0  0  0  0  0  0  0  0  0  0  0
  155.5732  140.6507  182.9737 C   0  0  0  0  0  0  0  0  0  0  0  0
  155.2298  141.9491  183.0690 C   0  0  0  0  0  0  0  0  0  0  0  0
  156.1198  142.9789  182.8267 C   0  0  0  0  0  0  0  0  0  0  0  0
  158.8801  143.7028  180.7624 C   0  0  0  0  0  0  0  0  0  0  0  0
  158.3288  143.8237  182.1752 C   0  0  0  0  0  0  0  0  0  0  0  0
  159.5039  143.8313  183.1350 C   0  0  0  0  0  0  0  0  0  0  0  0
  157.5322  145.1087  182.2182 C   0  0  0  0  0  0  0  0  0  0  0  0
  153.9575  137.1284  186.1249 C   0  0  0  0  0  0  0  0  0  0  0  0
  154.5282  136.0665  186.3959 O   0  0  0  0  0  0  0  0  0  0  0  0
  153.3230  137.8906  187.1260 N   0  0  0  0  0  0  0  0  0  0  0  0
  152.8383  138.7899  186.8393 H   0  0  0  0  0  0  0  0  0  0  0  0
  153.2447  137.5531  188.5074 C   0  0  0  0  0  0  0  0  0  0  0  0
  152.2266  136.7011  188.9115 C   0  0  0  0  0  0  0  0  0  0  0  0
  152.1550  136.3207  190.2110 C   0  0  0  0  0  0  0  0  0  0  0  0
  153.0581  136.7424  191.1683 C   0  0  0  0  0  0  0  0  0  0  0  0
  154.0552  137.5710  190.7757 C   0  0  0  0  0  0  0  0  0  0  0  0
  154.1465  137.9747  189.4476 C   0  0  0  0  0  0  0  0  0  0  0  0
  152.9517  136.2957  192.5813 C   0  0  0  0  0  0  0  0  0  0  0  0
  151.9492  135.3270  192.6239 F   0  0  0  0  0  0  0  0  0  0  0  0
  152.5410  137.3330  193.3698 F   0  0  0  0  0  0  0  0  0  0  0  0
  154.1496  135.8044  193.0563 F   0  0  0  0  0  0  0  0  0  0  0  0
 14 15  1  0  0  0
 15 16  1  0  0  0
 15 17  1  0  0  0
 15  8  1  0  0  0
  8  9  2  0  0  0
  9 10  1  0  0  0
 10 11  2  0  0  0
 11  4  1  0  0  0
  4  5  1  0  0  0
  5  6  2  0  0  0
  5  1  1  0  0  0
  1  2  1  0  0  0
  2  3  1  0  0  0
  1 18  1  0  0  0
 18 19  2  0  0  0
 18 20  1  0  0  0
 20 22  1  0  0  0
 22 23  2  0  0  0
 23 24  1  0  0  0
 24 25  2  0  0  0
 25 26  1  0  0  0
 26 27  2  0  0  0
 25 28  1  0  0  0
 28 29  1  0  0  0
 28 30  1  0  0  0
 28 31  1  0  0  0
 11 12  1  0  0  0
 12 13  2  0  0  0
 13  8  1  0  0  0
  3  1  1  0  0  0
 27 22  1  0  0  0
  4  7  1  0  0  0
 20 21  1  0  0  0
M  END
> <minimizedAffinity>
-7.57105

> <CNNscore>
0.2753520310

> <CNNaffinity>
5.6747093201

> <CNN_VS>
1.5625427961

> <CNNaffinity_variance>
0.2164107561

$$$$
[H]c1c([H])c(C(F)(F)F)c([H])c([H])c1N([H])C(=O)C1(C(=O)N([H])c2c([H])c([H])c(C(C([H])([H])[H])(C([H])([H])[H])C([H])([H])[H])c([H])c2[H])C([H])([H])C1([H])[H]


 31 33  0  0  0  0  0  0  0  0999 V2000
  153.8111  138.1213  184.4252 C   0  0  0  0  0  0  0  0  0  0  0  0
  153.5394  137.0767  183.3609 C   0  0  0  0  0  0  0  0  0  0  0  0
  152.4584  138.0104  183.7870 C   0  0  0  0  0  0  0  0  0  0  0  0
  156.0610  139.2493  183.8470 N   0  0  0  0  0  0  0  0  0  0  0  0
  154.6576  139.2748  183.9625 C   0  0  0  0  0  0  0  0  0  0  0  0
  154.0082  140.2955  183.6736 O   0  0  0  0  0  0  0  0  0  0  0  0
  156.6647  138.4626  184.0330 H   0  0  0  0  0  0  0  0  0  0  0  0
  157.9827  142.7974  182.5297 C   0  0  0  0  0  0  0  0  0  0  0  0
  157.4857  141.8714  181.6232 C   0  0  0  0  0  0  0  0  0  0  0  0
  156.8695  140.7208  182.0536 C   0  0  0  0  0  0  0  0  0  0  0  0
  156.7295  140.4509  183.4121 C   0  0  0  0  0  0  0  0  0  0  0  0
  157.2244  141.3567  184.2768 C   0  0  0  0  0  0  0  0  0  0  0  0
  157.8457  142.5217  183.8670 C   0  0  0  0  0  0  0  0  0  0  0  0
  157.5986  145.2085  182.1958 C   0  0  0  0  0  0  0  0  0  0  0  0
  158.6080  144.0725  182.1257 C   0  0  0  0  0  0  0  0  0  0  0  0
  159.1207  143.9918  180.7000 C   0  0  0  0  0  0  0  0  0  0  0  0
  159.6986  144.4033  183.1200 C   0  0  0  0  0  0  0  0  0  0  0  0
  153.8336  137.7495  185.8556 C   0  0  0  0  0  0  0  0  0  0  0  0
  152.7855  137.7153  186.5091 O   0  0  0  0  0  0  0  0  0  0  0  0
  155.0733  137.4410  186.4503 N   0  0  0  0  0  0  0  0  0  0  0  0
  155.9452  137.4950  185.8480 H   0  0  0  0  0  0  0  0  0  0  0  0
  155.2783  137.0817  187.8131 C   0  0  0  0  0  0  0  0  0  0  0  0
  155.6326  135.7695  188.0930 C   0  0  0  0  0  0  0  0  0  0  0  0
  155.8839  135.4080  189.3754 C   0  0  0  0  0  0  0  0  0  0  0  0
  155.8062  136.2926  190.4344 C   0  0  0  0  0  0  0  0  0  0  0  0
  155.4645  137.5751  190.1635 C   0  0  0  0  0  0  0  0  0  0  0  0
  155.2012  137.9669  188.8549 C   0  0  0  0  0  0  0  0  0  0  0  0
  156.0985  135.8604  191.8255 C   0  0  0  0  0  0  0  0  0  0  0  0
  156.9678  136.8065  192.3678 F   0  0  0  0  0  0  0  0  0  0  0  0
  156.7617  134.6660  191.8143 F   0  0  0  0  0  0  0  0  0  0  0  0
  154.9491  135.7401  192.5782 F   0  0  0  0  0  0  0  0  0  0  0  0
 14 15  1  0  0  0
 15 16  1  0  0  0
 15 17  1  0  0  0
 15  8  1  0  0  0
  8  9  2  0  0  0
  9 10  1  0  0  0
 10 11  2  0  0  0
 11  4  1  0  0  0
  4  5  1  0  0  0
  5  6  2  0  0  0
  5  1  1  0  0  0
  1  2  1  0  0  0
  2  3  1  0  0  0
  1 18  1  0  0  0
 18 19  2  0  0  0
 18 20  1  0  0  0
 20 22  1  0  0  0
 22 23  2  0  0  0
 23 24  1  0  0  0
 24 25  2  0  0  0
 25 26  1  0  0  0
 26 27  2  0  0  0
 25 28  1  0  0  0
 28 29  1  0  0  0
 28 30  1  0  0  0
 28 31  1  0  0  0
 11 12  1  0  0  0
 12 13  2  0  0  0
 13  8  1  0  0  0
  3  1  1  0  0  0
 27 22  1  0  0  0
  4  7  1  0  0  0
 20 21  1  0  0  0
M  END
> <minimizedAffinity>
-6.95914

> <CNNscore>
0.2580660880

> <CNNaffinity>
5.8748106956

> <CNN_VS>
1.5160894394

> <CNNaffinity_variance>
0.1893276423

$$$$
[H]c1c([H])c(C(F)(F)F)c([H])c([H])c1N([H])C(=O)C1(C(=O)N([H])c2c([H])c([H])c(C(C([H])([H])[H])(C([H])([H])[H])C([H])([H])[H])c([H])c2[H])C([H])([H])C1([H])[H]


 31 33  0  0  0  0  0  0  0  0999 V2000
  154.1427  137.7705  186.0294 C   0  0  0  0  0  0  0  0  0  0  0  0
  152.6366  137.7361  185.8616 C   0  0  0  0  0  0  0  0  0  0  0  0
  153.2486  138.5194  186.9723 C   0  0  0  0  0  0  0  0  0  0  0  0
  156.0979  139.2518  185.2221 N   0  0  0  0  0  0  0  0  0  0  0  0
  154.8630  138.6087  185.0097 C   0  0  0  0  0  0  0  0  0  0  0  0
  154.2721  138.6979  183.9189 O   0  0  0  0  0  0  0  0  0  0  0  0
  156.6583  139.2142  186.0603 H   0  0  0  0  0  0  0  0  0  0  0  0
  157.7243  141.6246  182.1010 C   0  0  0  0  0  0  0  0  0  0  0  0
  156.7978  142.1480  182.9922 C   0  0  0  0  0  0  0  0  0  0  0  0
  156.2689  141.3747  183.9978 C   0  0  0  0  0  0  0  0  0  0  0  0
  156.6461  140.0431  184.1483 C   0  0  0  0  0  0  0  0  0  0  0  0
  157.5399  139.5505  183.2701 C   0  0  0  0  0  0  0  0  0  0  0  0
  158.0869  140.3099  182.2526 C   0  0  0  0  0  0  0  0  0  0  0  0
  157.9012  143.8693  181.0997 C   0  0  0  0  0  0  0  0  0  0  0  0
  158.3627  142.4212  181.0343 C   0  0  0  0  0  0  0  0  0  0  0  0
  157.9982  141.8771  179.6656 C   0  0  0  0  0  0  0  0  0  0  0  0
  159.8553  142.4334  181.2787 C   0  0  0  0  0  0  0  0  0  0  0  0
  154.8564  136.6351  186.6512 C   0  0  0  0  0  0  0  0  0  0  0  0
  154.6200  135.4765  186.2928 O   0  0  0  0  0  0  0  0  0  0  0  0
  155.8035  136.9072  187.6585 N   0  0  0  0  0  0  0  0  0  0  0  0
  155.9622  137.9188  187.9369 H   0  0  0  0  0  0  0  0  0  0  0  0
  156.5649  135.9375  188.3715 C   0  0  0  0  0  0  0  0  0  0  0  0
  156.1153  135.5531  189.6268 C   0  0  0  0  0  0  0  0  0  0  0  0
  156.7898  134.5954  190.3097 C   0  0  0  0  0  0  0  0  0  0  0  0
  157.9180  133.9712  189.8121 C   0  0  0  0  0  0  0  0  0  0  0  0
  158.3567  134.3419  188.5852 C   0  0  0  0  0  0  0  0  0  0  0  0
  157.6803  135.3233  187.8680 C   0  0  0  0  0  0  0  0  0  0  0  0
  158.6244  132.9188  190.5871 C   0  0  0  0  0  0  0  0  0  0  0  0
  159.9454  132.9066  190.1401 F   0  0  0  0  0  0  0  0  0  0  0  0
  158.0932  131.6928  190.3024 F   0  0  0  0  0  0  0  0  0  0  0  0
  158.5526  133.1459  191.9455 F   0  0  0  0  0  0  0  0  0  0  0  0
 14 15  1  0  0  0
 15 16  1  0  0  0
 15 17  1  0  0  0
 15  8  1  0  0  0
  8  9  2  0  0  0
  9 10  1  0  0  0
 10 11  2  0  0  0
 11  4  1  0  0  0
  4  5  1  0  0  0
  5  6  2  0  0  0
  5  1  1  0  0  0
  1  2  1  0  0  0
  2  3  1  0  0  0
  1 18  1  0  0  0
 18 19  2  0  0  0
 18 20  1  0  0  0
 20 22  1  0  0  0
 22 23  2  0  0  0
 23 24  1  0  0  0
 24 25  2  0  0  0
 25 26  1  0  0  0
 26 27  2  0  0  0
 25 28  1  0  0  0
 28 29  1  0  0  0
 28 30  1  0  0  0
 28 31  1  0  0  0
 11 12  1  0  0  0
 12 13  2  0  0  0
 13  8  1  0  0  0
  3  1  1  0  0  0
 27 22  1  0  0  0
  4  7  1  0  0  0
 20 21  1  0  0  0
M  END
> <minimizedAffinity>
-7.01321

> <CNNscore>
0.2543678880

> <CNNaffinity>
5.6859312057

> <CNN_VS>
1.4463182688

> <CNNaffinity_variance>
0.2411946803

$$$$
[H]c1nc([H])c2c([H])c([H])c([H])c(N([H])C(=O)N([H])c3c([H])c([H])c([H])c(C([H])([H])[H])c3[H])c2c1[H]


 23 25  0  0  0  0  0  0  0  0999 V2000
  153.6700  138.6299  184.8907 N   0  0  0  0  0  0  0  0  0  0  0  0
  154.7185  138.1740  185.7249 C   0  0  0  0  0  0  0  0  0  0  0  0
  155.8176  138.7057  185.6174 O   0  0  0  0  0  0  0  0  0  0  0  0
  154.4852  137.1287  186.6544 N   0  0  0  0  0  0  0  0  0  0  0  0
  152.7341  138.1375  185.0232 H   0  0  0  0  0  0  0  0  0  0  0  0
  153.4977  136.7142  186.6776 H   0  0  0  0  0  0  0  0  0  0  0  0
  155.4448  136.5894  187.5280 C   0  0  0  0  0  0  0  0  0  0  0  0
  156.2750  135.5388  187.2405 C   0  0  0  0  0  0  0  0  0  0  0  0
  157.2026  135.0048  188.1456 C   0  0  0  0  0  0  0  0  0  0  0  0
  157.2635  135.5811  189.3777 C   0  0  0  0  0  0  0  0  0  0  0  0
  156.4663  136.6402  189.7503 C   0  0  0  0  0  0  0  0  0  0  0  0
  156.5851  137.1852  191.0299 C   0  0  0  0  0  0  0  0  0  0  0  0
  155.8137  138.2157  191.3870 N   0  0  0  0  0  0  0  0  0  0  0  0
  154.9490  138.7018  190.5178 C   0  0  0  0  0  0  0  0  0  0  0  0
  154.7943  138.1889  189.2251 C   0  0  0  0  0  0  0  0  0  0  0  0
  155.5684  137.1354  188.8318 C   0  0  0  0  0  0  0  0  0  0  0  0
  155.1573  143.0837  183.2103 C   0  0  0  0  0  0  0  0  0  0  0  0
  154.4451  141.8020  183.0321 C   0  0  0  0  0  0  0  0  0  0  0  0
  153.8248  141.5606  181.8377 C   0  0  0  0  0  0  0  0  0  0  0  0
  153.1703  140.3655  181.6946 C   0  0  0  0  0  0  0  0  0  0  0  0
  153.1160  139.4246  182.6832 C   0  0  0  0  0  0  0  0  0  0  0  0
  153.7425  139.6366  183.9280 C   0  0  0  0  0  0  0  0  0  0  0  0
  154.3880  140.8381  184.0404 C   0  0  0  0  0  0  0  0  0  0  0  0
 17 18  1  0  0  0
 18 19  2  0  0  0
 19 20  1  0  0  0
 20 21  2  0  0  0
 21 22  1  0  0  0
 22  1  1  0  0  0
  1  2  1  0  0  0
  2  3  2  0  0  0
  2  4  1  0  0  0
  4  7  1  0  0  0
  7  8  2  0  0  0
  8  9  1  0  0  0
  9 10  2  0  0  0
 10 11  1  0  0  0
 11 12  2  0  0  0
 12 13  1  0  0  0
 13 14  2  0  0  0
 14 15  1  0  0  0
 15 16  2  0  0  0
 22 23  2  0  0  0
 23 18  1  0  0  0
 16  7  1  0  0  0
 16 11  1  0  0  0
  1  5  1  0  0  0
  4  6  1  0  0  0
M  END
> <minimizedAffinity>
-6.88374

> <CNNscore>
0.4434704781

> <CNNaffinity>
4.9476146698

> <CNN_VS>
2.1941211224

> <CNNaffinity_variance>
0.0761098042

$$$$
[H]c1nc([H])c2c([H])c([H])c([H])c(N([H])C(=O)N([H])c3c([H])c([H])c([H])c(C([H])([H])[H])c3[H])c2c1[H]


 23 25  0  0  0  0  0  0  0  0999 V2000
  157.7537  139.9024  184.1995 N   0  0  0  0  0  0  0  0  0  0  0  0
  156.4643  139.6299  184.7156 C   0  0  0  0  0  0  0  0  0  0  0  0
  155.5059  140.2073  184.2152 O   0  0  0  0  0  0  0  0  0  0  0  0
  156.3048  138.7104  185.7834 N   0  0  0  0  0  0  0  0  0  0  0  0
  158.5533  139.3746  184.6666 H   0  0  0  0  0  0  0  0  0  0  0  0
  157.1958  138.2563  186.1672 H   0  0  0  0  0  0  0  0  0  0  0  0
  155.0810  138.3644  186.3812 C   0  0  0  0  0  0  0  0  0  0  0  0
  153.8783  138.2808  185.7313 C   0  0  0  0  0  0  0  0  0  0  0  0
  152.6686  137.9611  186.3631 C   0  0  0  0  0  0  0  0  0  0  0  0
  152.7169  137.7239  187.7029 C   0  0  0  0  0  0  0  0  0  0  0  0
  153.8822  137.7864  188.4339 C   0  0  0  0  0  0  0  0  0  0  0  0
  153.8590  137.5269  189.8053 C   0  0  0  0  0  0  0  0  0  0  0  0
  154.9918  137.5837  190.5110 N   0  0  0  0  0  0  0  0  0  0  0  0
  156.1179  137.8854  189.8944 C   0  0  0  0  0  0  0  0  0  0  0  0
  156.1903  138.1532  188.5228 C   0  0  0  0  0  0  0  0  0  0  0  0
  155.0489  138.1034  187.7755 C   0  0  0  0  0  0  0  0  0  0  0  0
  158.9974  144.3767  182.3815 C   0  0  0  0  0  0  0  0  0  0  0  0
  158.6968  142.9418  182.2020 C   0  0  0  0  0  0  0  0  0  0  0  0
  158.7513  142.4163  180.9408 C   0  0  0  0  0  0  0  0  0  0  0  0
  158.4687  141.0833  180.7979 C   0  0  0  0  0  0  0  0  0  0  0  0
  158.1406  140.2759  181.8495 C   0  0  0  0  0  0  0  0  0  0  0  0
  158.0736  140.7805  183.1641 C   0  0  0  0  0  0  0  0  0  0  0  0
  158.3613  142.1138  183.2748 C   0  0  0  0  0  0  0  0  0  0  0  0
 17 18  1  0  0  0
 18 19  2  0  0  0
 19 20  1  0  0  0
 20 21  2  0  0  0
 21 22  1  0  0  0
 22  1  1  0  0  0
  1  2  1  0  0  0
  2  3  2  0  0  0
  2  4  1  0  0  0
  4  7  1  0  0  0
  7  8  2  0  0  0
  8  9  1  0  0  0
  9 10  2  0  0  0
 10 11  1  0  0  0
 11 12  2  0  0  0
 12 13  1  0  0  0
 13 14  2  0  0  0
 14 15  1  0  0  0
 15 16  2  0  0  0
 22 23  2  0  0  0
 23 18  1  0  0  0
 16  7  1  0  0  0
 16 11  1  0  0  0
  1  5  1  0  0  0
  4  6  1  0  0  0
M  END
> <minimizedAffinity>
-7.42808

> <CNNscore>
0.4218627810

> <CNNaffinity>
5.2624435425

> <CNN_VS>
2.2200291157

> <CNNaffinity_variance>
0.0934837088

$$$$
[H]c1nc([H])c2c([H])c([H])c([H])c(N([H])C(=O)N([H])c3c([H])c([H])c([H])c(C([H])([H])[H])c3[H])c2c1[H]


 23 25  0  0  0  0  0  0  0  0999 V2000
  152.9297  136.8154  185.2257 N   0  0  0  0  0  0  0  0  0  0  0  0
  153.2565  137.4184  186.4638 C   0  0  0  0  0  0  0  0  0  0  0  0
  152.9019  138.5757  186.6562 O   0  0  0  0  0  0  0  0  0  0  0  0
  153.9758  136.6876  187.4434 N   0  0  0  0  0  0  0  0  0  0  0  0
  153.2585  135.8085  185.1075 H   0  0  0  0  0  0  0  0  0  0  0  0
  154.2539  135.6846  187.1905 H   0  0  0  0  0  0  0  0  0  0  0  0
  154.3615  137.1788  188.7024 C   0  0  0  0  0  0  0  0  0  0  0  0
  155.5152  137.8692  188.9629 C   0  0  0  0  0  0  0  0  0  0  0  0
  155.8854  138.3208  190.2372 C   0  0  0  0  0  0  0  0  0  0  0  0
  155.0315  138.0446  191.2611 C   0  0  0  0  0  0  0  0  0  0  0  0
  153.8514  137.3565  191.0883 C   0  0  0  0  0  0  0  0  0  0  0  0
  153.0207  137.1120  192.1833 C   0  0  0  0  0  0  0  0  0  0  0  0
  151.8742  136.4483  192.0119 N   0  0  0  0  0  0  0  0  0  0  0  0
  151.5466  136.0342  190.8033 C   0  0  0  0  0  0  0  0  0  0  0  0
  152.3465  136.2556  189.6765 C   0  0  0  0  0  0  0  0  0  0  0  0
  153.5243  136.9305  189.8208 C   0  0  0  0  0  0  0  0  0  0  0  0
  152.5771  139.8111  181.2542 C   0  0  0  0  0  0  0  0  0  0  0  0
  151.9940  138.8397  182.2018 C   0  0  0  0  0  0  0  0  0  0  0  0
  150.6914  138.4612  182.0296 C   0  0  0  0  0  0  0  0  0  0  0  0
  150.1714  137.5593  182.9203 C   0  0  0  0  0  0  0  0  0  0  0  0
  150.8932  137.0350  183.9545 C   0  0  0  0  0  0  0  0  0  0  0  0
  152.2383  137.4007  184.1652 C   0  0  0  0  0  0  0  0  0  0  0  0
  152.7292  138.3018  183.2597 C   0  0  0  0  0  0  0  0  0  0  0  0
 17 18  1  0  0  0
 18 19  2  0  0  0
 19 20  1  0  0  0
 20 21  2  0  0  0
 21 22  1  0  0  0
 22  1  1  0  0  0
  1  2  1  0  0  0
  2  3  2  0  0  0
  2  4  1  0  0  0
  4  7  1  0  0  0
  7  8  2  0  0  0
  8  9  1  0  0  0
  9 10  2  0  0  0
 10 11  1  0  0  0
 11 12  2  0  0  0
 12 13  1  0  0  0
 13 14  2  0  0  0
 14 15  1  0  0  0
 15 16  2  0  0  0
 22 23  2  0  0  0
 23 18  1  0  0  0
 16  7  1  0  0  0
 16 11  1  0  0  0
  1  5  1  0  0  0
  4  6  1  0  0  0
M  END
> <minimizedAffinity>
-6.00867

> <CNNscore>
0.3653561473

> <CNNaffinity>
4.7252717018

> <CNN_VS>
1.7264070511

> <CNNaffinity_variance>
0.1102322787

$$$$
[H]c1nc([H])c2c([H])c([H])c([H])c(N([H])C(=O)N([H])c3c([H])c([H])c([H])c(C([H])([H])[H])c3[H])c2c1[H]


 23 25  0  0  0  0  0  0  0  0999 V2000
  155.4931  138.7838  185.1741 N   0  0  0  0  0  0  0  0  0  0  0  0
  155.1503  138.4314  186.5013 C   0  0  0  0  0  0  0  0  0  0  0  0
  153.9668  138.4521  186.8192 O   0  0  0  0  0  0  0  0  0  0  0  0
  156.1628  138.0670  187.4250 N   0  0  0  0  0  0  0  0  0  0  0  0
  156.5338  138.7487  184.9467 H   0  0  0  0  0  0  0  0  0  0  0  0
  157.1722  138.0831  187.0668 H   0  0  0  0  0  0  0  0  0  0  0  0
  155.9470  137.7048  188.7656 C   0  0  0  0  0  0  0  0  0  0  0  0
  155.2443  138.4420  189.6812 C   0  0  0  0  0  0  0  0  0  0  0  0
  155.0718  138.0665  191.0206 C   0  0  0  0  0  0  0  0  0  0  0  0
  155.6463  136.8956  191.4114 C   0  0  0  0  0  0  0  0  0  0  0  0
  156.3692  136.0934  190.5571 C   0  0  0  0  0  0  0  0  0  0  0  0
  156.9276  134.9025  191.0249 C   0  0  0  0  0  0  0  0  0  0  0  0
  157.6245  134.1239  190.1927 N   0  0  0  0  0  0  0  0  0  0  0  0
  157.7724  134.4976  188.9366 C   0  0  0  0  0  0  0  0  0  0  0  0
  157.2316  135.6815  188.4225 C   0  0  0  0  0  0  0  0  0  0  0  0
  156.5150  136.4979  189.2494 C   0  0  0  0  0  0  0  0  0  0  0  0
  151.6776  138.0201  182.0548 C   0  0  0  0  0  0  0  0  0  0  0  0
  152.7508  138.8715  182.6071 C   0  0  0  0  0  0  0  0  0  0  0  0
  152.8996  140.1374  182.1122 C   0  0  0  0  0  0  0  0  0  0  0  0
  153.9015  140.9092  182.6391 C   0  0  0  0  0  0  0  0  0  0  0  0
  154.7411  140.4681  183.6219 C   0  0  0  0  0  0  0  0  0  0  0  0
  154.6197  139.1697  184.1574 C   0  0  0  0  0  0  0  0  0  0  0  0
  153.6105  138.4237  183.6118 C   0  0  0  0  0  0  0  0  0  0  0  0
 17 18  1  0  0  0
 18 19  2  0  0  0
 19 20  1  0  0  0
 20 21  2  0  0  0
 21 22  1  0  0  0
 22  1  1  0  0  0
  1  2  1  0  0  0
  2  3  2  0  0  0
  2  4  1  0  0  0
  4  7  1  0  0  0
  7  8  2  0  0  0
  8  9  1  0  0  0
  9 10  2  0  0  0
 10 11  1  0  0  0
 11 12  2  0  0  0
 12 13  1  0  0  0
 13 14  2  0  0  0
 14 15  1  0  0  0
 15 16  2  0  0  0
 22 23  2  0  0  0
 23 18  1  0  0  0
 16  7  1  0  0  0
 16 11  1  0  0  0
  1  5  1  0  0  0
  4  6  1  0  0  0
M  END
> <minimizedAffinity>
-7.05167

> <CNNscore>
0.3396580517

> <CNNaffinity>
4.8382315636

> <CNN_VS>
1.6433442831

> <CNNaffinity_variance>
0.1076501831

$$$$
[H]c1nc([H])c2c([H])c([H])c([H])c(N([H])C(=O)N([H])c3c([H])c([H])c([H])c(C([H])([H])[H])c3[H])c2c1[H]


 23 25  0  0  0  0  0  0  0  0999 V2000
  156.3938  141.3542  182.7375 N   0  0  0  0  0  0  0  0  0  0  0  0
  155.4555  140.3209  182.9725 C   0  0  0  0  0  0  0  0  0  0  0  0
  155.7579  139.4316  183.7598 O   0  0  0  0  0  0  0  0  0  0  0  0
  154.2041  140.3308  182.3056 N   0  0  0  0  0  0  0  0  0  0  0  0
  156.0835  142.1042  182.0467 H   0  0  0  0  0  0  0  0  0  0  0  0
  154.0240  141.1407  181.6280 H   0  0  0  0  0  0  0  0  0  0  0  0
  153.1979  139.3607  182.4522 C   0  0  0  0  0  0  0  0  0  0  0  0
  153.1062  138.4655  183.4846 C   0  0  0  0  0  0  0  0  0  0  0  0
  152.1052  137.4895  183.5866 C   0  0  0  0  0  0  0  0  0  0  0  0
  151.1806  137.4483  182.5881 C   0  0  0  0  0  0  0  0  0  0  0  0
  151.1980  138.3097  181.5140 C   0  0  0  0  0  0  0  0  0  0  0  0
  150.2149  138.2133  180.5276 C   0  0  0  0  0  0  0  0  0  0  0  0
  150.2316  139.0535  179.4892 N   0  0  0  0  0  0  0  0  0  0  0  0
  151.1827  139.9642  179.4154 C   0  0  0  0  0  0  0  0  0  0  0  0
  152.1884  140.0988  180.3790 C   0  0  0  0  0  0  0  0  0  0  0  0
  152.1977  139.2540  181.4514 C   0  0  0  0  0  0  0  0  0  0  0  0
  159.4995  142.1120  186.5653 C   0  0  0  0  0  0  0  0  0  0  0  0
  159.2449  141.8321  185.1376 C   0  0  0  0  0  0  0  0  0  0  0  0
  160.3159  141.6623  184.3047 C   0  0  0  0  0  0  0  0  0  0  0  0
  160.0562  141.4037  182.9845 C   0  0  0  0  0  0  0  0  0  0  0  0
  158.7903  141.3116  182.4799 C   0  0  0  0  0  0  0  0  0  0  0  0
  157.6609  141.4808  183.3065 C   0  0  0  0  0  0  0  0  0  0  0  0
  157.9523  141.7370  184.6188 C   0  0  0  0  0  0  0  0  0  0  0  0
 17 18  1  0  0  0
 18 19  2  0  0  0
 19 20  1  0  0  0
 20 21  2  0  0  0
 21 22  1  0  0  0
 22  1  1  0  0  0
  1  2  1  0  0  0
  2  3  2  0  0  0
  2  4  1  0  0  0
  4  7  1  0  0  0
  7  8  2  0  0  0
  8  9  1  0  0  0
  9 10  2  0  0  0
 10 11  1  0  0  0
 11 12  2  0  0  0
 12 13  1  0  0  0
 13 14  2  0  0  0
 14 15  1  0  0  0
 15 16  2  0  0  0
 22 23  2  0  0  0
 23 18  1  0  0  0
 16  7  1  0  0  0
 16 11  1  0  0  0
  1  5  1  0  0  0
  4  6  1  0  0  0
M  END
> <minimizedAffinity>
-8.11302

> <CNNscore>
0.3352803886

> <CNNaffinity>
5.2693281174

> <CNN_VS>
1.7667024136

> <CNNaffinity_variance>
0.1280850172

$$$$
[H]c1nc([H])c2c([H])c([H])c([H])c(N([H])C(=O)N([H])c3c([H])c([H])c([H])c(C([H])([H])[H])c3[H])c2c1[H]


 23 25  0  0  0  0  0  0  0  0999 V2000
  154.2749  138.1447  184.7110 N   0  0  0  0  0  0  0  0  0  0  0  0
  153.7916  138.0810  186.0398 C   0  0  0  0  0  0  0  0  0  0  0  0
  153.0757  138.9917  186.4403 O   0  0  0  0  0  0  0  0  0  0  0  0
  154.1371  136.9853  186.8710 N   0  0  0  0  0  0  0  0  0  0  0  0
  154.8913  137.3291  184.4099 H   0  0  0  0  0  0  0  0  0  0  0  0
  154.7738  136.2370  186.4443 H   0  0  0  0  0  0  0  0  0  0  0  0
  153.7250  136.8152  188.2037 C   0  0  0  0  0  0  0  0  0  0  0  0
  152.5002  136.3475  188.5998 C   0  0  0  0  0  0  0  0  0  0  0  0
  152.1089  136.2170  189.9394 C   0  0  0  0  0  0  0  0  0  0  0  0
  153.0171  136.5834  190.8853 C   0  0  0  0  0  0  0  0  0  0  0  0
  154.2700  137.0633  190.5756 C   0  0  0  0  0  0  0  0  0  0  0  0
  155.1530  137.4164  191.5976 C   0  0  0  0  0  0  0  0  0  0  0  0
  156.3696  137.8773  191.2943 N   0  0  0  0  0  0  0  0  0  0  0  0
  156.7156  137.9903  190.0266 C   0  0  0  0  0  0  0  0  0  0  0  0
  155.8653  137.6492  188.9688 C   0  0  0  0  0  0  0  0  0  0  0  0
  154.6155  137.1759  189.2478 C   0  0  0  0  0  0  0  0  0  0  0  0
  151.9139  140.0919  180.7733 C   0  0  0  0  0  0  0  0  0  0  0  0
  152.9088  140.1775  181.8617 C   0  0  0  0  0  0  0  0  0  0  0  0
  153.6375  141.3272  181.9909 C   0  0  0  0  0  0  0  0  0  0  0  0
  154.5545  141.3844  183.0073 C   0  0  0  0  0  0  0  0  0  0  0  0
  154.7632  140.3541  183.8792 C   0  0  0  0  0  0  0  0  0  0  0  0
  154.0321  139.1530  183.7784 C   0  0  0  0  0  0  0  0  0  0  0  0
  153.1242  139.1263  182.7547 C   0  0  0  0  0  0  0  0  0  0  0  0
 17 18  1  0  0  0
 18 19  2  0  0  0
 19 20  1  0  0  0
 20 21  2  0  0  0
 21 22  1  0  0  0
 22  1  1  0  0  0
  1  2  1  0  0  0
  2  3  2  0  0  0
  2  4  1  0  0  0
  4  7  1  0  0  0
  7  8  2  0  0  0
  8  9  1  0  0  0
  9 10  2  0  0  0
 10 11  1  0  0  0
 11 12  2  0  0  0
 12 13  1  0  0  0
 13 14  2  0  0  0
 14 15  1  0  0  0
 15 16  2  0  0  0
 22 23  2  0  0  0
 23 18  1  0  0  0
 16  7  1  0  0  0
 16 11  1  0  0  0
  1  5  1  0  0  0
  4  6  1  0  0  0
M  END
> <minimizedAffinity>
-6.99374

> <CNNscore>
0.3251537681

> <CNNaffinity>
4.6684188843

> <CNN_VS>
1.5179539919

> <CNNaffinity_variance>
0.1238136515

$$$$
[H]c1nc([H])c2c([H])c([H])c([H])c(N([H])C(=O)N([H])c3c([H])c([H])c([H])c(C([H])([H])[H])c3[H])c2c1[H]


 23 25  0  0  0  0  0  0  0  0999 V2000
  156.2428  139.2933  183.8818 N   0  0  0  0  0  0  0  0  0  0  0  0
  156.6380  140.6484  183.7774 C   0  0  0  0  0  0  0  0  0  0  0  0
  155.9505  141.4971  184.3335 O   0  0  0  0  0  0  0  0  0  0  0  0
  157.8013  140.9960  183.0446 N   0  0  0  0  0  0  0  0  0  0  0  0
  156.8737  138.5941  183.3829 H   0  0  0  0  0  0  0  0  0  0  0  0
  158.3397  140.1931  182.5832 H   0  0  0  0  0  0  0  0  0  0  0  0
  158.2887  142.3019  182.8660 C   0  0  0  0  0  0  0  0  0  0  0  0
  157.8672  143.1791  181.9023 C   0  0  0  0  0  0  0  0  0  0  0  0
  158.3950  144.4664  181.7319 C   0  0  0  0  0  0  0  0  0  0  0  0
  159.3846  144.8449  182.5869 C   0  0  0  0  0  0  0  0  0  0  0  0
  159.8680  144.0269  183.5835 C   0  0  0  0  0  0  0  0  0  0  0  0
  160.8822  144.4821  184.4278 C   0  0  0  0  0  0  0  0  0  0  0  0
  161.3460  143.6880  185.3968 N   0  0  0  0  0  0  0  0  0  0  0  0
  160.8330  142.4813  185.5384 C   0  0  0  0  0  0  0  0  0  0  0  0
  159.8161  141.9818  184.7170 C   0  0  0  0  0  0  0  0  0  0  0  0
  159.3225  142.7701  183.7177 C   0  0  0  0  0  0  0  0  0  0  0  0
  153.6483  138.2082  188.0004 C   0  0  0  0  0  0  0  0  0  0  0  0
  153.7926  138.2464  186.5309 C   0  0  0  0  0  0  0  0  0  0  0  0
  152.7615  137.7832  185.7616 C   0  0  0  0  0  0  0  0  0  0  0  0
  152.9172  137.8281  184.4011 C   0  0  0  0  0  0  0  0  0  0  0  0
  154.0437  138.3093  183.7971 C   0  0  0  0  0  0  0  0  0  0  0  0
  155.1280  138.7951  184.5558 C   0  0  0  0  0  0  0  0  0  0  0  0
  154.9426  138.7379  185.9105 C   0  0  0  0  0  0  0  0  0  0  0  0
 17 18  1  0  0  0
 18 19  2  0  0  0
 19 20  1  0  0  0
 20 21  2  0  0  0
 21 22  1  0  0  0
 22  1  1  0  0  0
  1  2  1  0  0  0
  2  3  2  0  0  0
  2  4  1  0  0  0
  4  7  1  0  0  0
  7  8  2  0  0  0
  8  9  1  0  0  0
  9 10  2  0  0  0
 10 11  1  0  0  0
 11 12  2  0  0  0
 12 13  1  0  0  0
 13 14  2  0  0  0
 14 15  1  0  0  0
 15 16  2  0  0  0
 22 23  2  0  0  0
 23 18  1  0  0  0
 16  7  1  0  0  0
 16 11  1  0  0  0
  1  5  1  0  0  0
  4  6  1  0  0  0
M  END
> <minimizedAffinity>
-7.40429

> <CNNscore>
0.3102808893

> <CNNaffinity>
5.6823077202

> <CNN_VS>
1.7631114721

> <CNNaffinity_variance>
0.0973171592

$$$$
[H]c1nc([H])c2c([H])c([H])c([H])c(N([H])C(=O)N([H])c3c([H])c([H])c([H])c(C([H])([H])[H])c3[H])c2c1[H]


 23 25  0  0  0  0  0  0  0  0999 V2000
  158.1075  142.0207  184.4271 N   0  0  0  0  0  0  0  0  0  0  0  0
  157.3299  140.8402  184.4983 C   0  0  0  0  0  0  0  0  0  0  0  0
  157.8891  139.7959  184.8128 O   0  0  0  0  0  0  0  0  0  0  0  0
  155.9421  140.8838  184.2099 N   0  0  0  0  0  0  0  0  0  0  0  0
  157.5754  142.9020  184.1513 H   0  0  0  0  0  0  0  0  0  0  0  0
  155.5352  141.8360  183.9355 H   0  0  0  0  0  0  0  0  0  0  0  0
  155.0711  139.7814  184.2411 C   0  0  0  0  0  0  0  0  0  0  0  0
  155.1679  138.7204  185.1016 C   0  0  0  0  0  0  0  0  0  0  0  0
  154.2991  137.6205  185.0877 C   0  0  0  0  0  0  0  0  0  0  0  0
  153.3081  137.6297  184.1541 C   0  0  0  0  0  0  0  0  0  0  0  0
  153.1383  138.6551  183.2510 C   0  0  0  0  0  0  0  0  0  0  0  0
  152.0968  138.6008  182.3230 C   0  0  0  0  0  0  0  0  0  0  0  0
  151.9316  139.5994  181.4511 N   0  0  0  0  0  0  0  0  0  0  0  0
  152.7610  140.6243  181.4843 C   0  0  0  0  0  0  0  0  0  0  0  0
  153.8185  140.7227  182.3953 C   0  0  0  0  0  0  0  0  0  0  0  0
  154.0127  139.7173  183.2982 C   0  0  0  0  0  0  0  0  0  0  0  0
  162.0343  143.3661  187.1915 C   0  0  0  0  0  0  0  0  0  0  0  0
  161.4488  142.7604  185.9782 C   0  0  0  0  0  0  0  0  0  0  0  0
  162.2929  142.2569  185.0276 C   0  0  0  0  0  0  0  0  0  0  0  0
  161.7279  141.7000  183.9106 C   0  0  0  0  0  0  0  0  0  0  0  0
  160.3778  141.6310  183.7160 C   0  0  0  0  0  0  0  0  0  0  0  0
  159.4754  142.1391  184.6725 C   0  0  0  0  0  0  0  0  0  0  0  0
  160.0693  142.6881  185.7764 C   0  0  0  0  0  0  0  0  0  0  0  0
 17 18  1  0  0  0
 18 19  2  0  0  0
 19 20  1  0  0  0
 20 21  2  0  0  0
 21 22  1  0  0  0
 22  1  1  0  0  0
  1  2  1  0  0  0
  2  3  2  0  0  0
  2  4  1  0  0  0
  4  7  1  0  0  0
  7  8  2  0  0  0
  8  9  1  0  0  0
  9 10  2  0  0  0
 10 11  1  0  0  0
 11 12  2  0  0  0
 12 13  1  0  0  0
 13 14  2  0  0  0
 14 15  1  0  0  0
 15 16  2  0  0  0
 22 23  2  0  0  0
 23 18  1  0  0  0
 16  7  1  0  0  0
 16 11  1  0  0  0
  1  5  1  0  0  0
  4  6  1  0  0  0
M  END
> <minimizedAffinity>
-8.63443

> <CNNscore>
0.3089266121

> <CNNaffinity>
5.4431333542

> <CNN_VS>
1.6815286875

> <CNNaffinity_variance>
0.0622183383

$$$$
[H]c1nc([H])c2c([H])c([H])c([H])c(N([H])C(=O)N([H])c3c([H])c([H])c([H])c(C([H])([H])[H])c3[H])c2c1[H]


 23 25  0  0  0  0  0  0  0  0999 V2000
  153.9975  139.6671  183.4612 N   0  0  0  0  0  0  0  0  0  0  0  0
  153.1476  139.7171  182.3305 C   0  0  0  0  0  0  0  0  0  0  0  0
  153.5192  140.3581  181.3542 O   0  0  0  0  0  0  0  0  0  0  0  0
  151.9031  139.0375  182.3450 N   0  0  0  0  0  0  0  0  0  0  0  0
  153.6307  139.0961  184.2831 H   0  0  0  0  0  0  0  0  0  0  0  0
  151.6522  138.5077  183.2416 H   0  0  0  0  0  0  0  0  0  0  0  0
  150.9755  139.0188  181.2895 C   0  0  0  0  0  0  0  0  0  0  0  0
  151.2780  139.2049  179.9668 C   0  0  0  0  0  0  0  0  0  0  0  0
  150.3242  139.2096  178.9397 C   0  0  0  0  0  0  0  0  0  0  0  0
  149.0263  139.0159  179.3029 C   0  0  0  0  0  0  0  0  0  0  0  0
  148.6342  138.8214  180.6084 C   0  0  0  0  0  0  0  0  0  0  0  0
  147.2852  138.6244  180.9087 C   0  0  0  0  0  0  0  0  0  0  0  0
  146.9082  138.4312  182.1756 N   0  0  0  0  0  0  0  0  0  0  0  0
  147.8240  138.4299  183.1247 C   0  0  0  0  0  0  0  0  0  0  0  0
  149.1868  138.6229  182.8723 C   0  0  0  0  0  0  0  0  0  0  0  0
  149.6021  138.8234  181.5874 C   0  0  0  0  0  0  0  0  0  0  0  0
  158.9554  139.6204  183.9980 C   0  0  0  0  0  0  0  0  0  0  0  0
  157.6731  140.3394  183.8550 C   0  0  0  0  0  0  0  0  0  0  0  0
  157.6896  141.7065  183.8386 C   0  0  0  0  0  0  0  0  0  0  0  0
  156.4887  142.3524  183.7053 C   0  0  0  0  0  0  0  0  0  0  0  0
  155.2984  141.6926  183.5905 C   0  0  0  0  0  0  0  0  0  0  0  0
  155.2402  140.2841  183.6035 C   0  0  0  0  0  0  0  0  0  0  0  0
  156.4548  139.6679  183.7373 C   0  0  0  0  0  0  0  0  0  0  0  0
 17 18  1  0  0  0
 18 19  2  0  0  0
 19 20  1  0  0  0
 20 21  2  0  0  0
 21 22  1  0  0  0
 22  1  1  0  0  0
  1  2  1  0  0  0
  2  3  2  0  0  0
  2  4  1  0  0  0
  4  7  1  0  0  0
  7  8  2  0  0  0
  8  9  1  0  0  0
  9 10  2  0  0  0
 10 11  1  0  0  0
 11 12  2  0  0  0
 12 13  1  0  0  0
 13 14  2  0  0  0
 14 15  1  0  0  0
 15 16  2  0  0  0
 22 23  2  0  0  0
 23 18  1  0  0  0
 16  7  1  0  0  0
 16 11  1  0  0  0
  1  5  1  0  0  0
  4  6  1  0  0  0
M  END
> <minimizedAffinity>
-7.16603

> <CNNscore>
0.3062413931

> <CNNaffinity>
4.8930139542

> <CNN_VS>
1.4984433651

> <CNNaffinity_variance>
0.1627021134

$$$$
[H]c1c([H])c(C(C([H])([H])[H])(C([H])([H])[H])C([H])([H])[H])c([H])c2c1C([H])(N([H])C(=O)N([H])c1c([H])c([H])c([H])c3c1c([H])nn3[H])C([H])([H])C2([H])[H]


 29 32  0  0  0  0  0  0  0  0999 V2000
  151.9315  137.3489  184.7453 N   0  0  0  0  0  0  0  0  0  0  0  0
  151.6460  137.3392  183.3335 C   0  0  0  0  0  0  0  0  0  0  0  0
  152.5683  137.0029  182.5913 O   0  0  0  0  0  0  0  0  0  0  0  0
  150.3731  137.6937  182.8908 N   0  0  0  0  0  0  0  0  0  0  0  0
  151.2081  137.6349  185.4011 H   0  0  0  0  0  0  0  0  0  0  0  0
  149.6322  137.9945  183.6300 H   0  0  0  0  0  0  0  0  0  0  0  0
  149.8683  137.7079  181.5732 C   0  0  0  0  0  0  0  0  0  0  0  0
  148.9336  136.7936  181.1451 C   0  0  0  0  0  0  0  0  0  0  0  0
  148.4220  136.8454  179.8505 C   0  0  0  0  0  0  0  0  0  0  0  0
  148.8492  137.8132  178.9852 C   0  0  0  0  0  0  0  0  0  0  0  0
  149.7832  138.7243  179.4094 C   0  0  0  0  0  0  0  0  0  0  0  0
  150.3595  139.7522  178.7643 N   0  0  0  0  0  0  0  0  0  0  0  0
  151.2100  140.3568  179.5793 N   0  0  0  0  0  0  0  0  0  0  0  0
  151.1963  139.7291  180.7660 C   0  0  0  0  0  0  0  0  0  0  0  0
  150.2920  138.6866  180.6767 C   0  0  0  0  0  0  0  0  0  0  0  0
  150.1788  140.0364  177.7944 H   0  0  0  0  0  0  0  0  0  0  0  0
  154.7500  137.6910  189.1242 C   0  0  0  0  0  0  0  0  0  0  0  0
  153.9121  138.6310  188.5737 C   0  0  0  0  0  0  0  0  0  0  0  0
  153.3532  138.5257  187.3244 C   0  0  0  0  0  0  0  0  0  0  0  0
  153.6169  137.4248  186.5309 C   0  0  0  0  0  0  0  0  0  0  0  0
  153.2269  136.9588  185.2119 C   0  0  0  0  0  0  0  0  0  0  0  0
  153.1991  135.4115  185.4388 C   0  0  0  0  0  0  0  0  0  0  0  0
  154.6008  135.3070  186.0650 C   0  0  0  0  0  0  0  0  0  0  0  0
  154.4623  136.4572  187.0606 C   0  0  0  0  0  0  0  0  0  0  0  0
  155.0031  136.5935  188.3096 C   0  0  0  0  0  0  0  0  0  0  0  0
  154.8761  139.0370  191.1434 C   0  0  0  0  0  0  0  0  0  0  0  0
  155.3425  137.7733  190.4846 C   0  0  0  0  0  0  0  0  0  0  0  0
  154.9465  136.5713  191.3134 C   0  0  0  0  0  0  0  0  0  0  0  0
  156.8419  137.8855  190.3456 C   0  0  0  0  0  0  0  0  0  0  0  0
 26 27  1  0  0  0
 27 28  1  0  0  0
 27 29  1  0  0  0
 27 17  1  0  0  0
 17 18  2  0  0  0
 18 19  1  0  0  0
 19 20  2  0  0  0
 20 21  1  0  0  0
 21 22  1  0  0  0
 22 23  1  0  0  0
 23 24  1  0  0  0
 24 25  2  0  0  0
 21  1  1  0  0  0
  1  2  1  0  0  0
  2  3  2  0  0  0
  2  4  1  0  0  0
  4  7  1  0  0  0
  7  8  2  0  0  0
  8  9  1  0  0  0
  9 10  2  0  0  0
 10 11  1  0  0  0
 11 12  1  0  0  0
 12 13  1  0  0  0
 13 14  2  0  0  0
 14 15  1  0  0  0
 25 17  1  0  0  0
 15  7  1  0  0  0
 24 20  1  0  0  0
 15 11  2  0  0  0
  1  5  1  0  0  0
  4  6  1  0  0  0
 12 16  1  0  0  0
M  END
> <minimizedAffinity>
-7.23297

> <CNNscore>
0.5619339347

> <CNNaffinity>
5.3041777611

> <CNN_VS>
2.9805974960

> <CNNaffinity_variance>
0.0480085835

$$$$
[H]c1c([H])c(C(C([H])([H])[H])(C([H])([H])[H])C([H])([H])[H])c([H])c2c1C([H])(N([H])C(=O)N([H])c1c([H])c([H])c([H])c3c1c([H])nn3[H])C([H])([H])C2([H])[H]


 29 32  0  0  0  0  0  0  0  0999 V2000
  156.4280  141.2812  183.4986 N   0  0  0  0  0  0  0  0  0  0  0  0
  157.6984  141.2288  184.1756 C   0  0  0  0  0  0  0  0  0  0  0  0
  157.7546  140.5183  185.1789 O   0  0  0  0  0  0  0  0  0  0  0  0
  158.7729  141.9584  183.6706 N   0  0  0  0  0  0  0  0  0  0  0  0
  156.3237  141.8665  182.6730 H   0  0  0  0  0  0  0  0  0  0  0  0
  158.6127  142.5720  182.7854 H   0  0  0  0  0  0  0  0  0  0  0  0
  160.1019  142.0143  184.1416 C   0  0  0  0  0  0  0  0  0  0  0  0
  161.1684  141.6649  183.3458 C   0  0  0  0  0  0  0  0  0  0  0  0
  162.4755  141.7596  183.8180 C   0  0  0  0  0  0  0  0  0  0  0  0
  162.7124  142.2031  185.0888 C   0  0  0  0  0  0  0  0  0  0  0  0
  161.6500  142.5495  185.8850 C   0  0  0  0  0  0  0  0  0  0  0  0
  161.6145  143.0022  187.1493 N   0  0  0  0  0  0  0  0  0  0  0  0
  160.3550  143.2006  187.5063 N   0  0  0  0  0  0  0  0  0  0  0  0
  159.5554  142.8797  186.4767 C   0  0  0  0  0  0  0  0  0  0  0  0
  160.3632  142.4635  185.4343 C   0  0  0  0  0  0  0  0  0  0  0  0
  162.4261  143.1731  187.7545 H   0  0  0  0  0  0  0  0  0  0  0  0
  151.8978  139.3963  181.7212 C   0  0  0  0  0  0  0  0  0  0  0  0
  152.4807  140.6111  181.4510 C   0  0  0  0  0  0  0  0  0  0  0  0
  153.5845  141.0973  182.1063 C   0  0  0  0  0  0  0  0  0  0  0  0
  154.1857  140.3574  183.1074 C   0  0  0  0  0  0  0  0  0  0  0  0
  155.3264  140.5130  183.9927 C   0  0  0  0  0  0  0  0  0  0  0  0
  155.8073  139.0303  184.1224 C   0  0  0  0  0  0  0  0  0  0  0  0
  154.4365  138.4399  184.4970 C   0  0  0  0  0  0  0  0  0  0  0  0
  153.6176  139.1241  183.4039 C   0  0  0  0  0  0  0  0  0  0  0  0
  152.5165  138.6694  182.7317 C   0  0  0  0  0  0  0  0  0  0  0  0
  149.4725  139.2453  181.7313 C   0  0  0  0  0  0  0  0  0  0  0  0
  150.7203  138.8404  181.0048 C   0  0  0  0  0  0  0  0  0  0  0  0
  150.6812  139.3362  179.5761 C   0  0  0  0  0  0  0  0  0  0  0  0
  150.7899  137.3334  181.0707 C   0  0  0  0  0  0  0  0  0  0  0  0
 26 27  1  0  0  0
 27 28  1  0  0  0
 27 29  1  0  0  0
 27 17  1  0  0  0
 17 18  2  0  0  0
 18 19  1  0  0  0
 19 20  2  0  0  0
 20 21  1  0  0  0
 21 22  1  0  0  0
 22 23  1  0  0  0
 23 24  1  0  0  0
 24 25  2  0  0  0
 21  1  1  0  0  0
  1  2  1  0  0  0
  2  3  2  0  0  0
  2  4  1  0  0  0
  4  7  1  0  0  0
  7  8  2  0  0  0
  8  9  1  0  0  0
  9 10  2  0  0  0
 10 11  1  0  0  0
 11 12  1  0  0  0
 12 13  1  0  0  0
 13 14  2  0  0  0
 14 15  1  0  0  0
 25 17  1  0  0  0
 15  7  1  0  0  0
 24 20  1  0  0  0
 15 11  2  0  0  0
  1  5  1  0  0  0
  4  6  1  0  0  0
 12 16  1  0  0  0
M  END
> <minimizedAffinity>
-9.25287

> <CNNscore>
0.5280254483

> <CNNaffinity>
6.3500695229

> <CNN_VS>
3.3529982567

> <CNNaffinity_variance>
0.0610183068

$$$$
[H]c1c([H])c(C(C([H])([H])[H])(C([H])([H])[H])C([H])([H])[H])c([H])c2c1C([H])(N([H])C(=O)N([H])c1c([H])c([H])c([H])c3c1c([H])nn3[H])C([H])([H])C2([H])[H]


 29 32  0  0  0  0  0  0  0  0999 V2000
  153.3678  139.4361  183.5998 N   0  0  0  0  0  0  0  0  0  0  0  0
  152.6263  138.8755  182.4995 C   0  0  0  0  0  0  0  0  0  0  0  0
  153.2889  138.3579  181.6007 O   0  0  0  0  0  0  0  0  0  0  0  0
  151.2342  138.9382  182.5104 N   0  0  0  0  0  0  0  0  0  0  0  0
  152.8685  139.8902  184.3611 H   0  0  0  0  0  0  0  0  0  0  0  0
  150.7442  139.4359  183.3459 H   0  0  0  0  0  0  0  0  0  0  0  0
  150.3191  138.4180  181.5707 C   0  0  0  0  0  0  0  0  0  0  0  0
  149.4399  137.4109  181.8958 C   0  0  0  0  0  0  0  0  0  0  0  0
  148.5208  136.9343  180.9639 C   0  0  0  0  0  0  0  0  0  0  0  0
  148.4848  137.4669  179.7057 C   0  0  0  0  0  0  0  0  0  0  0  0
  149.3625  138.4695  179.3787 C   0  0  0  0  0  0  0  0  0  0  0  0
  149.5305  139.1459  178.2303 N   0  0  0  0  0  0  0  0  0  0  0  0
  150.5071  140.0270  178.3819 N   0  0  0  0  0  0  0  0  0  0  0  0
  150.9859  139.9347  179.6328 C   0  0  0  0  0  0  0  0  0  0  0  0
  150.2678  138.9478  180.2831 C   0  0  0  0  0  0  0  0  0  0  0  0
  148.9942  139.0127  177.3649 H   0  0  0  0  0  0  0  0  0  0  0  0
  157.4522  142.5128  182.5573 C   0  0  0  0  0  0  0  0  0  0  0  0
  156.2564  142.4263  181.8857 C   0  0  0  0  0  0  0  0  0  0  0  0
  155.3108  141.4593  182.1201 C   0  0  0  0  0  0  0  0  0  0  0  0
  155.5256  140.4897  183.0818 C   0  0  0  0  0  0  0  0  0  0  0  0
  154.7963  139.3512  183.6118 C   0  0  0  0  0  0  0  0  0  0  0  0
  155.2564  139.3721  185.1065 C   0  0  0  0  0  0  0  0  0  0  0  0
  156.7667  139.4331  184.8179 C   0  0  0  0  0  0  0  0  0  0  0  0
  156.7274  140.5508  183.7773 C   0  0  0  0  0  0  0  0  0  0  0  0
  157.6488  141.5280  183.5184 C   0  0  0  0  0  0  0  0  0  0  0  0
  157.7969  144.9038  182.2938 C   0  0  0  0  0  0  0  0  0  0  0  0
  158.4760  143.5675  182.3378 C   0  0  0  0  0  0  0  0  0  0  0  0
  159.5143  143.5414  183.4376 C   0  0  0  0  0  0  0  0  0  0  0  0
  159.0976  143.3528  180.9785 C   0  0  0  0  0  0  0  0  0  0  0  0
 26 27  1  0  0  0
 27 28  1  0  0  0
 27 29  1  0  0  0
 27 17  1  0  0  0
 17 18  2  0  0  0
 18 19  1  0  0  0
 19 20  2  0  0  0
 20 21  1  0  0  0
 21 22  1  0  0  0
 22 23  1  0  0  0
 23 24  1  0  0  0
 24 25  2  0  0  0
 21  1  1  0  0  0
  1  2  1  0  0  0
  2  3  2  0  0  0
  2  4  1  0  0  0
  4  7  1  0  0  0
  7  8  2  0  0  0
  8  9  1  0  0  0
  9 10  2  0  0  0
 10 11  1  0  0  0
 11 12  1  0  0  0
 12 13  1  0  0  0
 13 14  2  0  0  0
 14 15  1  0  0  0
 25 17  1  0  0  0
 15  7  1  0  0  0
 24 20  1  0  0  0
 15 11  2  0  0  0
  1  5  1  0  0  0
  4  6  1  0  0  0
 12 16  1  0  0  0
M  END
> <minimizedAffinity>
-7.18699

> <CNNscore>
0.5255220532

> <CNNaffinity>
6.0717797279

> <CNN_VS>
3.1908540726

> <CNNaffinity_variance>
0.0752283707

$$$$
[H]c1c([H])c(C(C([H])([H])[H])(C([H])([H])[H])C([H])([H])[H])c([H])c2c1C([H])(N([H])C(=O)N([H])c1c([H])c([H])c([H])c3c1c([H])nn3[H])C([H])([H])C2([H])[H]


 29 32  0  0  0  0  0  0  0  0999 V2000
  155.5749  140.4606  182.4942 N   0  0  0  0  0  0  0  0  0  0  0  0
  154.1440  140.3533  182.3676 C   0  0  0  0  0  0  0  0  0  0  0  0
  153.5112  141.4083  182.4026 O   0  0  0  0  0  0  0  0  0  0  0  0
  153.5640  139.0963  182.2084 N   0  0  0  0  0  0  0  0  0  0  0  0
  156.1433  139.6169  182.4877 H   0  0  0  0  0  0  0  0  0  0  0  0
  154.2130  138.2219  182.2094 H   0  0  0  0  0  0  0  0  0  0  0  0
  152.2045  138.7681  182.0210 C   0  0  0  0  0  0  0  0  0  0  0  0
  151.4813  138.0987  182.9810 C   0  0  0  0  0  0  0  0  0  0  0  0
  150.1309  137.8140  182.7915 C   0  0  0  0  0  0  0  0  0  0  0  0
  149.5067  138.1995  181.6383 C   0  0  0  0  0  0  0  0  0  0  0  0
  150.2269  138.8649  180.6785 C   0  0  0  0  0  0  0  0  0  0  0  0
  149.8559  139.3396  179.4778 N   0  0  0  0  0  0  0  0  0  0  0  0
  150.8978  139.9109  178.8938 N   0  0  0  0  0  0  0  0  0  0  0  0
  151.9601  139.8152  179.7092 C   0  0  0  0  0  0  0  0  0  0  0  0
  151.5511  139.1524  180.8519 C   0  0  0  0  0  0  0  0  0  0  0  0
  148.9176  139.2777  179.0656 H   0  0  0  0  0  0  0  0  0  0  0  0
  159.8191  142.5432  184.7042 C   0  0  0  0  0  0  0  0  0  0  0  0
  159.0037  141.5505  185.1921 C   0  0  0  0  0  0  0  0  0  0  0  0
  157.8051  141.1925  184.6268 C   0  0  0  0  0  0  0  0  0  0  0  0
  157.3450  141.8389  183.4948 C   0  0  0  0  0  0  0  0  0  0  0  0
  156.1825  141.7493  182.6291 C   0  0  0  0  0  0  0  0  0  0  0  0
  156.8116  142.1201  181.2460 C   0  0  0  0  0  0  0  0  0  0  0  0
  157.5014  143.4132  181.7149 C   0  0  0  0  0  0  0  0  0  0  0  0
  158.1482  142.8489  182.9785 C   0  0  0  0  0  0  0  0  0  0  0  0
  159.3374  143.1812  183.5671 C   0  0  0  0  0  0  0  0  0  0  0  0
  161.4163  144.3588  184.9437 C   0  0  0  0  0  0  0  0  0  0  0  0
  161.1323  142.9265  185.2850 C   0  0  0  0  0  0  0  0  0  0  0  0
  161.1294  142.7342  186.7855 C   0  0  0  0  0  0  0  0  0  0  0  0
  162.2073  142.1015  184.6188 C   0  0  0  0  0  0  0  0  0  0  0  0
 26 27  1  0  0  0
 27 28  1  0  0  0
 27 29  1  0  0  0
 27 17  1  0  0  0
 17 18  2  0  0  0
 18 19  1  0  0  0
 19 20  2  0  0  0
 20 21  1  0  0  0
 21 22  1  0  0  0
 22 23  1  0  0  0
 23 24  1  0  0  0
 24 25  2  0  0  0
 21  1  1  0  0  0
  1  2  1  0  0  0
  2  3  2  0  0  0
  2  4  1  0  0  0
  4  7  1  0  0  0
  7  8  2  0  0  0
  8  9  1  0  0  0
  9 10  2  0  0  0
 10 11  1  0  0  0
 11 12  1  0  0  0
 12 13  1  0  0  0
 13 14  2  0  0  0
 14 15  1  0  0  0
 25 17  1  0  0  0
 15  7  1  0  0  0
 24 20  1  0  0  0
 15 11  2  0  0  0
  1  5  1  0  0  0
  4  6  1  0  0  0
 12 16  1  0  0  0
M  END
> <minimizedAffinity>
-9.38037

> <CNNscore>
0.5122438073

> <CNNaffinity>
6.3039159775

> <CNN_VS>
3.2291419506

> <CNNaffinity_variance>
0.0920287743

$$$$
[H]c1c([H])c(C(C([H])([H])[H])(C([H])([H])[H])C([H])([H])[H])c([H])c2c1C([H])(N([H])C(=O)N([H])c1c([H])c([H])c([H])c3c1c([H])nn3[H])C([H])([H])C2([H])[H]


 29 32  0  0  0  0  0  0  0  0999 V2000
  154.0141  139.6236  182.1227 N   0  0  0  0  0  0  0  0  0  0  0  0
  154.5786  140.9480  182.1684 C   0  0  0  0  0  0  0  0  0  0  0  0
  153.8382  141.8445  182.5719 O   0  0  0  0  0  0  0  0  0  0  0  0
  155.9004  141.1420  181.7721 N   0  0  0  0  0  0  0  0  0  0  0  0
  154.5791  138.8493  181.7816 H   0  0  0  0  0  0  0  0  0  0  0  0
  156.4652  140.2833  181.4125 H   0  0  0  0  0  0  0  0  0  0  0  0
  156.6597  142.3313  181.7807 C   0  0  0  0  0  0  0  0  0  0  0  0
  156.4736  143.3033  182.7365 C   0  0  0  0  0  0  0  0  0  0  0  0
  157.2569  144.4551  182.7483 C   0  0  0  0  0  0  0  0  0  0  0  0
  158.2254  144.6325  181.8005 C   0  0  0  0  0  0  0  0  0  0  0  0
  158.4108  143.6656  180.8448 C   0  0  0  0  0  0  0  0  0  0  0  0
  159.2767  143.6025  179.8197 N   0  0  0  0  0  0  0  0  0  0  0  0
  159.0862  142.4723  179.1568 N   0  0  0  0  0  0  0  0  0  0  0  0
  158.0934  141.7856  179.7443 C   0  0  0  0  0  0  0  0  0  0  0  0
  157.6513  142.5302  180.8225 C   0  0  0  0  0  0  0  0  0  0  0  0
  159.9805  144.3096  179.5770 H   0  0  0  0  0  0  0  0  0  0  0  0
  149.3835  138.4987  179.9951 C   0  0  0  0  0  0  0  0  0  0  0  0
  150.3643  139.3310  179.5118 C   0  0  0  0  0  0  0  0  0  0  0  0
  151.4731  139.7097  180.2271 C   0  0  0  0  0  0  0  0  0  0  0  0
  151.6624  139.2521  181.5178 C   0  0  0  0  0  0  0  0  0  0  0  0
  152.6668  139.4091  182.5549 C   0  0  0  0  0  0  0  0  0  0  0  0
  152.6102  138.0041  183.2396 C   0  0  0  0  0  0  0  0  0  0  0  0
  151.0853  137.9767  183.4441 C   0  0  0  0  0  0  0  0  0  0  0  0
  150.6858  138.4089  182.0345 C   0  0  0  0  0  0  0  0  0  0  0  0
  149.5923  138.0515  181.2945 C   0  0  0  0  0  0  0  0  0  0  0  0
  148.1106  136.5585  179.2738 C   0  0  0  0  0  0  0  0  0  0  0  0
  148.1908  138.0552  179.2273 C   0  0  0  0  0  0  0  0  0  0  0  0
  146.9303  138.6671  179.7976 C   0  0  0  0  0  0  0  0  0  0  0  0
  148.3885  138.4333  177.7788 C   0  0  0  0  0  0  0  0  0  0  0  0
 26 27  1  0  0  0
 27 28  1  0  0  0
 27 29  1  0  0  0
 27 17  1  0  0  0
 17 18  2  0  0  0
 18 19  1  0  0  0
 19 20  2  0  0  0
 20 21  1  0  0  0
 21 22  1  0  0  0
 22 23  1  0  0  0
 23 24  1  0  0  0
 24 25  2  0  0  0
 21  1  1  0  0  0
  1  2  1  0  0  0
  2  3  2  0  0  0
  2  4  1  0  0  0
  4  7  1  0  0  0
  7  8  2  0  0  0
  8  9  1  0  0  0
  9 10  2  0  0  0
 10 11  1  0  0  0
 11 12  1  0  0  0
 12 13  1  0  0  0
 13 14  2  0  0  0
 14 15  1  0  0  0
 25 17  1  0  0  0
 15  7  1  0  0  0
 24 20  1  0  0  0
 15 11  2  0  0  0
  1  5  1  0  0  0
  4  6  1  0  0  0
 12 16  1  0  0  0
M  END
> <minimizedAffinity>
-8.64350

> <CNNscore>
0.4538348019

> <CNNaffinity>
5.9243254662

> <CNN_VS>
2.6886651516

> <CNNaffinity_variance>
0.0341590308

$$$$
[H]c1c([H])c(C(C([H])([H])[H])(C([H])([H])[H])C([H])([H])[H])c([H])c2c1C([H])(N([H])C(=O)N([H])c1c([H])c([H])c([H])c3c1c([H])nn3[H])C([H])([H])C2([H])[H]


 29 32  0  0  0  0  0  0  0  0999 V2000
  152.3925  137.0887  184.8111 N   0  0  0  0  0  0  0  0  0  0  0  0
  152.4032  137.7139  183.5134 C   0  0  0  0  0  0  0  0  0  0  0  0
  153.5091  137.9140  183.0118 O   0  0  0  0  0  0  0  0  0  0  0  0
  151.1946  138.0450  182.9039 N   0  0  0  0  0  0  0  0  0  0  0  0
  151.5047  136.9157  185.2768 H   0  0  0  0  0  0  0  0  0  0  0  0
  150.2699  137.8423  183.4421 H   0  0  0  0  0  0  0  0  0  0  0  0
  150.9735  138.6135  181.6315 C   0  0  0  0  0  0  0  0  0  0  0  0
  151.7332  139.6606  181.1634 C   0  0  0  0  0  0  0  0  0  0  0  0
  151.5219  140.1856  179.8905 C   0  0  0  0  0  0  0  0  0  0  0  0
  150.5477  139.6611  179.0882 C   0  0  0  0  0  0  0  0  0  0  0  0
  149.7872  138.6185  179.5541 C   0  0  0  0  0  0  0  0  0  0  0  0
  148.7830  137.9399  178.9747 N   0  0  0  0  0  0  0  0  0  0  0  0
  148.3445  137.0116  179.8108 N   0  0  0  0  0  0  0  0  0  0  0  0
  149.0599  137.0748  180.9451 C   0  0  0  0  0  0  0  0  0  0  0  0
  149.9848  138.0925  180.7994 C   0  0  0  0  0  0  0  0  0  0  0  0
  148.4054  138.1029  178.0340 H   0  0  0  0  0  0  0  0  0  0  0  0
  154.7245  137.6324  189.4480 C   0  0  0  0  0  0  0  0  0  0  0  0
  153.9574  138.5468  188.7668 C   0  0  0  0  0  0  0  0  0  0  0  0
  153.5358  138.3836  187.4707 C   0  0  0  0  0  0  0  0  0  0  0  0
  153.8759  137.2459  186.7628 C   0  0  0  0  0  0  0  0  0  0  0  0
  153.6273  136.7187  185.4327 C   0  0  0  0  0  0  0  0  0  0  0  0
  153.5643  135.1839  185.7275 C   0  0  0  0  0  0  0  0  0  0  0  0
  154.8895  135.1065  186.5057 C   0  0  0  0  0  0  0  0  0  0  0  0
  154.6525  136.3028  187.4255 C   0  0  0  0  0  0  0  0  0  0  0  0
  155.0564  136.4971  188.7179 C   0  0  0  0  0  0  0  0  0  0  0  0
  154.4027  136.8098  191.7118 C   0  0  0  0  0  0  0  0  0  0  0  0
  155.1673  137.7778  190.8592 C   0  0  0  0  0  0  0  0  0  0  0  0
  156.6539  137.5256  190.9813 C   0  0  0  0  0  0  0  0  0  0  0  0
  154.7953  139.1616  191.3354 C   0  0  0  0  0  0  0  0  0  0  0  0
 26 27  1  0  0  0
 27 28  1  0  0  0
 27 29  1  0  0  0
 27 17  1  0  0  0
 17 18  2  0  0  0
 18 19  1  0  0  0
 19 20  2  0  0  0
 20 21  1  0  0  0
 21 22  1  0  0  0
 22 23  1  0  0  0
 23 24  1  0  0  0
 24 25  2  0  0  0
 21  1  1  0  0  0
  1  2  1  0  0  0
  2  3  2  0  0  0
  2  4  1  0  0  0
  4  7  1  0  0  0
  7  8  2  0  0  0
  8  9  1  0  0  0
  9 10  2  0  0  0
 10 11  1  0  0  0
 11 12  1  0  0  0
 12 13  1  0  0  0
 13 14  2  0  0  0
 14 15  1  0  0  0
 25 17  1  0  0  0
 15  7  1  0  0  0
 24 20  1  0  0  0
 15 11  2  0  0  0
  1  5  1  0  0  0
  4  6  1  0  0  0
 12 16  1  0  0  0
M  END
> <minimizedAffinity>
-7.45104

> <CNNscore>
0.3507565856

> <CNNaffinity>
5.0564556122

> <CNN_VS>
1.7735850811

> <CNNaffinity_variance>
0.0742552578

$$$$
[H]c1c([H])c(C(C([H])([H])[H])(C([H])([H])[H])C([H])([H])[H])c([H])c2c1C([H])(N([H])C(=O)N([H])c1c([H])c([H])c([H])c3c1c([H])nn3[H])C([H])([H])C2([H])[H]


 29 32  0  0  0  0  0  0  0  0999 V2000
  154.9010  139.6772  183.6259 N   0  0  0  0  0  0  0  0  0  0  0  0
  156.1313  140.3184  183.2382 C   0  0  0  0  0  0  0  0  0  0  0  0
  157.1431  139.6181  183.2587 O   0  0  0  0  0  0  0  0  0  0  0  0
  156.1141  141.6601  182.8621 N   0  0  0  0  0  0  0  0  0  0  0  0
  154.0382  140.2160  183.6417 H   0  0  0  0  0  0  0  0  0  0  0  0
  155.1668  142.1961  182.8966 H   0  0  0  0  0  0  0  0  0  0  0  0
  157.1809  142.4636  182.4068 C   0  0  0  0  0  0  0  0  0  0  0  0
  157.8413  143.3338  183.2431 C   0  0  0  0  0  0  0  0  0  0  0  0
  158.9145  144.0935  182.7831 C   0  0  0  0  0  0  0  0  0  0  0  0
  159.3240  143.9812  181.4840 C   0  0  0  0  0  0  0  0  0  0  0  0
  158.6651  143.1159  180.6476 C   0  0  0  0  0  0  0  0  0  0  0  0
  158.8649  142.8292  179.3505 N   0  0  0  0  0  0  0  0  0  0  0  0
  157.9766  141.9280  178.9611 N   0  0  0  0  0  0  0  0  0  0  0  0
  157.1878  141.6167  180.0019 C   0  0  0  0  0  0  0  0  0  0  0  0
  157.6124  142.3634  181.0858 C   0  0  0  0  0  0  0  0  0  0  0  0
  159.5878  143.2352  178.7449 H   0  0  0  0  0  0  0  0  0  0  0  0
  155.1438  136.7918  187.9677 C   0  0  0  0  0  0  0  0  0  0  0  0
  155.8219  137.9507  187.6750 C   0  0  0  0  0  0  0  0  0  0  0  0
  155.8344  138.5427  186.4365 C   0  0  0  0  0  0  0  0  0  0  0  0
  155.1368  137.9786  185.3848 C   0  0  0  0  0  0  0  0  0  0  0  0
  154.9035  138.2922  183.9861 C   0  0  0  0  0  0  0  0  0  0  0  0
  153.4465  137.7549  183.7993 C   0  0  0  0  0  0  0  0  0  0  0  0
  153.7045  136.3573  184.3894 C   0  0  0  0  0  0  0  0  0  0  0  0
  154.4418  136.8046  185.6503 C   0  0  0  0  0  0  0  0  0  0  0  0
  154.4507  136.2405  186.8964 C   0  0  0  0  0  0  0  0  0  0  0  0
  154.1276  136.9025  190.1722 C   0  0  0  0  0  0  0  0  0  0  0  0
  155.0952  136.1509  189.3077 C   0  0  0  0  0  0  0  0  0  0  0  0
  154.6798  134.7009  189.1915 C   0  0  0  0  0  0  0  0  0  0  0  0
  156.4529  136.2923  189.9533 C   0  0  0  0  0  0  0  0  0  0  0  0
 26 27  1  0  0  0
 27 28  1  0  0  0
 27 29  1  0  0  0
 27 17  1  0  0  0
 17 18  2  0  0  0
 18 19  1  0  0  0
 19 20  2  0  0  0
 20 21  1  0  0  0
 21 22  1  0  0  0
 22 23  1  0  0  0
 23 24  1  0  0  0
 24 25  2  0  0  0
 21  1  1  0  0  0
  1  2  1  0  0  0
  2  3  2  0  0  0
  2  4  1  0  0  0
  4  7  1  0  0  0
  7  8  2  0  0  0
  8  9  1  0  0  0
  9 10  2  0  0  0
 10 11  1  0  0  0
 11 12  1  0  0  0
 12 13  1  0  0  0
 13 14  2  0  0  0
 14 15  1  0  0  0
 25 17  1  0  0  0
 15  7  1  0  0  0
 24 20  1  0  0  0
 15 11  2  0  0  0
  1  5  1  0  0  0
  4  6  1  0  0  0
 12 16  1  0  0  0
M  END
> <minimizedAffinity>
-6.52169

> <CNNscore>
0.3456279039

> <CNNaffinity>
5.9640879631

> <CNN_VS>
2.0613551140

> <CNNaffinity_variance>
0.0568346009

$$$$
[H]c1c([H])c(C(C([H])([H])[H])(C([H])([H])[H])C([H])([H])[H])c([H])c2c1C([H])(N([H])C(=O)N([H])c1c([H])c([H])c([H])c3c1c([H])nn3[H])C([H])([H])C2([H])[H]


 29 32  0  0  0  0  0  0  0  0999 V2000
  155.9786  140.3007  182.8462 N   0  0  0  0  0  0  0  0  0  0  0  0
  156.6306  141.5237  183.2385 C   0  0  0  0  0  0  0  0  0  0  0  0
  156.0386  142.2188  184.0638 O   0  0  0  0  0  0  0  0  0  0  0  0
  157.8683  141.8466  182.6856 N   0  0  0  0  0  0  0  0  0  0  0  0
  156.4182  139.6978  182.1546 H   0  0  0  0  0  0  0  0  0  0  0  0
  158.2987  141.1712  181.9478 H   0  0  0  0  0  0  0  0  0  0  0  0
  158.6956  142.9566  182.9592 C   0  0  0  0  0  0  0  0  0  0  0  0
  158.5837  144.1346  182.2574 C   0  0  0  0  0  0  0  0  0  0  0  0
  159.3864  145.2306  182.5655 C   0  0  0  0  0  0  0  0  0  0  0  0
  160.3021  145.1442  183.5763 C   0  0  0  0  0  0  0  0  0  0  0  0
  160.4170  143.9694  184.2758 C   0  0  0  0  0  0  0  0  0  0  0  0
  161.2271  143.6317  185.2928 N   0  0  0  0  0  0  0  0  0  0  0  0
  160.9825  142.3799  185.6481 N   0  0  0  0  0  0  0  0  0  0  0  0
  160.0085  141.8881  184.8658 C   0  0  0  0  0  0  0  0  0  0  0  0
  159.6351  142.8873  183.9857 C   0  0  0  0  0  0  0  0  0  0  0  0
  161.9283  144.2372  185.7354 H   0  0  0  0  0  0  0  0  0  0  0  0
  151.1355  139.1808  181.2571 C   0  0  0  0  0  0  0  0  0  0  0  0
  151.9970  140.1303  180.7625 C   0  0  0  0  0  0  0  0  0  0  0  0
  153.1826  140.4791  181.3602 C   0  0  0  0  0  0  0  0  0  0  0  0
  153.5812  139.8661  182.5334 C   0  0  0  0  0  0  0  0  0  0  0  0
  154.7210  139.9461  183.4297 C   0  0  0  0  0  0  0  0  0  0  0  0
  154.8270  138.4613  183.9101 C   0  0  0  0  0  0  0  0  0  0  0  0
  153.3521  138.3109  184.3221 C   0  0  0  0  0  0  0  0  0  0  0  0
  152.7293  138.9016  183.0585 C   0  0  0  0  0  0  0  0  0  0  0  0
  151.5542  138.5781  182.4376 C   0  0  0  0  0  0  0  0  0  0  0  0
  149.7448  137.2759  180.6723 C   0  0  0  0  0  0  0  0  0  0  0  0
  149.8619  138.7696  180.6108 C   0  0  0  0  0  0  0  0  0  0  0  0
  148.6805  139.4184  181.2975 C   0  0  0  0  0  0  0  0  0  0  0  0
  149.9288  139.1387  179.1481 C   0  0  0  0  0  0  0  0  0  0  0  0
 26 27  1  0  0  0
 27 28  1  0  0  0
 27 29  1  0  0  0
 27 17  1  0  0  0
 17 18  2  0  0  0
 18 19  1  0  0  0
 19 20  2  0  0  0
 20 21  1  0  0  0
 21 22  1  0  0  0
 22 23  1  0  0  0
 23 24  1  0  0  0
 24 25  2  0  0  0
 21  1  1  0  0  0
  1  2  1  0  0  0
  2  3  2  0  0  0
  2  4  1  0  0  0
  4  7  1  0  0  0
  7  8  2  0  0  0
  8  9  1  0  0  0
  9 10  2  0  0  0
 10 11  1  0  0  0
 11 12  1  0  0  0
 12 13  1  0  0  0
 13 14  2  0  0  0
 14 15  1  0  0  0
 25 17  1  0  0  0
 15  7  1  0  0  0
 24 20  1  0  0  0
 15 11  2  0  0  0
  1  5  1  0  0  0
  4  6  1  0  0  0
 12 16  1  0  0  0
M  END
> <minimizedAffinity>
-9.51897

> <CNNscore>
0.3363764882

> <CNNaffinity>
6.2393159866

> <CNN_VS>
2.0987591743

> <CNNaffinity_variance>
0.0664706379

$$$$
[H]c1c([H])c(C(C([H])([H])[H])(C([H])([H])[H])C([H])([H])[H])c([H])c2c1C([H])(N([H])C(=O)N([H])c1c([H])c([H])c([H])c3c1c([H])nn3[H])C([H])([H])C2([H])[H]


 29 32  0  0  0  0  0  0  0  0999 V2000
  154.7856  140.2875  183.0145 N   0  0  0  0  0  0  0  0  0  0  0  0
  153.7075  139.3802  182.7157 C   0  0  0  0  0  0  0  0  0  0  0  0
  153.8933  138.1973  183.0002 O   0  0  0  0  0  0  0  0  0  0  0  0
  152.5372  139.8740  182.1426 N   0  0  0  0  0  0  0  0  0  0  0  0
  154.6892  141.2737  182.7842 H   0  0  0  0  0  0  0  0  0  0  0  0
  152.4811  140.9368  181.9123 H   0  0  0  0  0  0  0  0  0  0  0  0
  151.3531  139.1801  181.8147 C   0  0  0  0  0  0  0  0  0  0  0  0
  150.6734  138.4268  182.7439 C   0  0  0  0  0  0  0  0  0  0  0  0
  149.4875  137.7769  182.4096 C   0  0  0  0  0  0  0  0  0  0  0  0
  148.9845  137.8816  181.1431 C   0  0  0  0  0  0  0  0  0  0  0  0
  149.6622  138.6303  180.2143 C   0  0  0  0  0  0  0  0  0  0  0  0
  149.3863  138.8841  178.9243 N   0  0  0  0  0  0  0  0  0  0  0  0
  150.3330  139.6605  178.4204 N   0  0  0  0  0  0  0  0  0  0  0  0
  151.2367  139.9221  179.3782 C   0  0  0  0  0  0  0  0  0  0  0  0
  150.8252  139.2745  180.5288 C   0  0  0  0  0  0  0  0  0  0  0  0
  148.5742  138.5390  178.3994 H   0  0  0  0  0  0  0  0  0  0  0  0
  159.4198  142.1407  184.5393 C   0  0  0  0  0  0  0  0  0  0  0  0
  158.7020  142.4618  183.4124 C   0  0  0  0  0  0  0  0  0  0  0  0
  157.5782  141.7905  182.9990 C   0  0  0  0  0  0  0  0  0  0  0  0
  157.0968  140.7183  183.7268 C   0  0  0  0  0  0  0  0  0  0  0  0
  155.9802  139.7948  183.6296 C   0  0  0  0  0  0  0  0  0  0  0  0
  155.6642  139.5492  185.1416 C   0  0  0  0  0  0  0  0  0  0  0  0
  157.1028  139.1991  185.5605 C   0  0  0  0  0  0  0  0  0  0  0  0
  157.8030  140.3691  184.8718 C   0  0  0  0  0  0  0  0  0  0  0  0
  158.9200  141.0592  185.2553 C   0  0  0  0  0  0  0  0  0  0  0  0
  161.8465  142.0868  184.6545 C   0  0  0  0  0  0  0  0  0  0  0  0
  160.6218  142.8718  185.0184 C   0  0  0  0  0  0  0  0  0  0  0  0
  160.6837  144.2551  184.4092 C   0  0  0  0  0  0  0  0  0  0  0  0
  160.5759  142.9279  186.5267 C   0  0  0  0  0  0  0  0  0  0  0  0
 26 27  1  0  0  0
 27 28  1  0  0  0
 27 29  1  0  0  0
 27 17  1  0  0  0
 17 18  2  0  0  0
 18 19  1  0  0  0
 19 20  2  0  0  0
 20 21  1  0  0  0
 21 22  1  0  0  0
 22 23  1  0  0  0
 23 24  1  0  0  0
 24 25  2  0  0  0
 21  1  1  0  0  0
  1  2  1  0  0  0
  2  3  2  0  0  0
  2  4  1  0  0  0
  4  7  1  0  0  0
  7  8  2  0  0  0
  8  9  1  0  0  0
  9 10  2  0  0  0
 10 11  1  0  0  0
 11 12  1  0  0  0
 12 13  1  0  0  0
 13 14  2  0  0  0
 14 15  1  0  0  0
 25 17  1  0  0  0
 15  7  1  0  0  0
 24 20  1  0  0  0
 15 11  2  0  0  0
  1  5  1  0  0  0
  4  6  1  0  0  0
 12 16  1  0  0  0
M  END
> <minimizedAffinity>
-8.12699

> <CNNscore>
0.3276548982

> <CNNaffinity>
5.8419075012

> <CNN_VS>
1.9141296148

> <CNNaffinity_variance>
0.1021144167

$$$$
[H]c1c([H])c2c(c([H])c1Cl)OC([H])([H])C([H])([H])C2([H])N([H])C(=O)N([H])c1c([H])c([H])c([H])c2c1c([H])nn2[H]


 27 30  0  0  0  0  0  0  0  0999 V2000
  155.9953  140.4748  182.3833 N   0  0  0  0  0  0  0  0  0  0  0  0
  154.5579  140.4490  182.2548 C   0  0  0  0  0  0  0  0  0  0  0  0
  154.0356  141.5736  182.1058 O   0  0  0  0  0  0  0  0  0  0  0  0
  153.8850  139.2337  182.3033 N   0  0  0  0  0  0  0  0  0  0  0  0
  156.5005  139.5760  182.5104 H   0  0  0  0  0  0  0  0  0  0  0  0
  154.5102  138.3719  182.4379 H   0  0  0  0  0  0  0  0  0  0  0  0
  161.0879  142.5040  186.3739 Cl  0  0  0  0  0  0  0  0  0  0  0  0
  159.7897  142.2304  185.2073 C   0  0  0  0  0  0  0  0  0  0  0  0
  158.9767  141.1172  185.2725 C   0  0  0  0  0  0  0  0  0  0  0  0
  157.9589  140.8872  184.3711 C   0  0  0  0  0  0  0  0  0  0  0  0
  157.7669  141.8210  183.3754 C   0  0  0  0  0  0  0  0  0  0  0  0
  156.7091  141.7015  182.3375 C   0  0  0  0  0  0  0  0  0  0  0  0
  157.3687  141.9797  181.0038 C   0  0  0  0  0  0  0  0  0  0  0  0
  157.8321  143.4152  181.0092 C   0  0  0  0  0  0  0  0  0  0  0  0
  158.3134  143.8353  182.2620 O   0  0  0  0  0  0  0  0  0  0  0  0
  158.5803  142.9333  183.3114 C   0  0  0  0  0  0  0  0  0  0  0  0
  159.5900  143.1605  184.2065 C   0  0  0  0  0  0  0  0  0  0  0  0
  152.5070  138.9807  182.2007 C   0  0  0  0  0  0  0  0  0  0  0  0
  151.7356  138.4014  183.1953 C   0  0  0  0  0  0  0  0  0  0  0  0
  150.3792  138.1668  183.0599 C   0  0  0  0  0  0  0  0  0  0  0  0
  149.7404  138.5123  181.8997 C   0  0  0  0  0  0  0  0  0  0  0  0
  150.5003  139.0992  180.8811 C   0  0  0  0  0  0  0  0  0  0  0  0
  150.1519  139.5365  179.6501 N   0  0  0  0  0  0  0  0  0  0  0  0
  151.2248  140.0175  179.0473 N   0  0  0  0  0  0  0  0  0  0  0  0
  152.2875  139.9082  179.8584 C   0  0  0  0  0  0  0  0  0  0  0  0
  151.8369  139.3297  181.0163 C   0  0  0  0  0  0  0  0  0  0  0  0
  149.1621  139.4741  179.2899 H   0  0  0  0  0  0  0  0  0  0  0  0
  7  8  1  0  0  0
  8  9  2  0  0  0
  9 10  1  0  0  0
 10 11  2  0  0  0
 11 12  1  0  0  0
 12 13  1  0  0  0
 13 14  1  0  0  0
 14 15  1  0  0  0
 15 16  1  0  0  0
 16 17  2  0  0  0
 12  1  1  0  0  0
  1  2  1  0  0  0
  2  3  2  0  0  0
  2  4  1  0  0  0
  4 18  1  0  0  0
 18 19  2  0  0  0
 19 20  1  0  0  0
 20 21  2  0  0  0
 21 22  1  0  0  0
 22 23  1  0  0  0
 23 24  1  0  0  0
 24 25  2  0  0  0
 25 26  1  0  0  0
 17  8  1  0  0  0
 26 18  1  0  0  0
 16 11  1  0  0  0
 26 22  2  0  0  0
  1  5  1  0  0  0
  4  6  1  0  0  0
 23 27  1  0  0  0
M  END
> <minimizedAffinity>
-7.66131

> <CNNscore>
0.4776705503

> <CNNaffinity>
6.0339102745

> <CNN_VS>
2.8822212219

> <CNNaffinity_variance>
0.1719608605

$$$$
[H]c1c([H])c2c(c([H])c1Cl)OC([H])([H])C([H])([H])C2([H])N([H])C(=O)N([H])c1c([H])c([H])c([H])c2c1c([H])nn2[H]


 27 30  0  0  0  0  0  0  0  0999 V2000
  153.5577  140.2361  181.3651 N   0  0  0  0  0  0  0  0  0  0  0  0
  154.6524  140.7706  182.1391 C   0  0  0  0  0  0  0  0  0  0  0  0
  154.5519  140.5809  183.3694 O   0  0  0  0  0  0  0  0  0  0  0  0
  155.6937  141.4281  181.4944 N   0  0  0  0  0  0  0  0  0  0  0  0
  153.5718  140.3557  180.3332 H   0  0  0  0  0  0  0  0  0  0  0  0
  155.6012  141.4911  180.4272 H   0  0  0  0  0  0  0  0  0  0  0  0
  147.6974  138.2167  178.6160 Cl  0  0  0  0  0  0  0  0  0  0  0  0
  149.1207  138.6339  179.5759 C   0  0  0  0  0  0  0  0  0  0  0  0
  150.1479  139.3968  179.0590 C   0  0  0  0  0  0  0  0  0  0  0  0
  151.2659  139.7321  179.7931 C   0  0  0  0  0  0  0  0  0  0  0  0
  151.3358  139.2749  181.0916 C   0  0  0  0  0  0  0  0  0  0  0  0
  152.4805  139.5598  181.9966 C   0  0  0  0  0  0  0  0  0  0  0  0
  152.8712  138.2456  182.6380 C   0  0  0  0  0  0  0  0  0  0  0  0
  151.7192  137.7930  183.5002 C   0  0  0  0  0  0  0  0  0  0  0  0
  150.4627  138.0879  182.9421 O   0  0  0  0  0  0  0  0  0  0  0  0
  150.3083  138.5125  181.6072 C   0  0  0  0  0  0  0  0  0  0  0  0
  149.1993  138.1803  180.8778 C   0  0  0  0  0  0  0  0  0  0  0  0
  156.8435  142.0176  182.0455 C   0  0  0  0  0  0  0  0  0  0  0  0
  157.0639  143.3827  182.1350 C   0  0  0  0  0  0  0  0  0  0  0  0
  158.2096  143.9292  182.6846 C   0  0  0  0  0  0  0  0  0  0  0  0
  159.1903  143.1079  183.1716 C   0  0  0  0  0  0  0  0  0  0  0  0
  158.9889  141.7250  183.0914 C   0  0  0  0  0  0  0  0  0  0  0  0
  159.7646  140.6886  183.4815 N   0  0  0  0  0  0  0  0  0  0  0  0
  159.1439  139.5579  183.1946 N   0  0  0  0  0  0  0  0  0  0  0  0
  157.9626  139.8233  182.6173 C   0  0  0  0  0  0  0  0  0  0  0  0
  157.8592  141.1882  182.5495 C   0  0  0  0  0  0  0  0  0  0  0  0
  160.7057  140.8301  183.9370 H   0  0  0  0  0  0  0  0  0  0  0  0
  7  8  1  0  0  0
  8  9  2  0  0  0
  9 10  1  0  0  0
 10 11  2  0  0  0
 11 12  1  0  0  0
 12 13  1  0  0  0
 13 14  1  0  0  0
 14 15  1  0  0  0
 15 16  1  0  0  0
 16 17  2  0  0  0
 12  1  1  0  0  0
  1  2  1  0  0  0
  2  3  2  0  0  0
  2  4  1  0  0  0
  4 18  1  0  0  0
 18 19  2  0  0  0
 19 20  1  0  0  0
 20 21  2  0  0  0
 21 22  1  0  0  0
 22 23  1  0  0  0
 23 24  1  0  0  0
 24 25  2  0  0  0
 25 26  1  0  0  0
 17  8  1  0  0  0
 26 18  1  0  0  0
 16 11  1  0  0  0
 26 22  2  0  0  0
  1  5  1  0  0  0
  4  6  1  0  0  0
 23 27  1  0  0  0
M  END
> <minimizedAffinity>
-8.39976

> <CNNscore>
0.4123112261

> <CNNaffinity>
5.6720170975

> <CNN_VS>
2.3386363983

> <CNNaffinity_variance>
0.0455712304

$$$$
[H]c1c([H])c2c(c([H])c1Cl)OC([H])([H])C([H])([H])C2([H])N([H])C(=O)N([H])c1c([H])c([H])c([H])c2c1c([H])nn2[H]


 27 30  0  0  0  0  0  0  0  0999 V2000
  153.6494  138.6237  184.7167 N   0  0  0  0  0  0  0  0  0  0  0  0
  154.7346  138.2312  185.5836 C   0  0  0  0  0  0  0  0  0  0  0  0
  155.8611  138.6092  185.1993 O   0  0  0  0  0  0  0  0  0  0  0  0
  154.4656  137.4949  186.7316 N   0  0  0  0  0  0  0  0  0  0  0  0
  152.6818  138.3448  184.9718 H   0  0  0  0  0  0  0  0  0  0  0  0
  153.4299  137.2649  186.8929 H   0  0  0  0  0  0  0  0  0  0  0  0
  149.8264  139.0100  179.1298 Cl  0  0  0  0  0  0  0  0  0  0  0  0
  151.0004  139.0865  180.4478 C   0  0  0  0  0  0  0  0  0  0  0  0
  150.8881  138.2889  181.5683 C   0  0  0  0  0  0  0  0  0  0  0  0
  151.7945  138.3349  182.6064 C   0  0  0  0  0  0  0  0  0  0  0  0
  152.8447  139.2209  182.4960 C   0  0  0  0  0  0  0  0  0  0  0  0
  153.8945  139.3761  183.5375 C   0  0  0  0  0  0  0  0  0  0  0  0
  154.0579  140.8614  183.7787 C   0  0  0  0  0  0  0  0  0  0  0  0
  154.5902  141.4787  182.5094 C   0  0  0  0  0  0  0  0  0  0  0  0
  154.0594  140.8936  181.3461 O   0  0  0  0  0  0  0  0  0  0  0  0
  152.9558  140.0176  181.3754 C   0  0  0  0  0  0  0  0  0  0  0  0
  152.0558  139.9711  180.3459 C   0  0  0  0  0  0  0  0  0  0  0  0
  155.3585  137.0139  187.7035 C   0  0  0  0  0  0  0  0  0  0  0  0
  156.2549  135.9759  187.5057 C   0  0  0  0  0  0  0  0  0  0  0  0
  157.1209  135.5276  188.4866 C   0  0  0  0  0  0  0  0  0  0  0  0
  157.1154  136.1173  189.7218 C   0  0  0  0  0  0  0  0  0  0  0  0
  156.2177  137.1681  189.9440 C   0  0  0  0  0  0  0  0  0  0  0  0
  155.9892  137.9268  191.0396 N   0  0  0  0  0  0  0  0  0  0  0  0
  155.0367  138.8001  190.7642 N   0  0  0  0  0  0  0  0  0  0  0  0
  154.6240  138.6364  189.4985 C   0  0  0  0  0  0  0  0  0  0  0  0
  155.3651  137.6087  188.9762 C   0  0  0  0  0  0  0  0  0  0  0  0
  156.5226  137.7906  191.9397 H   0  0  0  0  0  0  0  0  0  0  0  0
  7  8  1  0  0  0
  8  9  2  0  0  0
  9 10  1  0  0  0
 10 11  2  0  0  0
 11 12  1  0  0  0
 12 13  1  0  0  0
 13 14  1  0  0  0
 14 15  1  0  0  0
 15 16  1  0  0  0
 16 17  2  0  0  0
 12  1  1  0  0  0
  1  2  1  0  0  0
  2  3  2  0  0  0
  2  4  1  0  0  0
  4 18  1  0  0  0
 18 19  2  0  0  0
 19 20  1  0  0  0
 20 21  2  0  0  0
 21 22  1  0  0  0
 22 23  1  0  0  0
 23 24  1  0  0  0
 24 25  2  0  0  0
 25 26  1  0  0  0
 17  8  1  0  0  0
 26 18  1  0  0  0
 16 11  1  0  0  0
 26 22  2  0  0  0
  1  5  1  0  0  0
  4  6  1  0  0  0
 23 27  1  0  0  0
M  END
> <minimizedAffinity>
-7.33841

> <CNNscore>
0.3897091448

> <CNNaffinity>
5.1031298637

> <CNN_VS>
1.9887363911

> <CNNaffinity_variance>
0.1111842394

$$$$
[H]c1c([H])c2c(c([H])c1Cl)OC([H])([H])C([H])([H])C2([H])N([H])C(=O)N([H])c1c([H])c([H])c([H])c2c1c([H])nn2[H]


 27 30  0  0  0  0  0  0  0  0999 V2000
  157.5891  141.9425  182.1816 N   0  0  0  0  0  0  0  0  0  0  0  0
  156.4664  141.4205  182.9234 C   0  0  0  0  0  0  0  0  0  0  0  0
  156.1352  142.1131  183.9084 O   0  0  0  0  0  0  0  0  0  0  0  0
  155.8593  140.2398  182.5115 N   0  0  0  0  0  0  0  0  0  0  0  0
  157.9222  141.4195  181.3481 H   0  0  0  0  0  0  0  0  0  0  0  0
  156.2885  139.7876  181.6380 H   0  0  0  0  0  0  0  0  0  0  0  0
  162.7322  142.7080  186.5336 Cl  0  0  0  0  0  0  0  0  0  0  0  0
  161.4004  142.7938  185.3759 C   0  0  0  0  0  0  0  0  0  0  0  0
  160.6562  141.6812  185.0405 C   0  0  0  0  0  0  0  0  0  0  0  0
  159.6136  141.7292  184.1394 C   0  0  0  0  0  0  0  0  0  0  0  0
  159.3238  142.9483  183.5652 C   0  0  0  0  0  0  0  0  0  0  0  0
  158.2288  143.1464  182.5791 C   0  0  0  0  0  0  0  0  0  0  0  0
  158.8106  143.9419  181.4303 C   0  0  0  0  0  0  0  0  0  0  0  0
  159.1909  145.3028  181.9580 C   0  0  0  0  0  0  0  0  0  0  0  0
  159.7034  145.2641  183.2669 O   0  0  0  0  0  0  0  0  0  0  0  0
  160.0686  144.0598  183.9013 C   0  0  0  0  0  0  0  0  0  0  0  0
  161.1029  144.0110  184.7957 C   0  0  0  0  0  0  0  0  0  0  0  0
  154.7675  139.5618  183.0786 C   0  0  0  0  0  0  0  0  0  0  0  0
  154.8196  138.8251  184.2510 C   0  0  0  0  0  0  0  0  0  0  0  0
  153.7231  138.1695  184.7813 C   0  0  0  0  0  0  0  0  0  0  0  0
  152.5156  138.2328  184.1400 C   0  0  0  0  0  0  0  0  0  0  0  0
  152.4398  138.9716  182.9535 C   0  0  0  0  0  0  0  0  0  0  0  0
  151.4040  139.2091  182.1176 N   0  0  0  0  0  0  0  0  0  0  0  0
  151.8237  139.9688  181.1213 N   0  0  0  0  0  0  0  0  0  0  0  0
  153.1272  140.2433  181.2787 C   0  0  0  0  0  0  0  0  0  0  0  0
  153.5213  139.6171  182.4324 C   0  0  0  0  0  0  0  0  0  0  0  0
  150.4392  138.8195  182.2921 H   0  0  0  0  0  0  0  0  0  0  0  0
  7  8  1  0  0  0
  8  9  2  0  0  0
  9 10  1  0  0  0
 10 11  2  0  0  0
 11 12  1  0  0  0
 12 13  1  0  0  0
 13 14  1  0  0  0
 14 15  1  0  0  0
 15 16  1  0  0  0
 16 17  2  0  0  0
 12  1  1  0  0  0
  1  2  1  0  0  0
  2  3  2  0  0  0
  2  4  1  0  0  0
  4 18  1  0  0  0
 18 19  2  0  0  0
 19 20  1  0  0  0
 20 21  2  0  0  0
 21 22  1  0  0  0
 22 23  1  0  0  0
 23 24  1  0  0  0
 24 25  2  0  0  0
 25 26  1  0  0  0
 17  8  1  0  0  0
 26 18  1  0  0  0
 16 11  1  0  0  0
 26 22  2  0  0  0
  1  5  1  0  0  0
  4  6  1  0  0  0
 23 27  1  0  0  0
M  END
> <minimizedAffinity>
-8.11089

> <CNNscore>
0.3414410055

> <CNNaffinity>
6.2013945580

> <CNN_VS>
2.1174104214

> <CNNaffinity_variance>
0.1957704723

$$$$
[H]c1c([H])c2c(c([H])c1Cl)OC([H])([H])C([H])([H])C2([H])N([H])C(=O)N([H])c1c([H])c([H])c([H])c2c1c([H])nn2[H]


 27 30  0  0  0  0  0  0  0  0999 V2000
  156.6038  140.7854  183.3264 N   0  0  0  0  0  0  0  0  0  0  0  0
  155.3385  140.6728  182.6410 C   0  0  0  0  0  0  0  0  0  0  0  0
  155.1685  141.5159  181.7354 O   0  0  0  0  0  0  0  0  0  0  0  0
  154.4389  139.6821  183.0167 N   0  0  0  0  0  0  0  0  0  0  0  0
  156.8165  140.1173  184.0928 H   0  0  0  0  0  0  0  0  0  0  0  0
  154.7662  139.0505  183.8201 H   0  0  0  0  0  0  0  0  0  0  0  0
  161.7650  143.2084  186.9964 Cl  0  0  0  0  0  0  0  0  0  0  0  0
  160.5044  142.7645  185.8408 C   0  0  0  0  0  0  0  0  0  0  0  0
  159.4897  141.8901  186.1724 C   0  0  0  0  0  0  0  0  0  0  0  0
  158.4978  141.5324  185.2839 C   0  0  0  0  0  0  0  0  0  0  0  0
  158.5445  142.0837  184.0214 C   0  0  0  0  0  0  0  0  0  0  0  0
  157.5422  141.7877  182.9639 C   0  0  0  0  0  0  0  0  0  0  0  0
  158.3154  141.4779  181.7001 C   0  0  0  0  0  0  0  0  0  0  0  0
  159.0459  142.7315  181.2877 C   0  0  0  0  0  0  0  0  0  0  0  0
  159.5296  143.4734  182.3800 O   0  0  0  0  0  0  0  0  0  0  0  0
  159.5594  142.9577  183.6912 C   0  0  0  0  0  0  0  0  0  0  0  0
  160.5432  143.3120  184.5737 C   0  0  0  0  0  0  0  0  0  0  0  0
  153.1677  139.3961  182.4917 C   0  0  0  0  0  0  0  0  0  0  0  0
  152.5543  140.1131  181.4769 C   0  0  0  0  0  0  0  0  0  0  0  0
  151.2998  139.8029  180.9836 C   0  0  0  0  0  0  0  0  0  0  0  0
  150.6065  138.7429  181.5027 C   0  0  0  0  0  0  0  0  0  0  0  0
  151.2071  138.0043  182.5289 C   0  0  0  0  0  0  0  0  0  0  0  0
  150.7731  136.9276  183.2219 N   0  0  0  0  0  0  0  0  0  0  0  0
  151.6992  136.5811  184.0984 N   0  0  0  0  0  0  0  0  0  0  0  0
  152.7479  137.4117  184.0018 C   0  0  0  0  0  0  0  0  0  0  0  0
  152.4435  138.3114  183.0137 C   0  0  0  0  0  0  0  0  0  0  0  0
  149.8333  136.4834  183.0411 H   0  0  0  0  0  0  0  0  0  0  0  0
  7  8  1  0  0  0
  8  9  2  0  0  0
  9 10  1  0  0  0
 10 11  2  0  0  0
 11 12  1  0  0  0
 12 13  1  0  0  0
 13 14  1  0  0  0
 14 15  1  0  0  0
 15 16  1  0  0  0
 16 17  2  0  0  0
 12  1  1  0  0  0
  1  2  1  0  0  0
  2  3  2  0  0  0
  2  4  1  0  0  0
  4 18  1  0  0  0
 18 19  2  0  0  0
 19 20  1  0  0  0
 20 21  2  0  0  0
 21 22  1  0  0  0
 22 23  1  0  0  0
 23 24  1  0  0  0
 24 25  2  0  0  0
 25 26  1  0  0  0
 17  8  1  0  0  0
 26 18  1  0  0  0
 16 11  1  0  0  0
 26 22  2  0  0  0
  1  5  1  0  0  0
  4  6  1  0  0  0
 23 27  1  0  0  0
M  END
> <minimizedAffinity>
-9.02566

> <CNNscore>
0.3362734020

> <CNNaffinity>
6.0149292946

> <CNN_VS>
2.0226607323

> <CNNaffinity_variance>
0.1831785440

$$$$
[H]c1c([H])c2c(c([H])c1Cl)OC([H])([H])C([H])([H])C2([H])N([H])C(=O)N([H])c1c([H])c([H])c([H])c2c1c([H])nn2[H]


 27 30  0  0  0  0  0  0  0  0999 V2000
  155.4622  140.1493  182.5539 N   0  0  0  0  0  0  0  0  0  0  0  0
  156.2229  141.2634  183.0670 C   0  0  0  0  0  0  0  0  0  0  0  0
  155.8685  141.6479  184.2012 O   0  0  0  0  0  0  0  0  0  0  0  0
  157.2484  141.8065  182.3018 N   0  0  0  0  0  0  0  0  0  0  0  0
  155.6998  139.7740  181.6148 H   0  0  0  0  0  0  0  0  0  0  0  0
  157.4031  141.3375  181.3490 H   0  0  0  0  0  0  0  0  0  0  0  0
  149.3927  138.0531  180.3755 Cl  0  0  0  0  0  0  0  0  0  0  0  0
  150.8830  138.5186  181.2023 C   0  0  0  0  0  0  0  0  0  0  0  0
  151.8956  139.1927  180.5506 C   0  0  0  0  0  0  0  0  0  0  0  0
  153.0652  139.5639  181.1794 C   0  0  0  0  0  0  0  0  0  0  0  0
  153.2036  139.2370  182.5114 C   0  0  0  0  0  0  0  0  0  0  0  0
  154.4091  139.5743  183.3135 C   0  0  0  0  0  0  0  0  0  0  0  0
  154.8047  138.3191  184.0612 C   0  0  0  0  0  0  0  0  0  0  0  0
  153.6971  137.9922  185.0315 C   0  0  0  0  0  0  0  0  0  0  0  0
  152.4164  138.2697  184.5215 O   0  0  0  0  0  0  0  0  0  0  0  0
  152.1907  138.5632  183.1617 C   0  0  0  0  0  0  0  0  0  0  0  0
  151.0304  138.1953  182.5366 C   0  0  0  0  0  0  0  0  0  0  0  0
  158.1046  142.8785  182.6031 C   0  0  0  0  0  0  0  0  0  0  0  0
  158.0300  144.1344  182.0223 C   0  0  0  0  0  0  0  0  0  0  0  0
  158.8909  145.1683  182.3435 C   0  0  0  0  0  0  0  0  0  0  0  0
  159.8738  144.9718  183.2756 C   0  0  0  0  0  0  0  0  0  0  0  0
  159.9678  143.7105  183.8753 C   0  0  0  0  0  0  0  0  0  0  0  0
  160.8190  143.2305  184.8097 N   0  0  0  0  0  0  0  0  0  0  0  0
  160.5117  141.9703  185.0614 N   0  0  0  0  0  0  0  0  0  0  0  0
  159.4658  141.5997  184.3078 C   0  0  0  0  0  0  0  0  0  0  0  0
  159.1185  142.6928  183.5576 C   0  0  0  0  0  0  0  0  0  0  0  0
  161.5848  143.8220  185.2303 H   0  0  0  0  0  0  0  0  0  0  0  0
  7  8  1  0  0  0
  8  9  2  0  0  0
  9 10  1  0  0  0
 10 11  2  0  0  0
 11 12  1  0  0  0
 12 13  1  0  0  0
 13 14  1  0  0  0
 14 15  1  0  0  0
 15 16  1  0  0  0
 16 17  2  0  0  0
 12  1  1  0  0  0
  1  2  1  0  0  0
  2  3  2  0  0  0
  2  4  1  0  0  0
  4 18  1  0  0  0
 18 19  2  0  0  0
 19 20  1  0  0  0
 20 21  2  0  0  0
 21 22  1  0  0  0
 22 23  1  0  0  0
 23 24  1  0  0  0
 24 25  2  0  0  0
 25 26  1  0  0  0
 17  8  1  0  0  0
 26 18  1  0  0  0
 16 11  1  0  0  0
 26 22  2  0  0  0
  1  5  1  0  0  0
  4  6  1  0  0  0
 23 27  1  0  0  0
M  END
> <minimizedAffinity>
-6.94040

> <CNNscore>
0.3295632899

> <CNNaffinity>
5.9944829941

> <CNN_VS>
1.9755614996

> <CNNaffinity_variance>
0.2073767483

$$$$
[H]c1c([H])c2c(c([H])c1Cl)OC([H])([H])C([H])([H])C2([H])N([H])C(=O)N([H])c1c([H])c([H])c([H])c2c1c([H])nn2[H]


 27 30  0  0  0  0  0  0  0  0999 V2000
  157.6346  141.8953  182.2106 N   0  0  0  0  0  0  0  0  0  0  0  0
  156.4605  141.4326  182.9109 C   0  0  0  0  0  0  0  0  0  0  0  0
  156.0821  142.1860  183.8322 O   0  0  0  0  0  0  0  0  0  0  0  0
  155.8596  140.2380  182.5313 N   0  0  0  0  0  0  0  0  0  0  0  0
  158.0086  141.3201  181.4306 H   0  0  0  0  0  0  0  0  0  0  0  0
  156.3332  139.7298  181.7133 H   0  0  0  0  0  0  0  0  0  0  0  0
  162.7063  142.8078  186.6177 Cl  0  0  0  0  0  0  0  0  0  0  0  0
  161.3939  142.8543  185.4359 C   0  0  0  0  0  0  0  0  0  0  0  0
  160.6538  141.7312  185.1271 C   0  0  0  0  0  0  0  0  0  0  0  0
  159.6263  141.7487  184.2078 C   0  0  0  0  0  0  0  0  0  0  0  0
  159.3476  142.9473  183.5869 C   0  0  0  0  0  0  0  0  0  0  0  0
  158.2693  143.1118  182.5765 C   0  0  0  0  0  0  0  0  0  0  0  0
  158.8709  143.8665  181.4105 C   0  0  0  0  0  0  0  0  0  0  0  0
  159.2444  145.2447  181.8968 C   0  0  0  0  0  0  0  0  0  0  0  0
  159.7351  145.2510  183.2146 O   0  0  0  0  0  0  0  0  0  0  0  0
  160.0882  144.0692  183.8964 C   0  0  0  0  0  0  0  0  0  0  0  0
  161.1076  144.0508  184.8089 C   0  0  0  0  0  0  0  0  0  0  0  0
  154.7243  139.6089  183.0685 C   0  0  0  0  0  0  0  0  0  0  0  0
  153.4995  139.5117  182.4278 C   0  0  0  0  0  0  0  0  0  0  0  0
  152.4012  138.8840  182.9874 C   0  0  0  0  0  0  0  0  0  0  0  0
  152.4980  138.3229  184.2321 C   0  0  0  0  0  0  0  0  0  0  0  0
  153.7263  138.4093  184.8980 C   0  0  0  0  0  0  0  0  0  0  0  0
  154.1139  137.9582  186.1122 N   0  0  0  0  0  0  0  0  0  0  0  0
  155.3803  138.2826  186.3047 N   0  0  0  0  0  0  0  0  0  0  0  0
  155.8460  138.9451  185.2354 C   0  0  0  0  0  0  0  0  0  0  0  0
  154.8075  139.0281  184.3450 C   0  0  0  0  0  0  0  0  0  0  0  0
  153.4590  137.4369  186.7544 H   0  0  0  0  0  0  0  0  0  0  0  0
  7  8  1  0  0  0
  8  9  2  0  0  0
  9 10  1  0  0  0
 10 11  2  0  0  0
 11 12  1  0  0  0
 12 13  1  0  0  0
 13 14  1  0  0  0
 14 15  1  0  0  0
 15 16  1  0  0  0
 16 17  2  0  0  0
 12  1  1  0  0  0
  1  2  1  0  0  0
  2  3  2  0  0  0
  2  4  1  0  0  0
  4 18  1  0  0  0
 18 19  2  0  0  0
 19 20  1  0  0  0
 20 21  2  0  0  0
 21 22  1  0  0  0
 22 23  1  0  0  0
 23 24  1  0  0  0
 24 25  2  0  0  0
 25 26  1  0  0  0
 17  8  1  0  0  0
 26 18  1  0  0  0
 16 11  1  0  0  0
 26 22  2  0  0  0
  1  5  1  0  0  0
  4  6  1  0  0  0
 23 27  1  0  0  0
M  END
> <minimizedAffinity>
-8.08629

> <CNNscore>
0.3127499819

> <CNNaffinity>
6.1693620682

> <CNN_VS>
1.9294679165

> <CNNaffinity_variance>
0.1301620305

$$$$
[H]c1c([H])c2c(c([H])c1Cl)OC([H])([H])C([H])([H])C2([H])N([H])C(=O)N([H])c1c([H])c([H])c([H])c2c1c([H])nn2[H]


 27 30  0  0  0  0  0  0  0  0999 V2000
  156.9402  140.1501  182.7679 N   0  0  0  0  0  0  0  0  0  0  0  0
  157.3988  141.4481  183.2016 C   0  0  0  0  0  0  0  0  0  0  0  0
  156.5109  142.1613  183.7140 O   0  0  0  0  0  0  0  0  0  0  0  0
  158.7324  141.7994  183.0281 N   0  0  0  0  0  0  0  0  0  0  0  0
  157.6232  139.5004  182.3314 H   0  0  0  0  0  0  0  0  0  0  0  0
  159.3448  141.0488  182.5663 H   0  0  0  0  0  0  0  0  0  0  0  0
  153.9722  137.5358  188.2756 Cl  0  0  0  0  0  0  0  0  0  0  0  0
  154.4879  138.1915  186.7182 C   0  0  0  0  0  0  0  0  0  0  0  0
  155.8124  138.4710  186.4500 C   0  0  0  0  0  0  0  0  0  0  0  0
  156.2331  138.9829  185.2408 C   0  0  0  0  0  0  0  0  0  0  0  0
  155.2734  139.2154  184.2791 C   0  0  0  0  0  0  0  0  0  0  0  0
  155.5835  139.7641  182.9325 C   0  0  0  0  0  0  0  0  0  0  0  0
  154.5916  140.8775  182.6725 C   0  0  0  0  0  0  0  0  0  0  0  0
  153.2163  140.2621  182.6006 C   0  0  0  0  0  0  0  0  0  0  0  0
  153.0368  139.2037  183.5089 O   0  0  0  0  0  0  0  0  0  0  0  0
  153.9498  138.9356  184.5485 C   0  0  0  0  0  0  0  0  0  0  0  0
  153.5333  138.4277  185.7488 C   0  0  0  0  0  0  0  0  0  0  0  0
  159.3843  142.9951  183.3725 C   0  0  0  0  0  0  0  0  0  0  0  0
  159.2463  144.1931  182.6901 C   0  0  0  0  0  0  0  0  0  0  0  0
  159.9044  145.3528  183.0577 C   0  0  0  0  0  0  0  0  0  0  0  0
  160.7386  145.3481  184.1429 C   0  0  0  0  0  0  0  0  0  0  0  0
  160.8932  144.1484  184.8474 C   0  0  0  0  0  0  0  0  0  0  0  0
  161.6342  143.8453  185.9369 N   0  0  0  0  0  0  0  0  0  0  0  0
  161.4529  142.5712  186.2367 N   0  0  0  0  0  0  0  0  0  0  0  0
  160.6002  142.0168  185.3622 C   0  0  0  0  0  0  0  0  0  0  0  0
  160.2438  143.0065  184.4837 C   0  0  0  0  0  0  0  0  0  0  0  0
  162.2394  144.5601  186.4227 H   0  0  0  0  0  0  0  0  0  0  0  0
  7  8  1  0  0  0
  8  9  2  0  0  0
  9 10  1  0  0  0
 10 11  2  0  0  0
 11 12  1  0  0  0
 12 13  1  0  0  0
 13 14  1  0  0  0
 14 15  1  0  0  0
 15 16  1  0  0  0
 16 17  2  0  0  0
 12  1  1  0  0  0
  1  2  1  0  0  0
  2  3  2  0  0  0
  2  4  1  0  0  0
  4 18  1  0  0  0
 18 19  2  0  0  0
 19 20  1  0  0  0
 20 21  2  0  0  0
 21 22  1  0  0  0
 22 23  1  0  0  0
 23 24  1  0  0  0
 24 25  2  0  0  0
 25 26  1  0  0  0
 17  8  1  0  0  0
 26 18  1  0  0  0
 16 11  1  0  0  0
 26 22  2  0  0  0
  1  5  1  0  0  0
  4  6  1  0  0  0
 23 27  1  0  0  0
M  END
> <minimizedAffinity>
-7.97548

> <CNNscore>
0.2847335041

> <CNNaffinity>
6.1228685379

> <CNN_VS>
1.7433857918

> <CNNaffinity_variance>
0.1771918237

$$$$
[H]c1c([H])c2c(c([H])c1Cl)OC([H])([H])C([H])([H])C2([H])N([H])C(=O)N([H])c1c([H])c([H])c([H])c2c1c([H])nn2[H]


 27 30  0  0  0  0  0  0  0  0999 V2000
  153.3014  140.8159  182.4516 N   0  0  0  0  0  0  0  0  0  0  0  0
  152.4792  139.9483  181.6426 C   0  0  0  0  0  0  0  0  0  0  0  0
  153.0131  138.8565  181.3552 O   0  0  0  0  0  0  0  0  0  0  0  0
  151.2107  140.3660  181.2571 N   0  0  0  0  0  0  0  0  0  0  0  0
  152.9238  141.7426  182.7307 H   0  0  0  0  0  0  0  0  0  0  0  0
  150.9273  141.3412  181.6040 H   0  0  0  0  0  0  0  0  0  0  0  0
  158.9958  144.4971  182.4879 Cl  0  0  0  0  0  0  0  0  0  0  0  0
  157.6765  143.3254  182.5775 C   0  0  0  0  0  0  0  0  0  0  0  0
  156.4192  143.6074  182.0834 C   0  0  0  0  0  0  0  0  0  0  0  0
  155.3779  142.7057  182.1445 C   0  0  0  0  0  0  0  0  0  0  0  0
  155.6287  141.4818  182.7268 C   0  0  0  0  0  0  0  0  0  0  0  0
  154.6011  140.4155  182.8602 C   0  0  0  0  0  0  0  0  0  0  0  0
  154.6700  139.9148  184.2870 C   0  0  0  0  0  0  0  0  0  0  0  0
  156.0177  139.2664  184.4834 C   0  0  0  0  0  0  0  0  0  0  0  0
  157.0532  139.9268  183.7985 O   0  0  0  0  0  0  0  0  0  0  0  0
  156.8859  141.2011  183.2203 C   0  0  0  0  0  0  0  0  0  0  0  0
  157.9185  142.0967  183.1591 C   0  0  0  0  0  0  0  0  0  0  0  0
  150.2549  139.6904  180.4803 C   0  0  0  0  0  0  0  0  0  0  0  0
  150.3506  139.4878  179.1129 C   0  0  0  0  0  0  0  0  0  0  0  0
  149.3891  138.8170  178.3789 C   0  0  0  0  0  0  0  0  0  0  0  0
  148.2788  138.3183  179.0050 C   0  0  0  0  0  0  0  0  0  0  0  0
  148.1613  138.5114  180.3864 C   0  0  0  0  0  0  0  0  0  0  0  0
  147.1969  138.1396  181.2581 N   0  0  0  0  0  0  0  0  0  0  0  0
  147.5319  138.5516  182.4681 N   0  0  0  0  0  0  0  0  0  0  0  0
  148.7080  139.1947  182.4183 C   0  0  0  0  0  0  0  0  0  0  0  0
  149.1098  139.1727  181.1082 C   0  0  0  0  0  0  0  0  0  0  0  0
  146.3387  137.6065  180.9542 H   0  0  0  0  0  0  0  0  0  0  0  0
  7  8  1  0  0  0
  8  9  2  0  0  0
  9 10  1  0  0  0
 10 11  2  0  0  0
 11 12  1  0  0  0
 12 13  1  0  0  0
 13 14  1  0  0  0
 14 15  1  0  0  0
 15 16  1  0  0  0
 16 17  2  0  0  0
 12  1  1  0  0  0
  1  2  1  0  0  0
  2  3  2  0  0  0
  2  4  1  0  0  0
  4 18  1  0  0  0
 18 19  2  0  0  0
 19 20  1  0  0  0
 20 21  2  0  0  0
 21 22  1  0  0  0
 22 23  1  0  0  0
 23 24  1  0  0  0
 24 25  2  0  0  0
 25 26  1  0  0  0
 17  8  1  0  0  0
 26 18  1  0  0  0
 16 11  1  0  0  0
 26 22  2  0  0  0
  1  5  1  0  0  0
  4  6  1  0  0  0
 23 27  1  0  0  0
M  END
> <minimizedAffinity>
-7.71331

> <CNNscore>
0.2843656540

> <CNNaffinity>
5.4652709961

> <CNN_VS>
1.5541353226

> <CNNaffinity_variance>
0.0462312028

$$$$
