[H]c1nc(N([H])c2c([H])c([H])c(OC([H])([H])c3nc([H])c([H])c([H])c3[H])c(Cl)c2[H])c2c([H])c(OC([H])([H])[H])c(OC([H])([H])[H])c([H])c2n1


 31 34  0  0  0  0  0  0  0  0999 V2000
  155.1213  138.2474  185.1447 N   0  0  0  0  0  0  0  0  0  0  0  0
  155.9873  138.7814  184.8067 H   0  0  0  0  0  0  0  0  0  0  0  0
  152.1750  139.7361  181.3143 C   0  0  0  0  0  0  0  0  0  0  0  0
  152.0288  138.3928  181.4978 C   0  0  0  0  0  0  0  0  0  0  0  0
  152.7046  137.6710  182.4614 C   0  0  0  0  0  0  0  0  0  0  0  0
  152.5309  136.3440  182.6068 N   0  0  0  0  0  0  0  0  0  0  0  0
  153.1837  135.6338  183.5386 C   0  0  0  0  0  0  0  0  0  0  0  0
  154.0296  136.2770  184.3404 N   0  0  0  0  0  0  0  0  0  0  0  0
  154.2511  137.6016  184.2506 C   0  0  0  0  0  0  0  0  0  0  0  0
  153.5781  138.3573  183.2835 C   0  0  0  0  0  0  0  0  0  0  0  0
  153.7488  139.7076  183.1261 C   0  0  0  0  0  0  0  0  0  0  0  0
  153.0414  140.4090  182.1316 C   0  0  0  0  0  0  0  0  0  0  0  0
  150.7775  139.8990  179.2878 C   0  0  0  0  0  0  0  0  0  0  0  0
  151.4989  140.4579  180.3505 O   0  0  0  0  0  0  0  0  0  0  0  0
  153.2691  141.7752  182.0354 O   0  0  0  0  0  0  0  0  0  0  0  0
  154.4544  142.3834  182.4916 C   0  0  0  0  0  0  0  0  0  0  0  0
  154.9004  138.2333  186.5441 C   0  0  0  0  0  0  0  0  0  0  0  0
  153.6655  138.4457  187.0724 C   0  0  0  0  0  0  0  0  0  0  0  0
  153.5065  138.4523  188.4730 C   0  0  0  0  0  0  0  0  0  0  0  0
  154.5443  138.2526  189.3378 C   0  0  0  0  0  0  0  0  0  0  0  0
  155.7906  138.0373  188.7891 C   0  0  0  0  0  0  0  0  0  0  0  0
  157.1582  137.7740  189.8790 Cl  0  0  0  0  0  0  0  0  0  0  0  0
  155.9743  138.0261  187.4246 C   0  0  0  0  0  0  0  0  0  0  0  0
  154.3543  138.2653  190.7067 O   0  0  0  0  0  0  0  0  0  0  0  0
  154.2068  137.0608  191.3923 C   0  0  0  0  0  0  0  0  0  0  0  0
  152.8123  136.6615  191.6052 C   0  0  0  0  0  0  0  0  0  0  0  0
  152.2409  136.9769  192.8406 C   0  0  0  0  0  0  0  0  0  0  0  0
  150.9548  136.6634  193.1680 C   0  0  0  0  0  0  0  0  0  0  0  0
  150.1944  136.0011  192.2186 C   0  0  0  0  0  0  0  0  0  0  0  0
  150.7939  135.7062  191.0089 C   0  0  0  0  0  0  0  0  0  0  0  0
  152.0519  136.0221  190.7109 N   0  0  0  0  0  0  0  0  0  0  0  0
 13 14  1  0  0  0
 14  3  1  0  0  0
  3  4  2  0  0  0
  4  5  1  0  0  0
  5  6  2  0  0  0
  6  7  1  0  0  0
  7  8  2  0  0  0
  8  9  1  0  0  0
  9  1  1  0  0  0
  1 17  1  0  0  0
 17 18  2  0  0  0
 18 19  1  0  0  0
 19 20  2  0  0  0
 20 24  1  0  0  0
 24 25  1  0  0  0
 25 26  1  0  0  0
 26 27  2  0  0  0
 27 28  1  0  0  0
 28 29  2  0  0  0
 29 30  1  0  0  0
 30 31  2  0  0  0
 20 21  1  0  0  0
 21 22  1  0  0  0
 21 23  2  0  0  0
  9 10  2  0  0  0
 10 11  1  0  0  0
 11 12  2  0  0  0
 12 15  1  0  0  0
 15 16  1  0  0  0
 12  3  1  0  0  0
 10  5  1  0  0  0
 23 17  1  0  0  0
 31 26  1  0  0  0
  1  2  1  0  0  0
M  END
> <minimizedAffinity>
-7.24310

> <CNNscore>
0.5104458928

> <CNNaffinity>
5.9842920303

> <CNN_VS>
3.0546572208

> <CNNaffinity_variance>
0.5003842115

$$$$
[H]c1nc(N([H])c2c([H])c([H])c(OC([H])([H])c3nc([H])c([H])c([H])c3[H])c(Cl)c2[H])c2c([H])c(OC([H])([H])[H])c(OC([H])([H])[H])c([H])c2n1


 31 34  0  0  0  0  0  0  0  0999 V2000
  154.6438  140.5155  182.4401 N   0  0  0  0  0  0  0  0  0  0  0  0
  154.9456  141.3077  181.7837 H   0  0  0  0  0  0  0  0  0  0  0  0
  159.1607  141.8484  184.2810 C   0  0  0  0  0  0  0  0  0  0  0  0
  158.6257  140.8711  185.0674 C   0  0  0  0  0  0  0  0  0  0  0  0
  157.3917  140.2941  184.8427 C   0  0  0  0  0  0  0  0  0  0  0  0
  156.9007  139.3320  185.6463 N   0  0  0  0  0  0  0  0  0  0  0  0
  155.7027  138.7664  185.4374 C   0  0  0  0  0  0  0  0  0  0  0  0
  154.9854  139.1808  184.3952 N   0  0  0  0  0  0  0  0  0  0  0  0
  155.4151  140.1377  183.5518 C   0  0  0  0  0  0  0  0  0  0  0  0
  156.6629  140.7383  183.7559 C   0  0  0  0  0  0  0  0  0  0  0  0
  157.1710  141.7191  182.9452 C   0  0  0  0  0  0  0  0  0  0  0  0
  158.4338  142.2833  183.2070 C   0  0  0  0  0  0  0  0  0  0  0  0
  161.6274  141.8074  184.2575 C   0  0  0  0  0  0  0  0  0  0  0  0
  160.3951  142.4254  184.5059 O   0  0  0  0  0  0  0  0  0  0  0  0
  158.8789  143.2719  182.3396 O   0  0  0  0  0  0  0  0  0  0  0  0
  158.2338  144.5167  182.2088 C   0  0  0  0  0  0  0  0  0  0  0  0
  153.4251  139.8673  182.1209 C   0  0  0  0  0  0  0  0  0  0  0  0
  152.9178  138.8787  182.9047 C   0  0  0  0  0  0  0  0  0  0  0  0
  151.7173  138.2450  182.5246 C   0  0  0  0  0  0  0  0  0  0  0  0
  151.0285  138.5790  181.3939 C   0  0  0  0  0  0  0  0  0  0  0  0
  151.5532  139.5835  180.6088 C   0  0  0  0  0  0  0  0  0  0  0  0
  150.6875  140.0434  179.1369 Cl  0  0  0  0  0  0  0  0  0  0  0  0
  152.7242  140.2191  180.9561 C   0  0  0  0  0  0  0  0  0  0  0  0
  149.8538  137.9375  181.0496 O   0  0  0  0  0  0  0  0  0  0  0  0
  149.2894  137.0158  181.9299 C   0  0  0  0  0  0  0  0  0  0  0  0
  148.6341  137.6236  183.0920 C   0  0  0  0  0  0  0  0  0  0  0  0
  147.9597  138.8295  182.8846 C   0  0  0  0  0  0  0  0  0  0  0  0
  147.3090  139.4993  183.8783 C   0  0  0  0  0  0  0  0  0  0  0  0
  147.3283  138.9427  185.1464 C   0  0  0  0  0  0  0  0  0  0  0  0
  148.0054  137.7496  185.3125 C   0  0  0  0  0  0  0  0  0  0  0  0
  148.6340  137.1130  184.3273 N   0  0  0  0  0  0  0  0  0  0  0  0
 13 14  1  0  0  0
 14  3  1  0  0  0
  3  4  2  0  0  0
  4  5  1  0  0  0
  5  6  2  0  0  0
  6  7  1  0  0  0
  7  8  2  0  0  0
  8  9  1  0  0  0
  9  1  1  0  0  0
  1 17  1  0  0  0
 17 18  2  0  0  0
 18 19  1  0  0  0
 19 20  2  0  0  0
 20 24  1  0  0  0
 24 25  1  0  0  0
 25 26  1  0  0  0
 26 27  2  0  0  0
 27 28  1  0  0  0
 28 29  2  0  0  0
 29 30  1  0  0  0
 30 31  2  0  0  0
 20 21  1  0  0  0
 21 22  1  0  0  0
 21 23  2  0  0  0
  9 10  2  0  0  0
 10 11  1  0  0  0
 11 12  2  0  0  0
 12 15  1  0  0  0
 15 16  1  0  0  0
 12  3  1  0  0  0
 10  5  1  0  0  0
 23 17  1  0  0  0
 31 26  1  0  0  0
  1  2  1  0  0  0
M  END
> <minimizedAffinity>
-7.45316

> <CNNscore>
0.5034500360

> <CNNaffinity>
6.5586738586

> <CNN_VS>
3.3019645214

> <CNNaffinity_variance>
0.0229596905

$$$$
[H]c1nc(N([H])c2c([H])c([H])c(OC([H])([H])c3nc([H])c([H])c([H])c3[H])c(Cl)c2[H])c2c([H])c(OC([H])([H])[H])c(OC([H])([H])[H])c([H])c2n1


 31 34  0  0  0  0  0  0  0  0999 V2000
  154.0517  140.2749  183.7885 N   0  0  0  0  0  0  0  0  0  0  0  0
  153.3300  141.0246  184.0465 H   0  0  0  0  0  0  0  0  0  0  0  0
  150.7173  137.5006  181.1898 C   0  0  0  0  0  0  0  0  0  0  0  0
  151.4052  136.6914  182.0452 C   0  0  0  0  0  0  0  0  0  0  0  0
  152.3988  137.1381  182.8935 C   0  0  0  0  0  0  0  0  0  0  0  0
  153.0541  136.3032  183.7216 N   0  0  0  0  0  0  0  0  0  0  0  0
  154.0216  136.7271  184.5481 C   0  0  0  0  0  0  0  0  0  0  0  0
  154.3338  138.0212  184.5382 N   0  0  0  0  0  0  0  0  0  0  0  0
  153.7195  138.9109  183.7366 C   0  0  0  0  0  0  0  0  0  0  0  0
  152.7079  138.4848  182.8679 C   0  0  0  0  0  0  0  0  0  0  0  0
  152.0361  139.3258  182.0202 C   0  0  0  0  0  0  0  0  0  0  0  0
  151.0286  138.8324  181.1698 C   0  0  0  0  0  0  0  0  0  0  0  0
  148.3956  136.8132  180.7169 C   0  0  0  0  0  0  0  0  0  0  0  0
  149.7235  137.0535  180.3415 O   0  0  0  0  0  0  0  0  0  0  0  0
  150.3943  139.7476  180.3405 O   0  0  0  0  0  0  0  0  0  0  0  0
  150.9444  140.1744  179.1164 C   0  0  0  0  0  0  0  0  0  0  0  0
  155.3614  140.7363  183.5072 C   0  0  0  0  0  0  0  0  0  0  0  0
  156.4492  139.9379  183.6753 C   0  0  0  0  0  0  0  0  0  0  0  0
  157.7329  140.4568  183.4108 C   0  0  0  0  0  0  0  0  0  0  0  0
  157.9417  141.7382  182.9876 C   0  0  0  0  0  0  0  0  0  0  0  0
  156.8303  142.5366  182.8201 C   0  0  0  0  0  0  0  0  0  0  0  0
  157.0627  144.2019  182.2724 Cl  0  0  0  0  0  0  0  0  0  0  0  0
  155.5650  142.0556  183.0717 C   0  0  0  0  0  0  0  0  0  0  0  0
  159.2141  142.2160  182.7370 O   0  0  0  0  0  0  0  0  0  0  0  0
  160.3160  141.5577  183.2804 C   0  0  0  0  0  0  0  0  0  0  0  0
  160.7236  142.0608  184.5957 C   0  0  0  0  0  0  0  0  0  0  0  0
  162.0949  142.1847  184.8333 C   0  0  0  0  0  0  0  0  0  0  0  0
  162.6083  142.6393  186.0119 C   0  0  0  0  0  0  0  0  0  0  0  0
  161.7131  142.9900  187.0088 C   0  0  0  0  0  0  0  0  0  0  0  0
  160.3651  142.8538  186.7368 C   0  0  0  0  0  0  0  0  0  0  0  0
  159.8862  142.4075  185.5782 N   0  0  0  0  0  0  0  0  0  0  0  0
 13 14  1  0  0  0
 14  3  1  0  0  0
  3  4  2  0  0  0
  4  5  1  0  0  0
  5  6  2  0  0  0
  6  7  1  0  0  0
  7  8  2  0  0  0
  8  9  1  0  0  0
  9  1  1  0  0  0
  1 17  1  0  0  0
 17 18  2  0  0  0
 18 19  1  0  0  0
 19 20  2  0  0  0
 20 24  1  0  0  0
 24 25  1  0  0  0
 25 26  1  0  0  0
 26 27  2  0  0  0
 27 28  1  0  0  0
 28 29  2  0  0  0
 29 30  1  0  0  0
 30 31  2  0  0  0
 20 21  1  0  0  0
 21 22  1  0  0  0
 21 23  2  0  0  0
  9 10  2  0  0  0
 10 11  1  0  0  0
 11 12  2  0  0  0
 12 15  1  0  0  0
 15 16  1  0  0  0
 12  3  1  0  0  0
 10  5  1  0  0  0
 23 17  1  0  0  0
 31 26  1  0  0  0
  1  2  1  0  0  0
M  END
> <minimizedAffinity>
-8.27102

> <CNNscore>
0.4659832120

> <CNNaffinity>
6.7036643028

> <CNN_VS>
3.1237950325

> <CNNaffinity_variance>
0.0888437778

$$$$
[H]c1nc(N([H])c2c([H])c([H])c(OC([H])([H])c3nc([H])c([H])c([H])c3[H])c(Cl)c2[H])c2c([H])c(OC([H])([H])[H])c(OC([H])([H])[H])c([H])c2n1


 31 34  0  0  0  0  0  0  0  0999 V2000
  155.1749  138.1680  184.9772 N   0  0  0  0  0  0  0  0  0  0  0  0
  155.5162  137.2578  184.5251 H   0  0  0  0  0  0  0  0  0  0  0  0
  151.9264  139.8580  181.4902 C   0  0  0  0  0  0  0  0  0  0  0  0
  152.8864  140.8024  181.7050 C   0  0  0  0  0  0  0  0  0  0  0  0
  153.9205  140.6551  182.6079 C   0  0  0  0  0  0  0  0  0  0  0  0
  154.8469  141.6148  182.7895 N   0  0  0  0  0  0  0  0  0  0  0  0
  155.8542  141.4818  183.6650 C   0  0  0  0  0  0  0  0  0  0  0  0
  155.9275  140.3562  184.3721 N   0  0  0  0  0  0  0  0  0  0  0  0
  155.0359  139.3564  184.2410 C   0  0  0  0  0  0  0  0  0  0  0  0
  153.9787  139.4794  183.3320 C   0  0  0  0  0  0  0  0  0  0  0  0
  153.0298  138.5096  183.1408 C   0  0  0  0  0  0  0  0  0  0  0  0
  151.9902  138.6968  182.2104 C   0  0  0  0  0  0  0  0  0  0  0  0
  151.0417  140.0442  179.1947 C   0  0  0  0  0  0  0  0  0  0  0  0
  150.8923  140.0056  180.5869 O   0  0  0  0  0  0  0  0  0  0  0  0
  151.0680  137.6679  182.0744 O   0  0  0  0  0  0  0  0  0  0  0  0
  149.9832  137.4965  182.9558 C   0  0  0  0  0  0  0  0  0  0  0  0
  154.8760  138.1068  186.3608 C   0  0  0  0  0  0  0  0  0  0  0  0
  153.5963  138.1678  186.8163 C   0  0  0  0  0  0  0  0  0  0  0  0
  153.3563  138.1341  188.2050 C   0  0  0  0  0  0  0  0  0  0  0  0
  154.3581  138.0412  189.1284 C   0  0  0  0  0  0  0  0  0  0  0  0
  155.6507  137.9790  188.6531 C   0  0  0  0  0  0  0  0  0  0  0  0
  156.9738  137.8573  189.8201 Cl  0  0  0  0  0  0  0  0  0  0  0  0
  155.9137  138.0104  187.3019 C   0  0  0  0  0  0  0  0  0  0  0  0
  154.0886  138.0106  190.4836 O   0  0  0  0  0  0  0  0  0  0  0  0
  154.1076  136.7931  191.1618 C   0  0  0  0  0  0  0  0  0  0  0  0
  152.8992  136.5286  191.9487 C   0  0  0  0  0  0  0  0  0  0  0  0
  151.6743  136.6101  191.2816 C   0  0  0  0  0  0  0  0  0  0  0  0
  150.4765  136.3879  191.8943 C   0  0  0  0  0  0  0  0  0  0  0  0
  150.4948  136.0674  193.2416 C   0  0  0  0  0  0  0  0  0  0  0  0
  151.7251  135.9962  193.8669 C   0  0  0  0  0  0  0  0  0  0  0  0
  152.8825  136.2173  193.2485 N   0  0  0  0  0  0  0  0  0  0  0  0
 13 14  1  0  0  0
 14  3  1  0  0  0
  3  4  2  0  0  0
  4  5  1  0  0  0
  5  6  2  0  0  0
  6  7  1  0  0  0
  7  8  2  0  0  0
  8  9  1  0  0  0
  9  1  1  0  0  0
  1 17  1  0  0  0
 17 18  2  0  0  0
 18 19  1  0  0  0
 19 20  2  0  0  0
 20 24  1  0  0  0
 24 25  1  0  0  0
 25 26  1  0  0  0
 26 27  2  0  0  0
 27 28  1  0  0  0
 28 29  2  0  0  0
 29 30  1  0  0  0
 30 31  2  0  0  0
 20 21  1  0  0  0
 21 22  1  0  0  0
 21 23  2  0  0  0
  9 10  2  0  0  0
 10 11  1  0  0  0
 11 12  2  0  0  0
 12 15  1  0  0  0
 15 16  1  0  0  0
 12  3  1  0  0  0
 10  5  1  0  0  0
 23 17  1  0  0  0
 31 26  1  0  0  0
  1  2  1  0  0  0
M  END
> <minimizedAffinity>
-7.52236

> <CNNscore>
0.4565787911

> <CNNaffinity>
5.7783536911

> <CNN_VS>
2.6382737160

> <CNNaffinity_variance>
0.3060267568

$$$$
[H]c1nc(N([H])c2c([H])c([H])c(OC([H])([H])c3nc([H])c([H])c([H])c3[H])c(Cl)c2[H])c2c([H])c(OC([H])([H])[H])c(OC([H])([H])[H])c([H])c2n1


 31 34  0  0  0  0  0  0  0  0999 V2000
  156.4378  137.8515  186.7239 N   0  0  0  0  0  0  0  0  0  0  0  0
  157.4649  137.9595  186.4362 H   0  0  0  0  0  0  0  0  0  0  0  0
  155.7661  141.2184  183.0117 C   0  0  0  0  0  0  0  0  0  0  0  0
  154.6171  140.5045  183.1840 C   0  0  0  0  0  0  0  0  0  0  0  0
  154.4716  139.4962  184.1159 C   0  0  0  0  0  0  0  0  0  0  0  0
  153.3183  138.8152  184.2513 N   0  0  0  0  0  0  0  0  0  0  0  0
  153.1675  137.8333  185.1524 C   0  0  0  0  0  0  0  0  0  0  0  0
  154.2030  137.5328  185.9332 N   0  0  0  0  0  0  0  0  0  0  0  0
  155.3844  138.1727  185.8518 C   0  0  0  0  0  0  0  0  0  0  0  0
  155.5583  139.1996  184.9165 C   0  0  0  0  0  0  0  0  0  0  0  0
  156.7281  139.8976  184.7696 C   0  0  0  0  0  0  0  0  0  0  0  0
  156.8377  140.9194  183.8076 C   0  0  0  0  0  0  0  0  0  0  0  0
  155.5064  143.5551  182.2640 C   0  0  0  0  0  0  0  0  0  0  0  0
  155.9113  142.2269  182.0795 O   0  0  0  0  0  0  0  0  0  0  0  0
  158.0557  141.5800  183.7200 O   0  0  0  0  0  0  0  0  0  0  0  0
  159.1604  141.0511  183.0252 C   0  0  0  0  0  0  0  0  0  0  0  0
  156.2018  137.3708  188.0357 C   0  0  0  0  0  0  0  0  0  0  0  0
  156.4247  136.0714  188.3689 C   0  0  0  0  0  0  0  0  0  0  0  0
  156.1436  135.6380  189.6804 C   0  0  0  0  0  0  0  0  0  0  0  0
  155.6527  136.4688  190.6466 C   0  0  0  0  0  0  0  0  0  0  0  0
  155.4323  137.7837  190.2958 C   0  0  0  0  0  0  0  0  0  0  0  0
  154.7977  138.8890  191.5219 Cl  0  0  0  0  0  0  0  0  0  0  0  0
  155.6978  138.2338  189.0220 C   0  0  0  0  0  0  0  0  0  0  0  0
  155.3875  136.0116  191.9236 O   0  0  0  0  0  0  0  0  0  0  0  0
  154.3942  135.0535  192.1193 C   0  0  0  0  0  0  0  0  0  0  0  0
  153.0293  135.5761  192.0045 C   0  0  0  0  0  0  0  0  0  0  0  0
  152.5665  136.3831  193.0469 C   0  0  0  0  0  0  0  0  0  0  0  0
  151.3187  136.9328  193.0655 C   0  0  0  0  0  0  0  0  0  0  0  0
  150.4849  136.6676  191.9919 C   0  0  0  0  0  0  0  0  0  0  0  0
  150.9777  135.8655  190.9802 C   0  0  0  0  0  0  0  0  0  0  0  0
  152.2001  135.3393  190.9832 N   0  0  0  0  0  0  0  0  0  0  0  0
 13 14  1  0  0  0
 14  3  1  0  0  0
  3  4  2  0  0  0
  4  5  1  0  0  0
  5  6  2  0  0  0
  6  7  1  0  0  0
  7  8  2  0  0  0
  8  9  1  0  0  0
  9  1  1  0  0  0
  1 17  1  0  0  0
 17 18  2  0  0  0
 18 19  1  0  0  0
 19 20  2  0  0  0
 20 24  1  0  0  0
 24 25  1  0  0  0
 25 26  1  0  0  0
 26 27  2  0  0  0
 27 28  1  0  0  0
 28 29  2  0  0  0
 29 30  1  0  0  0
 30 31  2  0  0  0
 20 21  1  0  0  0
 21 22  1  0  0  0
 21 23  2  0  0  0
  9 10  2  0  0  0
 10 11  1  0  0  0
 11 12  2  0  0  0
 12 15  1  0  0  0
 15 16  1  0  0  0
 12  3  1  0  0  0
 10  5  1  0  0  0
 23 17  1  0  0  0
 31 26  1  0  0  0
  1  2  1  0  0  0
M  END
> <minimizedAffinity>
-6.82457

> <CNNscore>
0.4226810932

> <CNNaffinity>
6.1974844933

> <CNN_VS>
2.6195595264

> <CNNaffinity_variance>
0.1954286247

$$$$
[H]c1nc(N([H])c2c([H])c([H])c(OC([H])([H])c3nc([H])c([H])c([H])c3[H])c(Cl)c2[H])c2c([H])c(OC([H])([H])[H])c(OC([H])([H])[H])c([H])c2n1


 31 34  0  0  0  0  0  0  0  0999 V2000
  155.0071  138.0304  185.0779 N   0  0  0  0  0  0  0  0  0  0  0  0
  155.2894  137.0880  184.6516 H   0  0  0  0  0  0  0  0  0  0  0  0
  151.8190  139.4485  181.4182 C   0  0  0  0  0  0  0  0  0  0  0  0
  152.7315  140.4399  181.6283 C   0  0  0  0  0  0  0  0  0  0  0  0
  153.7378  140.3707  182.5710 C   0  0  0  0  0  0  0  0  0  0  0  0
  154.6173  141.3747  182.7461 N   0  0  0  0  0  0  0  0  0  0  0  0
  155.5972  141.3177  183.6601 C   0  0  0  0  0  0  0  0  0  0  0  0
  155.6911  140.2238  184.4130 N   0  0  0  0  0  0  0  0  0  0  0  0
  154.8462  139.1831  184.2911 C   0  0  0  0  0  0  0  0  0  0  0  0
  153.8180  139.2269  183.3424 C   0  0  0  0  0  0  0  0  0  0  0  0
  152.9169  138.2114  183.1574 C   0  0  0  0  0  0  0  0  0  0  0  0
  151.9044  138.3192  182.1854 C   0  0  0  0  0  0  0  0  0  0  0  0
  150.9369  140.1071  179.2104 C   0  0  0  0  0  0  0  0  0  0  0  0
  150.8126  139.5179  180.4752 O   0  0  0  0  0  0  0  0  0  0  0  0
  151.0303  137.2479  182.0587 O   0  0  0  0  0  0  0  0  0  0  0  0
  151.4613  135.9074  182.0764 C   0  0  0  0  0  0  0  0  0  0  0  0
  154.8099  138.0496  186.4808 C   0  0  0  0  0  0  0  0  0  0  0  0
  153.5638  138.0791  187.0244 C   0  0  0  0  0  0  0  0  0  0  0  0
  153.4241  138.1291  188.4262 C   0  0  0  0  0  0  0  0  0  0  0  0
  154.4917  138.1487  189.2774 C   0  0  0  0  0  0  0  0  0  0  0  0
  155.7493  138.1171  188.7132 C   0  0  0  0  0  0  0  0  0  0  0  0
  157.1557  138.1404  189.7851 Cl  0  0  0  0  0  0  0  0  0  0  0  0
  155.9147  138.0686  187.3472 C   0  0  0  0  0  0  0  0  0  0  0  0
  154.3200  138.1979  190.6478 O   0  0  0  0  0  0  0  0  0  0  0  0
  153.9604  137.0418  191.3384 C   0  0  0  0  0  0  0  0  0  0  0  0
  154.8455  135.8993  191.0925 C   0  0  0  0  0  0  0  0  0  0  0  0
  156.0333  135.8443  191.8262 C   0  0  0  0  0  0  0  0  0  0  0  0
  156.9439  134.8378  191.6947 C   0  0  0  0  0  0  0  0  0  0  0  0
  156.6609  133.8313  190.7863 C   0  0  0  0  0  0  0  0  0  0  0  0
  155.4768  133.9201  190.0794 C   0  0  0  0  0  0  0  0  0  0  0  0
  154.6022  134.9127  190.2242 N   0  0  0  0  0  0  0  0  0  0  0  0
 13 14  1  0  0  0
 14  3  1  0  0  0
  3  4  2  0  0  0
  4  5  1  0  0  0
  5  6  2  0  0  0
  6  7  1  0  0  0
  7  8  2  0  0  0
  8  9  1  0  0  0
  9  1  1  0  0  0
  1 17  1  0  0  0
 17 18  2  0  0  0
 18 19  1  0  0  0
 19 20  2  0  0  0
 20 24  1  0  0  0
 24 25  1  0  0  0
 25 26  1  0  0  0
 26 27  2  0  0  0
 27 28  1  0  0  0
 28 29  2  0  0  0
 29 30  1  0  0  0
 30 31  2  0  0  0
 20 21  1  0  0  0
 21 22  1  0  0  0
 21 23  2  0  0  0
  9 10  2  0  0  0
 10 11  1  0  0  0
 11 12  2  0  0  0
 12 15  1  0  0  0
 15 16  1  0  0  0
 12  3  1  0  0  0
 10  5  1  0  0  0
 23 17  1  0  0  0
 31 26  1  0  0  0
  1  2  1  0  0  0
M  END
> <minimizedAffinity>
-6.84634

> <CNNscore>
0.3948000371

> <CNNaffinity>
5.8724188805

> <CNN_VS>
2.3184311390

> <CNNaffinity_variance>
0.2534232438

$$$$
[H]c1nc(N([H])c2c([H])c([H])c(OC([H])([H])c3nc([H])c([H])c([H])c3[H])c(Cl)c2[H])c2c([H])c(OC([H])([H])[H])c(OC([H])([H])[H])c([H])c2n1


 31 34  0  0  0  0  0  0  0  0999 V2000
  153.7786  141.6299  182.3665 N   0  0  0  0  0  0  0  0  0  0  0  0
  153.1700  142.4821  182.5961 H   0  0  0  0  0  0  0  0  0  0  0  0
  153.1979  137.0572  184.4452 C   0  0  0  0  0  0  0  0  0  0  0  0
  152.7110  137.0368  183.1716 C   0  0  0  0  0  0  0  0  0  0  0  0
  152.7103  138.1327  182.3318 C   0  0  0  0  0  0  0  0  0  0  0  0
  152.2175  138.0685  181.0807 N   0  0  0  0  0  0  0  0  0  0  0  0
  152.2110  139.1277  180.2580 C   0  0  0  0  0  0  0  0  0  0  0  0
  152.7126  140.2758  180.7080 N   0  0  0  0  0  0  0  0  0  0  0  0
  153.2213  140.4106  181.9468 C   0  0  0  0  0  0  0  0  0  0  0  0
  153.2353  139.3150  182.8180 C   0  0  0  0  0  0  0  0  0  0  0  0
  153.7329  139.3702  184.0934 C   0  0  0  0  0  0  0  0  0  0  0  0
  153.7160  138.2308  184.9198 C   0  0  0  0  0  0  0  0  0  0  0  0
  154.1842  134.9658  185.3054 C   0  0  0  0  0  0  0  0  0  0  0  0
  153.1985  135.9608  185.2850 O   0  0  0  0  0  0  0  0  0  0  0  0
  154.2384  138.3673  186.1990 O   0  0  0  0  0  0  0  0  0  0  0  0
  155.6147  138.2555  186.4751 C   0  0  0  0  0  0  0  0  0  0  0  0
  155.1773  141.8006  182.5146 C   0  0  0  0  0  0  0  0  0  0  0  0
  155.7180  142.2834  183.6651 C   0  0  0  0  0  0  0  0  0  0  0  0
  157.1136  142.4634  183.7486 C   0  0  0  0  0  0  0  0  0  0  0  0
  157.9616  142.1725  182.7185 C   0  0  0  0  0  0  0  0  0  0  0  0
  157.4005  141.6827  181.5583 C   0  0  0  0  0  0  0  0  0  0  0  0
  158.4684  141.2942  180.2033 Cl  0  0  0  0  0  0  0  0  0  0  0  0
  156.0405  141.4976  181.4493 C   0  0  0  0  0  0  0  0  0  0  0  0
  159.3259  142.3608  182.8331 O   0  0  0  0  0  0  0  0  0  0  0  0
  160.1036  141.3927  183.4662 C   0  0  0  0  0  0  0  0  0  0  0  0
  160.8860  141.9007  184.5971 C   0  0  0  0  0  0  0  0  0  0  0  0
  160.1754  142.3413  185.7166 C   0  0  0  0  0  0  0  0  0  0  0  0
  160.7793  142.8364  186.8345 C   0  0  0  0  0  0  0  0  0  0  0  0
  162.1629  142.8977  186.8424 C   0  0  0  0  0  0  0  0  0  0  0  0
  162.8308  142.4530  185.7173 C   0  0  0  0  0  0  0  0  0  0  0  0
  162.2201  141.9733  184.6366 N   0  0  0  0  0  0  0  0  0  0  0  0
 13 14  1  0  0  0
 14  3  1  0  0  0
  3  4  2  0  0  0
  4  5  1  0  0  0
  5  6  2  0  0  0
  6  7  1  0  0  0
  7  8  2  0  0  0
  8  9  1  0  0  0
  9  1  1  0  0  0
  1 17  1  0  0  0
 17 18  2  0  0  0
 18 19  1  0  0  0
 19 20  2  0  0  0
 20 24  1  0  0  0
 24 25  1  0  0  0
 25 26  1  0  0  0
 26 27  2  0  0  0
 27 28  1  0  0  0
 28 29  2  0  0  0
 29 30  1  0  0  0
 30 31  2  0  0  0
 20 21  1  0  0  0
 21 22  1  0  0  0
 21 23  2  0  0  0
  9 10  2  0  0  0
 10 11  1  0  0  0
 11 12  2  0  0  0
 12 15  1  0  0  0
 15 16  1  0  0  0
 12  3  1  0  0  0
 10  5  1  0  0  0
 23 17  1  0  0  0
 31 26  1  0  0  0
  1  2  1  0  0  0
M  END
> <minimizedAffinity>
-8.34252

> <CNNscore>
0.3757831454

> <CNNaffinity>
6.6394615173

> <CNN_VS>
2.4949977398

> <CNNaffinity_variance>
0.2386035174

$$$$
[H]c1nc(N([H])c2c([H])c([H])c(OC([H])([H])c3nc([H])c([H])c([H])c3[H])c(Cl)c2[H])c2c([H])c(OC([H])([H])[H])c(OC([H])([H])[H])c([H])c2n1


 31 34  0  0  0  0  0  0  0  0999 V2000
  155.5974  142.1050  182.6473 N   0  0  0  0  0  0  0  0  0  0  0  0
  155.3466  143.0164  183.1532 H   0  0  0  0  0  0  0  0  0  0  0  0
  160.4420  141.4944  183.9608 C   0  0  0  0  0  0  0  0  0  0  0  0
  160.3483  141.5470  182.6014 C   0  0  0  0  0  0  0  0  0  0  0  0
  159.1578  141.6982  181.9187 C   0  0  0  0  0  0  0  0  0  0  0  0
  159.1110  141.7436  180.5741 N   0  0  0  0  0  0  0  0  0  0  0  0
  157.9596  141.8887  179.9017 C   0  0  0  0  0  0  0  0  0  0  0  0
  156.8318  141.9900  180.6018 N   0  0  0  0  0  0  0  0  0  0  0  0
  156.8057  141.9526  181.9470 C   0  0  0  0  0  0  0  0  0  0  0  0
  157.9985  141.8014  182.6638 C   0  0  0  0  0  0  0  0  0  0  0  0
  158.0569  141.7523  184.0318 C   0  0  0  0  0  0  0  0  0  0  0  0
  159.2905  141.5972  184.6920 C   0  0  0  0  0  0  0  0  0  0  0  0
  162.6904  142.2617  184.6261 C   0  0  0  0  0  0  0  0  0  0  0  0
  161.6329  141.3432  184.6434 O   0  0  0  0  0  0  0  0  0  0  0  0
  159.2664  141.5564  186.0796 O   0  0  0  0  0  0  0  0  0  0  0  0
  159.6673  142.6433  186.8801 C   0  0  0  0  0  0  0  0  0  0  0  0
  154.6395  141.0637  182.7204 C   0  0  0  0  0  0  0  0  0  0  0  0
  154.7277  140.0791  183.6541 C   0  0  0  0  0  0  0  0  0  0  0  0
  153.7654  139.0491  183.6631 C   0  0  0  0  0  0  0  0  0  0  0  0
  152.7345  138.9899  182.7695 C   0  0  0  0  0  0  0  0  0  0  0  0
  152.6561  139.9949  181.8290 C   0  0  0  0  0  0  0  0  0  0  0  0
  151.3334  139.9512  180.6559 Cl  0  0  0  0  0  0  0  0  0  0  0  0
  153.5827  141.0128  181.7972 C   0  0  0  0  0  0  0  0  0  0  0  0
  151.8074  137.9657  182.8056 O   0  0  0  0  0  0  0  0  0  0  0  0
  152.0545  136.8409  183.5910 C   0  0  0  0  0  0  0  0  0  0  0  0
  152.7405  135.7564  182.8821 C   0  0  0  0  0  0  0  0  0  0  0  0
  153.9842  135.3577  183.3784 C   0  0  0  0  0  0  0  0  0  0  0  0
  154.7268  134.3627  182.8146 C   0  0  0  0  0  0  0  0  0  0  0  0
  154.2075  133.7288  181.6980 C   0  0  0  0  0  0  0  0  0  0  0  0
  152.9751  134.1505  181.2365 C   0  0  0  0  0  0  0  0  0  0  0  0
  152.2675  135.1247  181.8033 N   0  0  0  0  0  0  0  0  0  0  0  0
 13 14  1  0  0  0
 14  3  1  0  0  0
  3  4  2  0  0  0
  4  5  1  0  0  0
  5  6  2  0  0  0
  6  7  1  0  0  0
  7  8  2  0  0  0
  8  9  1  0  0  0
  9  1  1  0  0  0
  1 17  1  0  0  0
 17 18  2  0  0  0
 18 19  1  0  0  0
 19 20  2  0  0  0
 20 24  1  0  0  0
 24 25  1  0  0  0
 25 26  1  0  0  0
 26 27  2  0  0  0
 27 28  1  0  0  0
 28 29  2  0  0  0
 29 30  1  0  0  0
 30 31  2  0  0  0
 20 21  1  0  0  0
 21 22  1  0  0  0
 21 23  2  0  0  0
  9 10  2  0  0  0
 10 11  1  0  0  0
 11 12  2  0  0  0
 12 15  1  0  0  0
 15 16  1  0  0  0
 12  3  1  0  0  0
 10  5  1  0  0  0
 23 17  1  0  0  0
 31 26  1  0  0  0
  1  2  1  0  0  0
M  END
> <minimizedAffinity>
-7.40756

> <CNNscore>
0.3679716289

> <CNNaffinity>
6.7392807007

> <CNN_VS>
2.4798641205

> <CNNaffinity_variance>
0.1033818349

$$$$
[H]c1nc(N([H])c2c([H])c([H])c(OC([H])([H])c3nc([H])c([H])c([H])c3[H])c(Cl)c2[H])c2c([H])c(OC([H])([H])[H])c(OC([H])([H])[H])c([H])c2n1


 31 34  0  0  0  0  0  0  0  0999 V2000
  155.4982  141.8479  182.8628 N   0  0  0  0  0  0  0  0  0  0  0  0
  155.3045  142.6812  183.5090 H   0  0  0  0  0  0  0  0  0  0  0  0
  160.3972  141.4606  184.0536 C   0  0  0  0  0  0  0  0  0  0  0  0
  160.2657  141.4899  182.6966 C   0  0  0  0  0  0  0  0  0  0  0  0
  159.0523  141.5810  182.0442 C   0  0  0  0  0  0  0  0  0  0  0  0
  158.9682  141.6054  180.7009 N   0  0  0  0  0  0  0  0  0  0  0  0
  157.7944  141.6922  180.0578 C   0  0  0  0  0  0  0  0  0  0  0  0
  156.6821  141.7559  180.7866 N   0  0  0  0  0  0  0  0  0  0  0  0
  156.6930  141.7365  182.1324 C   0  0  0  0  0  0  0  0  0  0  0  0
  157.9096  141.6460  182.8188 C   0  0  0  0  0  0  0  0  0  0  0  0
  158.0060  141.6188  184.1853 C   0  0  0  0  0  0  0  0  0  0  0  0
  159.2620  141.5252  184.8140 C   0  0  0  0  0  0  0  0  0  0  0  0
  162.5049  142.4321  184.8905 C   0  0  0  0  0  0  0  0  0  0  0  0
  161.6110  141.3695  184.7059 O   0  0  0  0  0  0  0  0  0  0  0  0
  159.2762  141.5033  186.2022 O   0  0  0  0  0  0  0  0  0  0  0  0
  159.5857  142.6367  186.9783 C   0  0  0  0  0  0  0  0  0  0  0  0
  154.4791  140.8669  182.7828 C   0  0  0  0  0  0  0  0  0  0  0  0
  154.4461  139.8037  183.6299 C   0  0  0  0  0  0  0  0  0  0  0  0
  153.4277  138.8395  183.4868 C   0  0  0  0  0  0  0  0  0  0  0  0
  152.4591  138.9211  182.5278 C   0  0  0  0  0  0  0  0  0  0  0  0
  152.5036  140.0045  181.6764 C   0  0  0  0  0  0  0  0  0  0  0  0
  151.2645  140.1434  180.4222 Cl  0  0  0  0  0  0  0  0  0  0  0  0
  153.4873  140.9607  181.7933 C   0  0  0  0  0  0  0  0  0  0  0  0
  151.4742  137.9581  182.4145 O   0  0  0  0  0  0  0  0  0  0  0  0
  151.4819  136.8612  183.2745 C   0  0  0  0  0  0  0  0  0  0  0  0
  150.5477  136.9768  184.3984 C   0  0  0  0  0  0  0  0  0  0  0  0
  149.2337  137.3454  184.0992 C   0  0  0  0  0  0  0  0  0  0  0  0
  148.2658  137.4887  185.0490 C   0  0  0  0  0  0  0  0  0  0  0  0
  148.6206  137.2535  186.3670 C   0  0  0  0  0  0  0  0  0  0  0  0
  149.9292  136.8910  186.6237 C   0  0  0  0  0  0  0  0  0  0  0  0
  150.8578  136.7571  185.6800 N   0  0  0  0  0  0  0  0  0  0  0  0
 13 14  1  0  0  0
 14  3  1  0  0  0
  3  4  2  0  0  0
  4  5  1  0  0  0
  5  6  2  0  0  0
  6  7  1  0  0  0
  7  8  2  0  0  0
  8  9  1  0  0  0
  9  1  1  0  0  0
  1 17  1  0  0  0
 17 18  2  0  0  0
 18 19  1  0  0  0
 19 20  2  0  0  0
 20 24  1  0  0  0
 24 25  1  0  0  0
 25 26  1  0  0  0
 26 27  2  0  0  0
 27 28  1  0  0  0
 28 29  2  0  0  0
 29 30  1  0  0  0
 30 31  2  0  0  0
 20 21  1  0  0  0
 21 22  1  0  0  0
 21 23  2  0  0  0
  9 10  2  0  0  0
 10 11  1  0  0  0
 11 12  2  0  0  0
 12 15  1  0  0  0
 15 16  1  0  0  0
 12  3  1  0  0  0
 10  5  1  0  0  0
 23 17  1  0  0  0
 31 26  1  0  0  0
  1  2  1  0  0  0
M  END
> <minimizedAffinity>
-7.46407

> <CNNscore>
0.3514696360

> <CNNaffinity>
6.5913705826

> <CNN_VS>
2.3166666031

> <CNNaffinity_variance>
0.0581558831

$$$$
[H]N=C(N([H])[H])N([H])C([H])([H])C([H])([H])C([H])([H])[C@]1([H])N([H])C(=O)[C@]2([H])C([H])([H])C([H])([H])[C@]([H])(OC(=O)O[H])[C@@]2([H])OC([H])(c2noc(N([H])C([H])([H])C(N([H])[H])(C([H])([H])O[H])C([H])([H])O[H])n2)C1([H])[H]


 47 49  0  0  0  0  0  0  0  0999 V2000
  154.7879  137.0713  187.2798 C   0  0  0  0  0  0  0  0  0  0  0  0
  153.9250  137.6230  188.2554 O   0  0  0  0  0  0  0  0  0  0  0  0
  153.6722  136.7437  189.2848 C   0  0  0  0  0  0  0  0  0  0  0  0
  154.2739  137.3657  190.5487 C   0  0  0  0  0  0  0  0  0  0  0  0
  153.3633  136.9442  191.6751 C   0  0  0  0  0  0  0  0  0  0  0  0
  152.0570  136.5642  191.0606 C   0  0  0  0  0  0  0  0  0  0  0  0
  152.2048  136.5722  189.5704 C   0  0  0  0  0  0  0  0  0  0  0  0
  155.6324  136.8255  190.6952 C   0  0  0  0  0  0  0  0  0  0  0  0
  155.9482  136.6473  191.8867 O   0  0  0  0  0  0  0  0  0  0  0  0
  156.6587  136.4631  189.8046 N   0  0  0  0  0  0  0  0  0  0  0  0
  156.9611  136.4431  188.4046 C   0  0  0  0  0  0  0  0  0  0  0  0
  156.2044  137.4213  187.5767 C   0  0  0  0  0  0  0  0  0  0  0  0
  157.4765  136.0784  190.3478 H   0  0  0  0  0  0  0  0  0  0  0  0
  153.3748  138.3409  184.1208 C   0  0  0  0  0  0  0  0  0  0  0  0
  153.3616  137.5032  185.2030 N   0  0  0  0  0  0  0  0  0  0  0  0
  154.4103  137.7434  186.0003 C   0  0  0  0  0  0  0  0  0  0  0  0
  155.0723  138.7448  185.3916 N   0  0  0  0  0  0  0  0  0  0  0  0
  154.4534  139.0771  184.3007 O   0  0  0  0  0  0  0  0  0  0  0  0
  152.4166  138.3671  183.0782 N   0  0  0  0  0  0  0  0  0  0  0  0
  152.0023  139.3154  182.8405 H   0  0  0  0  0  0  0  0  0  0  0  0
  151.9435  137.2667  182.3100 C   0  0  0  0  0  0  0  0  0  0  0  0
  150.0560  136.4391  181.0162 N   0  0  0  0  0  0  0  0  0  0  0  0
  150.4511  137.1469  182.2569 C   0  0  0  0  0  0  0  0  0  0  0  0
  150.4856  136.9169  180.2017 H   0  0  0  0  0  0  0  0  0  0  0  0
  150.3976  135.4483  181.0545 H   0  0  0  0  0  0  0  0  0  0  0  0
  149.9119  136.4214  183.4362 C   0  0  0  0  0  0  0  0  0  0  0  0
  149.8566  137.3168  184.5432 O   0  0  0  0  0  0  0  0  0  0  0  0
  149.8540  138.2498  184.1881 H   0  0  0  0  0  0  0  0  0  0  0  0
  149.8203  138.5316  182.1048 C   0  0  0  0  0  0  0  0  0  0  0  0
  148.4506  138.4388  182.2448 O   0  0  0  0  0  0  0  0  0  0  0  0
  147.9432  138.7074  181.4379 H   0  0  0  0  0  0  0  0  0  0  0  0
  151.7548  135.3605  188.9802 O   0  0  0  0  0  0  0  0  0  0  0  0
  151.5611  135.2210  187.6201 C   0  0  0  0  0  0  0  0  0  0  0  0
  151.1205  136.2562  186.7964 O   0  0  0  0  0  0  0  0  0  0  0  0
  151.7840  134.1159  187.0609 O   0  0  0  0  0  0  0  0  0  0  0  0
  151.2081  137.2278  187.0597 H   0  0  0  0  0  0  0  0  0  0  0  0
  156.8937  135.0372  187.8402 C   0  0  0  0  0  0  0  0  0  0  0  0
  158.2968  134.5231  187.5912 C   0  0  0  0  0  0  0  0  0  0  0  0
  158.5488  133.2645  188.3542 C   0  0  0  0  0  0  0  0  0  0  0  0
  159.1187  133.5656  189.6434 N   0  0  0  0  0  0  0  0  0  0  0  0
  160.0272  134.0549  189.7013 H   0  0  0  0  0  0  0  0  0  0  0  0
  158.3831  133.1673  190.7834 C   0  0  0  0  0  0  0  0  0  0  0  0
  158.4269  131.8287  191.2089 N   0  0  0  0  0  0  0  0  0  0  0  0
  157.6857  134.0287  191.4156 N   0  0  0  0  0  0  0  0  0  0  0  0
  158.5317  131.0476  190.5041 H   0  0  0  0  0  0  0  0  0  0  0  0
  158.3584  131.5756  192.2138 H   0  0  0  0  0  0  0  0  0  0  0  0
  157.5952  135.0281  191.1760 H   0  0  0  0  0  0  0  0  0  0  0  0
 22 23  1  0  0  0
 23 26  1  0  0  0
 26 27  1  0  0  0
 23 29  1  0  0  0
 29 30  1  0  0  0
 23 21  1  0  0  0
 21 19  1  0  0  0
 19 14  1  0  0  0
 14 15  2  0  0  0
 15 16  1  0  0  0
 16 17  2  0  0  0
 17 18  1  0  0  0
 16  1  1  0  0  0
  1  2  1  0  0  0
  2  3  1  0  0  0
  3  4  1  0  0  0
  4  5  1  0  0  0
  5  6  1  0  0  0
  6  7  1  0  0  0
  7 32  1  0  0  0
 32 33  1  0  0  0
 33 34  1  0  0  0
 33 35  2  0  0  0
  4  8  1  0  0  0
  8  9  2  0  0  0
  8 10  1  0  0  0
 10 11  1  0  0  0
 11 37  1  0  0  0
 37 38  1  0  0  0
 38 39  1  0  0  0
 39 40  1  0  0  0
 40 42  1  0  0  0
 42 43  1  0  0  0
 42 44  2  0  0  0
 11 12  1  0  0  0
 18 14  1  0  0  0
 12  1  1  0  0  0
  7  3  1  0  0  0
 22 24  1  0  0  0
 22 25  1  0  0  0
 27 28  1  0  0  0
 30 31  1  0  0  0
 19 20  1  0  0  0
 34 36  1  0  0  0
 10 13  1  0  0  0
 40 41  1  0  0  0
 43 45  1  0  0  0
 43 46  1  0  0  0
 44 47  1  0  0  0
M  END
> <minimizedAffinity>
-4.50612

> <CNNscore>
0.2966434062

> <CNNaffinity>
4.9727468491

> <CNN_VS>
1.4751325846

> <CNNaffinity_variance>
0.5485578179

$$$$
[H]N=C(N([H])[H])N([H])C([H])([H])C([H])([H])C([H])([H])[C@]1([H])N([H])C(=O)[C@]2([H])C([H])([H])C([H])([H])[C@]([H])(OC(=O)O[H])[C@@]2([H])OC([H])(c2noc(N([H])C([H])([H])C(N([H])[H])(C([H])([H])O[H])C([H])([H])O[H])n2)C1([H])[H]


 47 49  0  0  0  0  0  0  0  0999 V2000
  155.0863  136.5394  187.6679 C   0  0  0  0  0  0  0  0  0  0  0  0
  154.4370  137.3421  188.6348 O   0  0  0  0  0  0  0  0  0  0  0  0
  154.0590  136.6187  189.7442 C   0  0  0  0  0  0  0  0  0  0  0  0
  154.8678  137.1706  190.9223 C   0  0  0  0  0  0  0  0  0  0  0  0
  153.9610  137.0505  192.1218 C   0  0  0  0  0  0  0  0  0  0  0  0
  152.5652  136.9416  191.6039 C   0  0  0  0  0  0  0  0  0  0  0  0
  152.6130  136.8119  190.1128 C   0  0  0  0  0  0  0  0  0  0  0  0
  156.0747  136.3422  191.0477 C   0  0  0  0  0  0  0  0  0  0  0  0
  156.4191  136.1787  192.2333 O   0  0  0  0  0  0  0  0  0  0  0  0
  156.9312  135.6911  190.1420 N   0  0  0  0  0  0  0  0  0  0  0  0
  157.1288  135.5047  188.7356 C   0  0  0  0  0  0  0  0  0  0  0  0
  156.5616  136.5717  187.8669 C   0  0  0  0  0  0  0  0  0  0  0  0
  157.6741  135.1662  190.6753 H   0  0  0  0  0  0  0  0  0  0  0  0
  153.9463  137.6840  184.3545 C   0  0  0  0  0  0  0  0  0  0  0  0
  153.9188  136.8138  185.4106 N   0  0  0  0  0  0  0  0  0  0  0  0
  154.7882  137.1904  186.3568 C   0  0  0  0  0  0  0  0  0  0  0  0
  155.3538  138.3091  185.8670 N   0  0  0  0  0  0  0  0  0  0  0  0
  154.8501  138.5785  184.7020 O   0  0  0  0  0  0  0  0  0  0  0  0
  153.1558  137.5943  183.1828 N   0  0  0  0  0  0  0  0  0  0  0  0
  152.9987  138.4982  182.6482 H   0  0  0  0  0  0  0  0  0  0  0  0
  152.5461  136.4300  182.6374 C   0  0  0  0  0  0  0  0  0  0  0  0
  150.4893  135.9467  181.4301 N   0  0  0  0  0  0  0  0  0  0  0  0
  151.0501  136.4213  182.7172 C   0  0  0  0  0  0  0  0  0  0  0  0
  150.8827  136.5170  180.6579 H   0  0  0  0  0  0  0  0  0  0  0  0
  150.7501  134.9415  181.2840 H   0  0  0  0  0  0  0  0  0  0  0  0
  150.5599  135.5568  183.8219 C   0  0  0  0  0  0  0  0  0  0  0  0
  151.6655  135.1787  184.6373 O   0  0  0  0  0  0  0  0  0  0  0  0
  152.4008  135.8374  184.4884 H   0  0  0  0  0  0  0  0  0  0  0  0
  150.5246  137.8521  182.8399 C   0  0  0  0  0  0  0  0  0  0  0  0
  150.7972  138.5508  181.6815 O   0  0  0  0  0  0  0  0  0  0  0  0
  151.3958  139.3290  181.8108 H   0  0  0  0  0  0  0  0  0  0  0  0
  151.8619  135.6993  189.6467 O   0  0  0  0  0  0  0  0  0  0  0  0
  151.2117  135.6968  188.4285 C   0  0  0  0  0  0  0  0  0  0  0  0
  151.5609  136.5336  187.3693 O   0  0  0  0  0  0  0  0  0  0  0  0
  150.2491  134.9113  188.2286 O   0  0  0  0  0  0  0  0  0  0  0  0
  152.4732  136.9626  187.3006 H   0  0  0  0  0  0  0  0  0  0  0  0
  156.7071  134.1170  188.2930 C   0  0  0  0  0  0  0  0  0  0  0  0
  157.3941  133.7704  186.9879 C   0  0  0  0  0  0  0  0  0  0  0  0
  156.6642  132.6824  186.2715 C   0  0  0  0  0  0  0  0  0  0  0  0
  156.4919  133.0250  184.8822 N   0  0  0  0  0  0  0  0  0  0  0  0
  157.2686  132.8762  184.2168 H   0  0  0  0  0  0  0  0  0  0  0  0
  155.2386  133.5555  184.4986 C   0  0  0  0  0  0  0  0  0  0  0  0
  154.2033  133.6517  185.4440 N   0  0  0  0  0  0  0  0  0  0  0  0
  155.0598  133.9423  183.2959 N   0  0  0  0  0  0  0  0  0  0  0  0
  154.1178  132.9355  186.2170 H   0  0  0  0  0  0  0  0  0  0  0  0
  153.5044  134.4192  185.4080 H   0  0  0  0  0  0  0  0  0  0  0  0
  155.7599  133.9091  182.5389 H   0  0  0  0  0  0  0  0  0  0  0  0
 22 23  1  0  0  0
 23 26  1  0  0  0
 26 27  1  0  0  0
 23 29  1  0  0  0
 29 30  1  0  0  0
 23 21  1  0  0  0
 21 19  1  0  0  0
 19 14  1  0  0  0
 14 15  2  0  0  0
 15 16  1  0  0  0
 16 17  2  0  0  0
 17 18  1  0  0  0
 16  1  1  0  0  0
  1  2  1  0  0  0
  2  3  1  0  0  0
  3  4  1  0  0  0
  4  5  1  0  0  0
  5  6  1  0  0  0
  6  7  1  0  0  0
  7 32  1  0  0  0
 32 33  1  0  0  0
 33 34  1  0  0  0
 33 35  2  0  0  0
  4  8  1  0  0  0
  8  9  2  0  0  0
  8 10  1  0  0  0
 10 11  1  0  0  0
 11 37  1  0  0  0
 37 38  1  0  0  0
 38 39  1  0  0  0
 39 40  1  0  0  0
 40 42  1  0  0  0
 42 43  1  0  0  0
 42 44  2  0  0  0
 11 12  1  0  0  0
 18 14  1  0  0  0
 12  1  1  0  0  0
  7  3  1  0  0  0
 22 24  1  0  0  0
 22 25  1  0  0  0
 27 28  1  0  0  0
 30 31  1  0  0  0
 19 20  1  0  0  0
 34 36  1  0  0  0
 10 13  1  0  0  0
 40 41  1  0  0  0
 43 45  1  0  0  0
 43 46  1  0  0  0
 44 47  1  0  0  0
M  END
> <minimizedAffinity>
-4.00488

> <CNNscore>
0.2488206923

> <CNNaffinity>
4.7874841690

> <CNN_VS>
1.1912251711

> <CNNaffinity_variance>
0.6377628446

$$$$
[H]N=C(N([H])[H])N([H])C([H])([H])C([H])([H])C([H])([H])[C@]1([H])N([H])C(=O)[C@]2([H])C([H])([H])C([H])([H])[C@]([H])(OC(=O)O[H])[C@@]2([H])OC([H])(c2noc(N([H])C([H])([H])C(N([H])[H])(C([H])([H])O[H])C([H])([H])O[H])n2)C1([H])[H]


 47 49  0  0  0  0  0  0  0  0999 V2000
  154.8495  137.5550  187.4900 C   0  0  0  0  0  0  0  0  0  0  0  0
  153.5320  137.6834  187.9883 O   0  0  0  0  0  0  0  0  0  0  0  0
  153.1342  136.5747  188.7020 C   0  0  0  0  0  0  0  0  0  0  0  0
  152.9236  137.0376  190.1470 C   0  0  0  0  0  0  0  0  0  0  0  0
  151.7874  136.1973  190.6751 C   0  0  0  0  0  0  0  0  0  0  0  0
  151.0467  135.6717  189.4904 C   0  0  0  0  0  0  0  0  0  0  0  0
  151.8090  136.0236  188.2503 C   0  0  0  0  0  0  0  0  0  0  0  0
  154.1804  136.7966  190.8688 C   0  0  0  0  0  0  0  0  0  0  0  0
  153.9924  136.4488  192.0497 O   0  0  0  0  0  0  0  0  0  0  0  0
  155.5454  136.8672  190.5375 N   0  0  0  0  0  0  0  0  0  0  0  0
  156.4092  137.2082  189.4470 C   0  0  0  0  0  0  0  0  0  0  0  0
  155.8292  138.1431  188.4448 C   0  0  0  0  0  0  0  0  0  0  0  0
  156.1247  136.5705  191.3671 H   0  0  0  0  0  0  0  0  0  0  0  0
  155.5325  139.5509  184.4671 C   0  0  0  0  0  0  0  0  0  0  0  0
  155.9350  138.8309  185.5592 N   0  0  0  0  0  0  0  0  0  0  0  0
  154.8769  138.3776  186.2434 C   0  0  0  0  0  0  0  0  0  0  0  0
  153.8128  138.8304  185.5548 N   0  0  0  0  0  0  0  0  0  0  0  0
  154.2162  139.5101  184.5258 O   0  0  0  0  0  0  0  0  0  0  0  0
  156.3841  140.1721  183.5211 N   0  0  0  0  0  0  0  0  0  0  0  0
  156.1366  140.0317  182.4982 H   0  0  0  0  0  0  0  0  0  0  0  0
  157.5363  140.9650  183.7836 C   0  0  0  0  0  0  0  0  0  0  0  0
  159.5179  139.5733  184.0247 N   0  0  0  0  0  0  0  0  0  0  0  0
  158.7847  140.4815  183.1113 C   0  0  0  0  0  0  0  0  0  0  0  0
  159.6676  140.0535  184.9320 H   0  0  0  0  0  0  0  0  0  0  0  0
  158.9520  138.7048  184.1833 H   0  0  0  0  0  0  0  0  0  0  0  0
  158.4893  139.7739  181.8385 C   0  0  0  0  0  0  0  0  0  0  0  0
  158.3553  140.7360  180.7960 O   0  0  0  0  0  0  0  0  0  0  0  0
  158.8192  141.5719  181.0834 H   0  0  0  0  0  0  0  0  0  0  0  0
  159.7512  141.6479  182.9015 C   0  0  0  0  0  0  0  0  0  0  0  0
  159.4541  142.6653  183.7853 O   0  0  0  0  0  0  0  0  0  0  0  0
  159.1811  143.5116  183.3496 H   0  0  0  0  0  0  0  0  0  0  0  0
  152.0345  134.8926  187.4201 O   0  0  0  0  0  0  0  0  0  0  0  0
  153.1203  134.0548  187.5809 C   0  0  0  0  0  0  0  0  0  0  0  0
  154.2657  134.1205  186.7885 O   0  0  0  0  0  0  0  0  0  0  0  0
  153.1102  133.1740  188.4796 O   0  0  0  0  0  0  0  0  0  0  0  0
  154.5130  134.9506  186.2679 H   0  0  0  0  0  0  0  0  0  0  0  0
  157.0077  135.9726  188.8031 C   0  0  0  0  0  0  0  0  0  0  0  0
  157.0899  134.8575  189.8253 C   0  0  0  0  0  0  0  0  0  0  0  0
  157.6414  133.6114  189.2146 C   0  0  0  0  0  0  0  0  0  0  0  0
  159.0779  133.5894  189.3312 N   0  0  0  0  0  0  0  0  0  0  0  0
  159.5160  133.5233  190.2649 H   0  0  0  0  0  0  0  0  0  0  0  0
  159.8240  133.6586  188.1321 C   0  0  0  0  0  0  0  0  0  0  0  0
  160.3371  134.8935  187.7003 N   0  0  0  0  0  0  0  0  0  0  0  0
  160.0244  132.5971  187.4529 N   0  0  0  0  0  0  0  0  0  0  0  0
  159.8119  135.7891  187.8999 H   0  0  0  0  0  0  0  0  0  0  0  0
  161.2340  134.9573  187.1805 H   0  0  0  0  0  0  0  0  0  0  0  0
  159.6870  131.6521  187.6928 H   0  0  0  0  0  0  0  0  0  0  0  0
 22 23  1  0  0  0
 23 26  1  0  0  0
 26 27  1  0  0  0
 23 29  1  0  0  0
 29 30  1  0  0  0
 23 21  1  0  0  0
 21 19  1  0  0  0
 19 14  1  0  0  0
 14 15  2  0  0  0
 15 16  1  0  0  0
 16 17  2  0  0  0
 17 18  1  0  0  0
 16  1  1  0  0  0
  1  2  1  0  0  0
  2  3  1  0  0  0
  3  4  1  0  0  0
  4  5  1  0  0  0
  5  6  1  0  0  0
  6  7  1  0  0  0
  7 32  1  0  0  0
 32 33  1  0  0  0
 33 34  1  0  0  0
 33 35  2  0  0  0
  4  8  1  0  0  0
  8  9  2  0  0  0
  8 10  1  0  0  0
 10 11  1  0  0  0
 11 37  1  0  0  0
 37 38  1  0  0  0
 38 39  1  0  0  0
 39 40  1  0  0  0
 40 42  1  0  0  0
 42 43  1  0  0  0
 42 44  2  0  0  0
 11 12  1  0  0  0
 18 14  1  0  0  0
 12  1  1  0  0  0
  7  3  1  0  0  0
 22 24  1  0  0  0
 22 25  1  0  0  0
 27 28  1  0  0  0
 30 31  1  0  0  0
 19 20  1  0  0  0
 34 36  1  0  0  0
 10 13  1  0  0  0
 40 41  1  0  0  0
 43 45  1  0  0  0
 43 46  1  0  0  0
 44 47  1  0  0  0
M  END
> <minimizedAffinity>
-5.91340

> <CNNscore>
0.2406527698

> <CNNaffinity>
5.3893995285

> <CNN_VS>
1.2969739437

> <CNNaffinity_variance>
0.0135190785

$$$$
[H]N=C(N([H])[H])N([H])C([H])([H])C([H])([H])C([H])([H])[C@]1([H])N([H])C(=O)[C@]2([H])C([H])([H])C([H])([H])[C@]([H])(OC(=O)O[H])[C@@]2([H])OC([H])(c2noc(N([H])C([H])([H])C(N([H])[H])(C([H])([H])O[H])C([H])([H])O[H])n2)C1([H])[H]


 47 49  0  0  0  0  0  0  0  0999 V2000
  154.7469  137.2046  187.2316 C   0  0  0  0  0  0  0  0  0  0  0  0
  153.7428  137.5999  188.1461 O   0  0  0  0  0  0  0  0  0  0  0  0
  153.4304  136.6008  189.0412 C   0  0  0  0  0  0  0  0  0  0  0  0
  153.8401  137.1112  190.4263 C   0  0  0  0  0  0  0  0  0  0  0  0
  152.8346  136.5214  191.3839 C   0  0  0  0  0  0  0  0  0  0  0  0
  151.6358  136.1431  190.5789 C   0  0  0  0  0  0  0  0  0  0  0  0
  151.9542  136.3223  189.1266 C   0  0  0  0  0  0  0  0  0  0  0  0
  155.2047  136.6302  190.6812 C   0  0  0  0  0  0  0  0  0  0  0  0
  155.3916  136.3392  191.8776 O   0  0  0  0  0  0  0  0  0  0  0  0
  156.3486  136.4220  189.8900 N   0  0  0  0  0  0  0  0  0  0  0  0
  156.8116  136.5717  188.5427 C   0  0  0  0  0  0  0  0  0  0  0  0
  156.0937  137.5938  187.7335 C   0  0  0  0  0  0  0  0  0  0  0  0
  157.1215  136.0236  190.4864 H   0  0  0  0  0  0  0  0  0  0  0  0
  154.6667  139.3379  184.2265 C   0  0  0  0  0  0  0  0  0  0  0  0
  155.3009  138.8020  185.3145 N   0  0  0  0  0  0  0  0  0  0  0  0
  154.4768  137.9922  185.9914 C   0  0  0  0  0  0  0  0  0  0  0  0
  153.3214  138.0370  185.3024 N   0  0  0  0  0  0  0  0  0  0  0  0
  153.4535  138.8250  184.2802 O   0  0  0  0  0  0  0  0  0  0  0  0
  155.2378  140.2322  183.2884 N   0  0  0  0  0  0  0  0  0  0  0  0
  155.2629  139.9054  182.2785 H   0  0  0  0  0  0  0  0  0  0  0  0
  155.7833  141.5215  183.5433 C   0  0  0  0  0  0  0  0  0  0  0  0
  157.5705  142.9366  182.6918 N   0  0  0  0  0  0  0  0  0  0  0  0
  157.2592  141.6251  183.3079 C   0  0  0  0  0  0  0  0  0  0  0  0
  156.9829  143.0619  181.8461 H   0  0  0  0  0  0  0  0  0  0  0  0
  157.3593  143.7034  183.3753 H   0  0  0  0  0  0  0  0  0  0  0  0
  158.0326  141.4715  184.5674 C   0  0  0  0  0  0  0  0  0  0  0  0
  157.9651  140.1117  184.9874 O   0  0  0  0  0  0  0  0  0  0  0  0
  157.7313  139.5527  184.1940 H   0  0  0  0  0  0  0  0  0  0  0  0
  157.6923  140.6111  182.2483 C   0  0  0  0  0  0  0  0  0  0  0  0
  159.0507  140.3875  182.3435 O   0  0  0  0  0  0  0  0  0  0  0  0
  159.5602  140.6466  181.5348 H   0  0  0  0  0  0  0  0  0  0  0  0
  151.6554  135.1607  188.3646 O   0  0  0  0  0  0  0  0  0  0  0  0
  151.5770  135.1736  186.9860 C   0  0  0  0  0  0  0  0  0  0  0  0
  152.3816  134.3866  186.1631 O   0  0  0  0  0  0  0  0  0  0  0  0
  150.7473  135.9228  186.4082 O   0  0  0  0  0  0  0  0  0  0  0  0
  152.8422  133.5524  186.4994 H   0  0  0  0  0  0  0  0  0  0  0  0
  156.9018  135.2346  187.8330 C   0  0  0  0  0  0  0  0  0  0  0  0
  158.3474  134.7843  187.7818 C   0  0  0  0  0  0  0  0  0  0  0  0
  158.5161  133.4517  188.4343 C   0  0  0  0  0  0  0  0  0  0  0  0
  159.0665  133.6076  189.7573 N   0  0  0  0  0  0  0  0  0  0  0  0
  160.0132  134.0048  189.8757 H   0  0  0  0  0  0  0  0  0  0  0  0
  158.2590  133.2008  190.8444 C   0  0  0  0  0  0  0  0  0  0  0  0
  158.2636  131.8558  191.2515 N   0  0  0  0  0  0  0  0  0  0  0  0
  157.5331  134.0605  191.4462 N   0  0  0  0  0  0  0  0  0  0  0  0
  158.4033  131.0839  190.5427 H   0  0  0  0  0  0  0  0  0  0  0  0
  158.1317  131.5889  192.2466 H   0  0  0  0  0  0  0  0  0  0  0  0
  157.4673  135.0641  191.2166 H   0  0  0  0  0  0  0  0  0  0  0  0
 22 23  1  0  0  0
 23 26  1  0  0  0
 26 27  1  0  0  0
 23 29  1  0  0  0
 29 30  1  0  0  0
 23 21  1  0  0  0
 21 19  1  0  0  0
 19 14  1  0  0  0
 14 15  2  0  0  0
 15 16  1  0  0  0
 16 17  2  0  0  0
 17 18  1  0  0  0
 16  1  1  0  0  0
  1  2  1  0  0  0
  2  3  1  0  0  0
  3  4  1  0  0  0
  4  5  1  0  0  0
  5  6  1  0  0  0
  6  7  1  0  0  0
  7 32  1  0  0  0
 32 33  1  0  0  0
 33 34  1  0  0  0
 33 35  2  0  0  0
  4  8  1  0  0  0
  8  9  2  0  0  0
  8 10  1  0  0  0
 10 11  1  0  0  0
 11 37  1  0  0  0
 37 38  1  0  0  0
 38 39  1  0  0  0
 39 40  1  0  0  0
 40 42  1  0  0  0
 42 43  1  0  0  0
 42 44  2  0  0  0
 11 12  1  0  0  0
 18 14  1  0  0  0
 12  1  1  0  0  0
  7  3  1  0  0  0
 22 24  1  0  0  0
 22 25  1  0  0  0
 27 28  1  0  0  0
 30 31  1  0  0  0
 19 20  1  0  0  0
 34 36  1  0  0  0
 10 13  1  0  0  0
 40 41  1  0  0  0
 43 45  1  0  0  0
 43 46  1  0  0  0
 44 47  1  0  0  0
M  END
> <minimizedAffinity>
-5.37770

> <CNNscore>
0.2356198132

> <CNNaffinity>
5.4535422325

> <CNN_VS>
1.2849626541

> <CNNaffinity_variance>
0.1275559962

$$$$
[H]N=C(N([H])[H])N([H])C([H])([H])C([H])([H])C([H])([H])[C@]1([H])N([H])C(=O)[C@]2([H])C([H])([H])C([H])([H])[C@]([H])(OC(=O)O[H])[C@@]2([H])OC([H])(c2noc(N([H])C([H])([H])C(N([H])[H])(C([H])([H])O[H])C([H])([H])O[H])n2)C1([H])[H]


 47 49  0  0  0  0  0  0  0  0999 V2000
  154.1777  136.8223  187.3093 C   0  0  0  0  0  0  0  0  0  0  0  0
  153.4404  137.4236  188.3559 O   0  0  0  0  0  0  0  0  0  0  0  0
  153.5972  136.7596  189.5524 C   0  0  0  0  0  0  0  0  0  0  0  0
  154.3044  137.7315  190.5021 C   0  0  0  0  0  0  0  0  0  0  0  0
  153.7569  137.4212  191.8731 C   0  0  0  0  0  0  0  0  0  0  0  0
  152.4608  136.7079  191.6738 C   0  0  0  0  0  0  0  0  0  0  0  0
  152.2906  136.4161  190.2149 C   0  0  0  0  0  0  0  0  0  0  0  0
  155.7460  137.4663  190.4019 C   0  0  0  0  0  0  0  0  0  0  0  0
  156.3328  137.6055  191.4916 O   0  0  0  0  0  0  0  0  0  0  0  0
  156.6174  137.0924  189.3634 N   0  0  0  0  0  0  0  0  0  0  0  0
  156.6196  136.8185  187.9574 C   0  0  0  0  0  0  0  0  0  0  0  0
  155.5194  137.4559  187.1839 C   0  0  0  0  0  0  0  0  0  0  0  0
  157.5924  136.9744  189.7473 H   0  0  0  0  0  0  0  0  0  0  0  0
  152.8259  137.7734  184.0144 C   0  0  0  0  0  0  0  0  0  0  0  0
  153.8513  137.6477  184.9122 N   0  0  0  0  0  0  0  0  0  0  0  0
  153.4100  137.1290  186.0651 C   0  0  0  0  0  0  0  0  0  0  0  0
  152.0931  136.9363  185.8642 N   0  0  0  0  0  0  0  0  0  0  0  0
  151.7744  137.3175  184.6657 O   0  0  0  0  0  0  0  0  0  0  0  0
  152.9325  138.2813  182.6966 N   0  0  0  0  0  0  0  0  0  0  0  0
  153.4616  139.1949  182.5834 H   0  0  0  0  0  0  0  0  0  0  0  0
  152.4113  137.7074  181.5033 C   0  0  0  0  0  0  0  0  0  0  0  0
  150.5450  139.1255  182.1574 N   0  0  0  0  0  0  0  0  0  0  0  0
  151.0818  138.2559  181.0840 C   0  0  0  0  0  0  0  0  0  0  0  0
  150.5382  138.5971  183.0502 H   0  0  0  0  0  0  0  0  0  0  0  0
  151.1567  139.9709  182.2617 H   0  0  0  0  0  0  0  0  0  0  0  0
  151.1764  139.0293  179.8187 C   0  0  0  0  0  0  0  0  0  0  0  0
  152.4642  139.6342  179.7429 O   0  0  0  0  0  0  0  0  0  0  0  0
  153.0800  139.1304  180.3458 H   0  0  0  0  0  0  0  0  0  0  0  0
  150.0576  137.1249  180.9829 C   0  0  0  0  0  0  0  0  0  0  0  0
  149.8892  136.5355  182.2193 O   0  0  0  0  0  0  0  0  0  0  0  0
  150.1463  135.5796  182.2493 H   0  0  0  0  0  0  0  0  0  0  0  0
  151.9922  135.0480  189.9727 O   0  0  0  0  0  0  0  0  0  0  0  0
  151.4424  134.6040  188.7864 C   0  0  0  0  0  0  0  0  0  0  0  0
  150.8098  135.4437  187.8706 O   0  0  0  0  0  0  0  0  0  0  0  0
  151.4968  133.3838  188.4834 O   0  0  0  0  0  0  0  0  0  0  0  0
  150.9747  136.4405  187.8514 H   0  0  0  0  0  0  0  0  0  0  0  0
  156.7328  135.3321  187.6796 C   0  0  0  0  0  0  0  0  0  0  0  0
  157.7126  134.7078  188.6519 C   0  0  0  0  0  0  0  0  0  0  0  0
  157.1497  133.4621  189.2529 C   0  0  0  0  0  0  0  0  0  0  0  0
  156.4136  133.7728  190.4526 N   0  0  0  0  0  0  0  0  0  0  0  0
  156.9028  134.1912  191.2610 H   0  0  0  0  0  0  0  0  0  0  0  0
  155.0296  133.4828  190.4541 C   0  0  0  0  0  0  0  0  0  0  0  0
  154.2815  133.6592  191.6306 N   0  0  0  0  0  0  0  0  0  0  0  0
  154.4728  133.0633  189.3854 N   0  0  0  0  0  0  0  0  0  0  0  0
  154.7274  133.4996  192.5758 H   0  0  0  0  0  0  0  0  0  0  0  0
  153.2840  133.9472  191.6020 H   0  0  0  0  0  0  0  0  0  0  0  0
  154.9419  132.9052  188.4803 H   0  0  0  0  0  0  0  0  0  0  0  0
 22 23  1  0  0  0
 23 26  1  0  0  0
 26 27  1  0  0  0
 23 29  1  0  0  0
 29 30  1  0  0  0
 23 21  1  0  0  0
 21 19  1  0  0  0
 19 14  1  0  0  0
 14 15  2  0  0  0
 15 16  1  0  0  0
 16 17  2  0  0  0
 17 18  1  0  0  0
 16  1  1  0  0  0
  1  2  1  0  0  0
  2  3  1  0  0  0
  3  4  1  0  0  0
  4  5  1  0  0  0
  5  6  1  0  0  0
  6  7  1  0  0  0
  7 32  1  0  0  0
 32 33  1  0  0  0
 33 34  1  0  0  0
 33 35  2  0  0  0
  4  8  1  0  0  0
  8  9  2  0  0  0
  8 10  1  0  0  0
 10 11  1  0  0  0
 11 37  1  0  0  0
 37 38  1  0  0  0
 38 39  1  0  0  0
 39 40  1  0  0  0
 40 42  1  0  0  0
 42 43  1  0  0  0
 42 44  2  0  0  0
 11 12  1  0  0  0
 18 14  1  0  0  0
 12  1  1  0  0  0
  7  3  1  0  0  0
 22 24  1  0  0  0
 22 25  1  0  0  0
 27 28  1  0  0  0
 30 31  1  0  0  0
 19 20  1  0  0  0
 34 36  1  0  0  0
 10 13  1  0  0  0
 40 41  1  0  0  0
 43 45  1  0  0  0
 43 46  1  0  0  0
 44 47  1  0  0  0
M  END
> <minimizedAffinity>
-4.56895

> <CNNscore>
0.2099371552

> <CNNaffinity>
4.9888811111

> <CNN_VS>
1.0473514795

> <CNNaffinity_variance>
0.7592245936

$$$$
[H]N=C(N([H])[H])N([H])C([H])([H])C([H])([H])C([H])([H])[C@]1([H])N([H])C(=O)[C@]2([H])C([H])([H])C([H])([H])[C@]([H])(OC(=O)O[H])[C@@]2([H])OC([H])(c2noc(N([H])C([H])([H])C(N([H])[H])(C([H])([H])O[H])C([H])([H])O[H])n2)C1([H])[H]


 47 49  0  0  0  0  0  0  0  0999 V2000
  154.5537  137.3304  188.3157 C   0  0  0  0  0  0  0  0  0  0  0  0
  153.1619  137.3411  188.5673 O   0  0  0  0  0  0  0  0  0  0  0  0
  152.7571  136.2514  189.3058 C   0  0  0  0  0  0  0  0  0  0  0  0
  152.2435  136.7956  190.6425 C   0  0  0  0  0  0  0  0  0  0  0  0
  151.1225  135.8707  191.0472 C   0  0  0  0  0  0  0  0  0  0  0  0
  150.6649  135.1727  189.8096 C   0  0  0  0  0  0  0  0  0  0  0  0
  151.5982  135.5156  188.6897 C   0  0  0  0  0  0  0  0  0  0  0  0
  153.3677  136.7597  191.5878 C   0  0  0  0  0  0  0  0  0  0  0  0
  153.0064  136.4837  192.7472 O   0  0  0  0  0  0  0  0  0  0  0  0
  154.7556  136.9643  191.4890 N   0  0  0  0  0  0  0  0  0  0  0  0
  155.7624  137.3197  190.5342 C   0  0  0  0  0  0  0  0  0  0  0  0
  155.2802  138.1007  189.3626 C   0  0  0  0  0  0  0  0  0  0  0  0
  155.2031  136.8020  192.4299 H   0  0  0  0  0  0  0  0  0  0  0  0
  155.5734  139.0321  185.2088 C   0  0  0  0  0  0  0  0  0  0  0  0
  155.8508  138.3648  186.3711 N   0  0  0  0  0  0  0  0  0  0  0  0
  154.7213  138.0526  187.0188 C   0  0  0  0  0  0  0  0  0  0  0  0
  153.7402  138.5389  186.2363 N   0  0  0  0  0  0  0  0  0  0  0  0
  154.2573  139.1044  185.1892 O   0  0  0  0  0  0  0  0  0  0  0  0
  156.5267  139.5087  184.2760 N   0  0  0  0  0  0  0  0  0  0  0  0
  157.4421  138.9736  184.2204 H   0  0  0  0  0  0  0  0  0  0  0  0
  156.3993  140.6245  183.4022 C   0  0  0  0  0  0  0  0  0  0  0  0
  157.1378  141.1674  181.1480 N   0  0  0  0  0  0  0  0  0  0  0  0
  157.5908  140.8614  182.5255 C   0  0  0  0  0  0  0  0  0  0  0  0
  156.5003  140.4151  180.8257 H   0  0  0  0  0  0  0  0  0  0  0  0
  156.6230  142.0811  181.1437 H   0  0  0  0  0  0  0  0  0  0  0  0
  158.4361  141.9746  183.0296 C   0  0  0  0  0  0  0  0  0  0  0  0
  158.4021  141.9715  184.4540 O   0  0  0  0  0  0  0  0  0  0  0  0
  158.1271  141.0605  184.7561 H   0  0  0  0  0  0  0  0  0  0  0  0
  158.3904  139.5673  182.3687 C   0  0  0  0  0  0  0  0  0  0  0  0
  159.3324  139.4757  183.3730 O   0  0  0  0  0  0  0  0  0  0  0  0
  160.2681  139.4635  183.0489 H   0  0  0  0  0  0  0  0  0  0  0  0
  152.0837  134.3586  188.0227 O   0  0  0  0  0  0  0  0  0  0  0  0
  152.3298  134.3298  186.6642 C   0  0  0  0  0  0  0  0  0  0  0  0
  152.8000  135.4279  185.9449 O   0  0  0  0  0  0  0  0  0  0  0  0
  152.1304  133.2741  186.0090 O   0  0  0  0  0  0  0  0  0  0  0  0
  153.2769  136.1991  186.3908 H   0  0  0  0  0  0  0  0  0  0  0  0
  156.5899  136.1172  190.1235 C   0  0  0  0  0  0  0  0  0  0  0  0
  156.7251  135.1698  191.2980 C   0  0  0  0  0  0  0  0  0  0  0  0
  157.3826  133.8947  190.8839 C   0  0  0  0  0  0  0  0  0  0  0  0
  157.8637  133.9959  189.5290 N   0  0  0  0  0  0  0  0  0  0  0  0
  157.3228  134.5329  188.8311 H   0  0  0  0  0  0  0  0  0  0  0  0
  159.0794  133.3409  189.2250 C   0  0  0  0  0  0  0  0  0  0  0  0
  159.7793  133.6780  188.0539 N   0  0  0  0  0  0  0  0  0  0  0  0
  159.5298  132.4488  190.0184 N   0  0  0  0  0  0  0  0  0  0  0  0
  159.2549  133.9768  187.1859 H   0  0  0  0  0  0  0  0  0  0  0  0
  160.8164  133.6426  188.0116 H   0  0  0  0  0  0  0  0  0  0  0  0
  159.0849  132.1389  190.8961 H   0  0  0  0  0  0  0  0  0  0  0  0
 22 23  1  0  0  0
 23 26  1  0  0  0
 26 27  1  0  0  0
 23 29  1  0  0  0
 29 30  1  0  0  0
 23 21  1  0  0  0
 21 19  1  0  0  0
 19 14  1  0  0  0
 14 15  2  0  0  0
 15 16  1  0  0  0
 16 17  2  0  0  0
 17 18  1  0  0  0
 16  1  1  0  0  0
  1  2  1  0  0  0
  2  3  1  0  0  0
  3  4  1  0  0  0
  4  5  1  0  0  0
  5  6  1  0  0  0
  6  7  1  0  0  0
  7 32  1  0  0  0
 32 33  1  0  0  0
 33 34  1  0  0  0
 33 35  2  0  0  0
  4  8  1  0  0  0
  8  9  2  0  0  0
  8 10  1  0  0  0
 10 11  1  0  0  0
 11 37  1  0  0  0
 37 38  1  0  0  0
 38 39  1  0  0  0
 39 40  1  0  0  0
 40 42  1  0  0  0
 42 43  1  0  0  0
 42 44  2  0  0  0
 11 12  1  0  0  0
 18 14  1  0  0  0
 12  1  1  0  0  0
  7  3  1  0  0  0
 22 24  1  0  0  0
 22 25  1  0  0  0
 27 28  1  0  0  0
 30 31  1  0  0  0
 19 20  1  0  0  0
 34 36  1  0  0  0
 10 13  1  0  0  0
 40 41  1  0  0  0
 43 45  1  0  0  0
 43 46  1  0  0  0
 44 47  1  0  0  0
M  END
> <minimizedAffinity>
-5.82261

> <CNNscore>
0.1975804269

> <CNNaffinity>
5.4364042282

> <CNN_VS>
1.0741270781

> <CNNaffinity_variance>
0.0697178692

$$$$
[H]N=C(N([H])[H])N([H])C([H])([H])C([H])([H])C([H])([H])[C@]1([H])N([H])C(=O)[C@]2([H])C([H])([H])C([H])([H])[C@]([H])(OC(=O)O[H])[C@@]2([H])OC([H])(c2noc(N([H])C([H])([H])C(N([H])[H])(C([H])([H])O[H])C([H])([H])O[H])n2)C1([H])[H]


 47 49  0  0  0  0  0  0  0  0999 V2000
  157.1711  140.1819  184.4428 C   0  0  0  0  0  0  0  0  0  0  0  0
  156.9442  140.1739  183.0466 O   0  0  0  0  0  0  0  0  0  0  0  0
  157.3365  141.3504  182.4479 C   0  0  0  0  0  0  0  0  0  0  0  0
  158.4911  140.9973  181.5052 C   0  0  0  0  0  0  0  0  0  0  0  0
  158.3588  141.9436  180.3378 C   0  0  0  0  0  0  0  0  0  0  0  0
  156.9508  142.4393  180.3360 C   0  0  0  0  0  0  0  0  0  0  0  0
  156.2686  141.9580  181.5792 C   0  0  0  0  0  0  0  0  0  0  0  0
  159.7402  141.2004  182.2516 C   0  0  0  0  0  0  0  0  0  0  0  0
  160.6593  141.6358  181.5328 O   0  0  0  0  0  0  0  0  0  0  0  0
  160.1399  141.0181  183.5876 N   0  0  0  0  0  0  0  0  0  0  0  0
  159.6378  140.5505  184.8450 C   0  0  0  0  0  0  0  0  0  0  0  0
  158.5016  139.5932  184.7596 C   0  0  0  0  0  0  0  0  0  0  0  0
  161.1412  141.3288  183.7010 H   0  0  0  0  0  0  0  0  0  0  0  0
  154.2796  138.0740  185.3283 C   0  0  0  0  0  0  0  0  0  0  0  0
  154.9497  138.9180  184.4846 N   0  0  0  0  0  0  0  0  0  0  0  0
  156.1255  139.2803  185.0131 C   0  0  0  0  0  0  0  0  0  0  0  0
  156.1705  138.6452  186.1989 N   0  0  0  0  0  0  0  0  0  0  0  0
  155.0876  137.9494  186.3624 O   0  0  0  0  0  0  0  0  0  0  0  0
  153.0100  137.4940  185.0882 N   0  0  0  0  0  0  0  0  0  0  0  0
  152.2320  138.1592  184.8063 H   0  0  0  0  0  0  0  0  0  0  0  0
  152.6554  136.1190  185.1811 C   0  0  0  0  0  0  0  0  0  0  0  0
  150.7182  134.6509  185.0649 N   0  0  0  0  0  0  0  0  0  0  0  0
  151.2709  135.8720  185.6974 C   0  0  0  0  0  0  0  0  0  0  0  0
  150.7910  134.7404  184.0340 H   0  0  0  0  0  0  0  0  0  0  0  0
  151.2682  133.8148  185.3782 H   0  0  0  0  0  0  0  0  0  0  0  0
  151.2506  135.7189  187.1753 C   0  0  0  0  0  0  0  0  0  0  0  0
  151.9807  136.7934  187.7606 O   0  0  0  0  0  0  0  0  0  0  0  0
  152.0208  137.5390  187.0979 H   0  0  0  0  0  0  0  0  0  0  0  0
  150.3317  136.9840  185.2286 C   0  0  0  0  0  0  0  0  0  0  0  0
  149.4981  137.3581  186.2628 O   0  0  0  0  0  0  0  0  0  0  0  0
  148.5367  137.2029  186.0828 H   0  0  0  0  0  0  0  0  0  0  0  0
  155.6379  143.0153  182.2887 O   0  0  0  0  0  0  0  0  0  0  0  0
  154.4414  142.8535  182.9587 C   0  0  0  0  0  0  0  0  0  0  0  0
  154.1571  141.7556  183.7699 O   0  0  0  0  0  0  0  0  0  0  0  0
  153.5373  143.7226  182.8546 O   0  0  0  0  0  0  0  0  0  0  0  0
  154.8844  141.1774  184.1671 H   0  0  0  0  0  0  0  0  0  0  0  0
  159.3529  141.6993  185.7929 C   0  0  0  0  0  0  0  0  0  0  0  0
  159.7268  143.0089  185.1293 C   0  0  0  0  0  0  0  0  0  0  0  0
  160.8969  143.6390  185.8103 C   0  0  0  0  0  0  0  0  0  0  0  0
  161.2313  142.9107  187.0083 N   0  0  0  0  0  0  0  0  0  0  0  0
  160.4870  142.6556  187.6784 H   0  0  0  0  0  0  0  0  0  0  0  0
  162.5914  142.5761  187.2020 C   0  0  0  0  0  0  0  0  0  0  0  0
  163.4304  142.3954  186.0892 N   0  0  0  0  0  0  0  0  0  0  0  0
  163.0444  142.4415  188.3873 N   0  0  0  0  0  0  0  0  0  0  0  0
  163.0435  142.0024  185.1871 H   0  0  0  0  0  0  0  0  0  0  0  0
  164.4391  142.6401  186.1239 H   0  0  0  0  0  0  0  0  0  0  0  0
  162.5035  142.5548  189.2585 H   0  0  0  0  0  0  0  0  0  0  0  0
 22 23  1  0  0  0
 23 26  1  0  0  0
 26 27  1  0  0  0
 23 29  1  0  0  0
 29 30  1  0  0  0
 23 21  1  0  0  0
 21 19  1  0  0  0
 19 14  1  0  0  0
 14 15  2  0  0  0
 15 16  1  0  0  0
 16 17  2  0  0  0
 17 18  1  0  0  0
 16  1  1  0  0  0
  1  2  1  0  0  0
  2  3  1  0  0  0
  3  4  1  0  0  0
  4  5  1  0  0  0
  5  6  1  0  0  0
  6  7  1  0  0  0
  7 32  1  0  0  0
 32 33  1  0  0  0
 33 34  1  0  0  0
 33 35  2  0  0  0
  4  8  1  0  0  0
  8  9  2  0  0  0
  8 10  1  0  0  0
 10 11  1  0  0  0
 11 37  1  0  0  0
 37 38  1  0  0  0
 38 39  1  0  0  0
 39 40  1  0  0  0
 40 42  1  0  0  0
 42 43  1  0  0  0
 42 44  2  0  0  0
 11 12  1  0  0  0
 18 14  1  0  0  0
 12  1  1  0  0  0
  7  3  1  0  0  0
 22 24  1  0  0  0
 22 25  1  0  0  0
 27 28  1  0  0  0
 30 31  1  0  0  0
 19 20  1  0  0  0
 34 36  1  0  0  0
 10 13  1  0  0  0
 40 41  1  0  0  0
 43 45  1  0  0  0
 43 46  1  0  0  0
 44 47  1  0  0  0
M  END
> <minimizedAffinity>
-5.42956

> <CNNscore>
0.1929332018

> <CNNaffinity>
6.0316338539

> <CNN_VS>
1.1637024879

> <CNNaffinity_variance>
0.2770540714

$$$$
[H]N=C(N([H])[H])N([H])C([H])([H])C([H])([H])C([H])([H])[C@]1([H])N([H])C(=O)[C@]2([H])C([H])([H])C([H])([H])[C@]([H])(OC(=O)O[H])[C@@]2([H])OC([H])(c2noc(N([H])C([H])([H])C(N([H])[H])(C([H])([H])O[H])C([H])([H])O[H])n2)C1([H])[H]


 47 49  0  0  0  0  0  0  0  0999 V2000
  154.2907  137.9926  185.3963 C   0  0  0  0  0  0  0  0  0  0  0  0
  153.5185  137.6903  184.2504 O   0  0  0  0  0  0  0  0  0  0  0  0
  152.8531  136.4905  184.3719 C   0  0  0  0  0  0  0  0  0  0  0  0
  151.3568  136.8185  184.3712 C   0  0  0  0  0  0  0  0  0  0  0  0
  150.6912  135.6510  183.6860 C   0  0  0  0  0  0  0  0  0  0  0  0
  151.7424  134.9601  182.8823 C   0  0  0  0  0  0  0  0  0  0  0  0
  153.0721  135.5706  183.2014 C   0  0  0  0  0  0  0  0  0  0  0  0
  150.9408  136.9559  185.7736 C   0  0  0  0  0  0  0  0  0  0  0  0
  149.7878  136.5292  185.9725 O   0  0  0  0  0  0  0  0  0  0  0  0
  151.5403  137.4566  186.9431 N   0  0  0  0  0  0  0  0  0  0  0  0
  152.7468  138.0835  187.3940 C   0  0  0  0  0  0  0  0  0  0  0  0
  153.5066  138.8244  186.3506 C   0  0  0  0  0  0  0  0  0  0  0  0
  150.8839  137.3276  187.7582 H   0  0  0  0  0  0  0  0  0  0  0  0
  156.7625  140.0836  183.6339 C   0  0  0  0  0  0  0  0  0  0  0  0
  155.5728  139.4102  183.6991 N   0  0  0  0  0  0  0  0  0  0  0  0
  155.4262  138.8228  184.8934 C   0  0  0  0  0  0  0  0  0  0  0  0
  156.5468  139.1450  185.5658 N   0  0  0  0  0  0  0  0  0  0  0  0
  157.3101  139.8783  184.8154 O   0  0  0  0  0  0  0  0  0  0  0  0
  157.2410  140.8202  182.5229 N   0  0  0  0  0  0  0  0  0  0  0  0
  157.4883  140.2601  181.6554 H   0  0  0  0  0  0  0  0  0  0  0  0
  157.4290  142.2280  182.4342 C   0  0  0  0  0  0  0  0  0  0  0  0
  159.1719  142.4924  180.7567 N   0  0  0  0  0  0  0  0  0  0  0  0
  158.8470  142.6476  182.1944 C   0  0  0  0  0  0  0  0  0  0  0  0
  158.9464  141.5241  180.4607 H   0  0  0  0  0  0  0  0  0  0  0  0
  158.5997  143.1673  180.1938 H   0  0  0  0  0  0  0  0  0  0  0  0
  159.0854  144.0545  182.6088 C   0  0  0  0  0  0  0  0  0  0  0  0
  157.9285  144.8279  182.3030 O   0  0  0  0  0  0  0  0  0  0  0  0
  157.1519  144.2059  182.2206 H   0  0  0  0  0  0  0  0  0  0  0  0
  159.8039  141.6801  182.8922 C   0  0  0  0  0  0  0  0  0  0  0  0
  159.6858  141.8121  184.2607 O   0  0  0  0  0  0  0  0  0  0  0  0
  160.5149  142.1142  184.7103 H   0  0  0  0  0  0  0  0  0  0  0  0
  154.0408  134.5925  183.5537 O   0  0  0  0  0  0  0  0  0  0  0  0
  154.1534  134.0817  184.8317 C   0  0  0  0  0  0  0  0  0  0  0  0
  155.1006  134.5228  185.7550 O   0  0  0  0  0  0  0  0  0  0  0  0
  153.3771  133.1695  185.2174 O   0  0  0  0  0  0  0  0  0  0  0  0
  155.5493  135.4248  185.6765 H   0  0  0  0  0  0  0  0  0  0  0  0
  153.6225  137.1156  188.1658 C   0  0  0  0  0  0  0  0  0  0  0  0
  153.7271  137.5663  189.6085 C   0  0  0  0  0  0  0  0  0  0  0  0
  153.1073  136.5660  190.5277 C   0  0  0  0  0  0  0  0  0  0  0  0
  153.2000  137.0159  191.8939 N   0  0  0  0  0  0  0  0  0  0  0  0
  154.0341  137.5403  192.2060 H   0  0  0  0  0  0  0  0  0  0  0  0
  152.1170  136.7090  192.7496 C   0  0  0  0  0  0  0  0  0  0  0  0
  150.8309  137.1865  192.4454 N   0  0  0  0  0  0  0  0  0  0  0  0
  152.3186  136.0002  193.7914 N   0  0  0  0  0  0  0  0  0  0  0  0
  150.7081  138.1168  191.9584 H   0  0  0  0  0  0  0  0  0  0  0  0
  149.9787  136.6446  192.6881 H   0  0  0  0  0  0  0  0  0  0  0  0
  153.2249  135.6091  194.0914 H   0  0  0  0  0  0  0  0  0  0  0  0
 22 23  1  0  0  0
 23 26  1  0  0  0
 26 27  1  0  0  0
 23 29  1  0  0  0
 29 30  1  0  0  0
 23 21  1  0  0  0
 21 19  1  0  0  0
 19 14  1  0  0  0
 14 15  2  0  0  0
 15 16  1  0  0  0
 16 17  2  0  0  0
 17 18  1  0  0  0
 16  1  1  0  0  0
  1  2  1  0  0  0
  2  3  1  0  0  0
  3  4  1  0  0  0
  4  5  1  0  0  0
  5  6  1  0  0  0
  6  7  1  0  0  0
  7 32  1  0  0  0
 32 33  1  0  0  0
 33 34  1  0  0  0
 33 35  2  0  0  0
  4  8  1  0  0  0
  8  9  2  0  0  0
  8 10  1  0  0  0
 10 11  1  0  0  0
 11 37  1  0  0  0
 37 38  1  0  0  0
 38 39  1  0  0  0
 39 40  1  0  0  0
 40 42  1  0  0  0
 42 43  1  0  0  0
 42 44  2  0  0  0
 11 12  1  0  0  0
 18 14  1  0  0  0
 12  1  1  0  0  0
  7  3  1  0  0  0
 22 24  1  0  0  0
 22 25  1  0  0  0
 27 28  1  0  0  0
 30 31  1  0  0  0
 19 20  1  0  0  0
 34 36  1  0  0  0
 10 13  1  0  0  0
 40 41  1  0  0  0
 43 45  1  0  0  0
 43 46  1  0  0  0
 44 47  1  0  0  0
M  END
> <minimizedAffinity>
-5.41501

> <CNNscore>
0.1531097293

> <CNNaffinity>
5.5628638268

> <CNN_VS>
0.8517285585

> <CNNaffinity_variance>
0.2160392553

$$$$
[H]N=C(N([H])[H])N([H])C([H])([H])C([H])([H])C([H])([H])[C@]1([H])N([H])C(=O)[C@]2([H])C([H])([H])C([H])([H])[C@]([H])(OC(=O)O[H])[C@@]2([H])OC([H])(c2noc(N([H])C([H])([H])C(N([H])[H])(C([H])([H])O[H])C([H])([H])O[H])n2)C1([H])[H]


 47 49  0  0  0  0  0  0  0  0999 V2000
  154.5880  137.9044  185.8197 C   0  0  0  0  0  0  0  0  0  0  0  0
  154.0749  136.9575  184.9027 O   0  0  0  0  0  0  0  0  0  0  0  0
  153.7935  135.7502  185.5028 C   0  0  0  0  0  0  0  0  0  0  0  0
  152.2777  135.5541  185.4006 C   0  0  0  0  0  0  0  0  0  0  0  0
  152.0756  134.0670  185.2476 C   0  0  0  0  0  0  0  0  0  0  0  0
  153.3686  133.4989  184.7640 C   0  0  0  0  0  0  0  0  0  0  0  0
  154.4081  134.5766  184.7893 C   0  0  0  0  0  0  0  0  0  0  0  0
  151.6870  136.0746  186.6411 C   0  0  0  0  0  0  0  0  0  0  0  0
  150.7020  135.4104  187.0149 O   0  0  0  0  0  0  0  0  0  0  0  0
  151.9740  137.1470  187.5044 N   0  0  0  0  0  0  0  0  0  0  0  0
  152.8773  138.2496  187.6465 C   0  0  0  0  0  0  0  0  0  0  0  0
  153.4888  138.7378  186.3805 C   0  0  0  0  0  0  0  0  0  0  0  0
  151.3011  137.1354  188.3161 H   0  0  0  0  0  0  0  0  0  0  0  0
  156.3036  140.0906  183.3978 C   0  0  0  0  0  0  0  0  0  0  0  0
  155.2422  139.3244  183.7974 N   0  0  0  0  0  0  0  0  0  0  0  0
  155.4683  138.7968  185.0072 C   0  0  0  0  0  0  0  0  0  0  0  0
  156.6887  139.2504  185.3485 N   0  0  0  0  0  0  0  0  0  0  0  0
  157.1564  140.0008  184.3990 O   0  0  0  0  0  0  0  0  0  0  0  0
  156.4036  140.7994  182.1757 N   0  0  0  0  0  0  0  0  0  0  0  0
  156.1289  140.2691  181.2978 H   0  0  0  0  0  0  0  0  0  0  0  0
  156.8307  142.1437  181.9876 C   0  0  0  0  0  0  0  0  0  0  0  0
  158.3329  143.5959  180.7402 N   0  0  0  0  0  0  0  0  0  0  0  0
  158.2058  142.2793  181.4087 C   0  0  0  0  0  0  0  0  0  0  0  0
  157.5586  143.7063  180.0586 H   0  0  0  0  0  0  0  0  0  0  0  0
  158.2732  144.3595  181.4566 H   0  0  0  0  0  0  0  0  0  0  0  0
  159.2594  142.1459  182.4480 C   0  0  0  0  0  0  0  0  0  0  0  0
  158.6980  142.4660  183.7179 O   0  0  0  0  0  0  0  0  0  0  0  0
  157.7074  142.3589  183.6554 H   0  0  0  0  0  0  0  0  0  0  0  0
  158.3972  141.2727  180.2736 C   0  0  0  0  0  0  0  0  0  0  0  0
  158.0954  141.8678  179.0657 O   0  0  0  0  0  0  0  0  0  0  0  0
  157.3338  141.4509  178.5893 H   0  0  0  0  0  0  0  0  0  0  0  0
  155.5816  134.1739  185.4822 O   0  0  0  0  0  0  0  0  0  0  0  0
  156.2502  133.0001  185.1958 C   0  0  0  0  0  0  0  0  0  0  0  0
  156.5430  132.0293  186.1528 O   0  0  0  0  0  0  0  0  0  0  0  0
  156.6301  132.7609  184.0202 O   0  0  0  0  0  0  0  0  0  0  0  0
  156.0362  131.9629  187.0245 H   0  0  0  0  0  0  0  0  0  0  0  0
  153.9132  137.9859  188.7221 C   0  0  0  0  0  0  0  0  0  0  0  0
  153.2983  137.1466  189.8233 C   0  0  0  0  0  0  0  0  0  0  0  0
  154.2148  136.0390  190.2271 C   0  0  0  0  0  0  0  0  0  0  0  0
  155.5886  136.4290  190.0320 N   0  0  0  0  0  0  0  0  0  0  0  0
  156.0293  136.3093  189.1048 H   0  0  0  0  0  0  0  0  0  0  0  0
  156.2710  136.9688  191.1465 C   0  0  0  0  0  0  0  0  0  0  0  0
  156.6458  136.1285  192.2087 N   0  0  0  0  0  0  0  0  0  0  0  0
  156.5403  138.2157  191.1768 N   0  0  0  0  0  0  0  0  0  0  0  0
  156.0478  135.2958  192.4673 H   0  0  0  0  0  0  0  0  0  0  0  0
  157.5088  136.3017  192.7600 H   0  0  0  0  0  0  0  0  0  0  0  0
  156.3045  138.9039  190.4453 H   0  0  0  0  0  0  0  0  0  0  0  0
 22 23  1  0  0  0
 23 26  1  0  0  0
 26 27  1  0  0  0
 23 29  1  0  0  0
 29 30  1  0  0  0
 23 21  1  0  0  0
 21 19  1  0  0  0
 19 14  1  0  0  0
 14 15  2  0  0  0
 15 16  1  0  0  0
 16 17  2  0  0  0
 17 18  1  0  0  0
 16  1  1  0  0  0
  1  2  1  0  0  0
  2  3  1  0  0  0
  3  4  1  0  0  0
  4  5  1  0  0  0
  5  6  1  0  0  0
  6  7  1  0  0  0
  7 32  1  0  0  0
 32 33  1  0  0  0
 33 34  1  0  0  0
 33 35  2  0  0  0
  4  8  1  0  0  0
  8  9  2  0  0  0
  8 10  1  0  0  0
 10 11  1  0  0  0
 11 37  1  0  0  0
 37 38  1  0  0  0
 38 39  1  0  0  0
 39 40  1  0  0  0
 40 42  1  0  0  0
 42 43  1  0  0  0
 42 44  2  0  0  0
 11 12  1  0  0  0
 18 14  1  0  0  0
 12  1  1  0  0  0
  7  3  1  0  0  0
 22 24  1  0  0  0
 22 25  1  0  0  0
 27 28  1  0  0  0
 30 31  1  0  0  0
 19 20  1  0  0  0
 34 36  1  0  0  0
 10 13  1  0  0  0
 40 41  1  0  0  0
 43 45  1  0  0  0
 43 46  1  0  0  0
 44 47  1  0  0  0
M  END
> <minimizedAffinity>
-5.93347

> <CNNscore>
0.1512461305

> <CNNaffinity>
5.7552595139

> <CNN_VS>
0.8704607487

> <CNNaffinity_variance>
0.5306335092

$$$$
[H]c1c([H])c([H])c(S(=O)(=O)N([H])C(=O)C([H])([H])[C@@]([H])(C([H])(C([H])([H])[H])C([H])([H])[H])C(C([H])([H])[H])(C([H])([H])[H])C([H])([H])[H])c([H])c1[H]


 22 22  0  0  0  0  0  0  0  0999 V2000
  154.1061  140.1042  183.2374 C   0  0  0  0  0  0  0  0  0  0  0  0
  153.9032  138.7181  183.4901 N   0  0  0  0  0  0  0  0  0  0  0  0
  153.1783  140.6634  182.5972 O   0  0  0  0  0  0  0  0  0  0  0  0
  154.6863  138.2450  184.0375 H   0  0  0  0  0  0  0  0  0  0  0  0
  152.5888  137.7743  183.0291 S   0  0  0  0  0  0  0  0  0  0  0  0
  153.0973  136.4400  182.4945 O   0  0  0  0  0  0  0  0  0  0  0  0
  151.6694  137.4194  184.1599 O   0  0  0  0  0  0  0  0  0  0  0  0
  151.5928  138.4528  181.7757 C   0  0  0  0  0  0  0  0  0  0  0  0
  152.0759  138.7529  180.5263 C   0  0  0  0  0  0  0  0  0  0  0  0
  151.2523  139.2975  179.5408 C   0  0  0  0  0  0  0  0  0  0  0  0
  149.9268  139.5399  179.8252 C   0  0  0  0  0  0  0  0  0  0  0  0
  149.4458  139.2350  181.0865 C   0  0  0  0  0  0  0  0  0  0  0  0
  150.2720  138.6985  182.0465 C   0  0  0  0  0  0  0  0  0  0  0  0
  155.2652  140.8537  183.6566 C   0  0  0  0  0  0  0  0  0  0  0  0
  156.1459  141.5107  182.6315 C   0  0  0  0  0  0  0  0  0  0  0  0
  157.5749  141.0216  182.6321 C   0  0  0  0  0  0  0  0  0  0  0  0
  157.8123  139.6043  183.0637 C   0  0  0  0  0  0  0  0  0  0  0  0
  158.4832  141.8942  183.5064 C   0  0  0  0  0  0  0  0  0  0  0  0
  158.1575  140.9983  181.1983 C   0  0  0  0  0  0  0  0  0  0  0  0
  156.0848  142.9778  183.0092 C   0  0  0  0  0  0  0  0  0  0  0  0
  156.0869  144.0120  181.9931 C   0  0  0  0  0  0  0  0  0  0  0  0
  154.7950  143.1436  183.8357 C   0  0  0  0  0  0  0  0  0  0  0  0
 20 21  1  0  0  0
 20 22  1  0  0  0
 20 15  1  0  0  0
 15 16  1  0  0  0
 16 17  1  0  0  0
 16 18  1  0  0  0
 16 19  1  0  0  0
 15 14  1  0  0  0
 14  1  1  0  0  0
  1  2  1  0  0  0
  2  5  1  0  0  0
  5  6  2  0  0  0
  5  8  1  0  0  0
  8  9  2  0  0  0
  9 10  1  0  0  0
 10 11  2  0  0  0
 11 12  1  0  0  0
 12 13  2  0  0  0
  5  7  2  0  0  0
  1  3  2  0  0  0
 13  8  1  0  0  0
  2  4  1  0  0  0
M  END
> <minimizedAffinity>
-6.33013

> <CNNscore>
0.6348424554

> <CNNaffinity>
5.7194657326

> <CNN_VS>
3.6309597492

> <CNNaffinity_variance>
0.0832071155

$$$$
[H]c1c([H])c([H])c(S(=O)(=O)N([H])C(=O)C([H])([H])[C@@]([H])(C([H])(C([H])([H])[H])C([H])([H])[H])C(C([H])([H])[H])(C([H])([H])[H])C([H])([H])[H])c([H])c1[H]


 22 22  0  0  0  0  0  0  0  0999 V2000
  155.8245  141.5597  183.5602 C   0  0  0  0  0  0  0  0  0  0  0  0
  155.7059  140.1413  183.5426 N   0  0  0  0  0  0  0  0  0  0  0  0
  154.7673  142.1722  183.8608 O   0  0  0  0  0  0  0  0  0  0  0  0
  156.6028  139.6215  183.2935 H   0  0  0  0  0  0  0  0  0  0  0  0
  154.3335  139.2239  183.8685 S   0  0  0  0  0  0  0  0  0  0  0  0
  154.7467  137.7739  184.0958 O   0  0  0  0  0  0  0  0  0  0  0  0
  153.6159  139.6287  185.1219 O   0  0  0  0  0  0  0  0  0  0  0  0
  153.1421  139.1975  182.6024 C   0  0  0  0  0  0  0  0  0  0  0  0
  152.9416  140.2558  181.7513 C   0  0  0  0  0  0  0  0  0  0  0  0
  151.9770  140.2056  180.7449 C   0  0  0  0  0  0  0  0  0  0  0  0
  151.2088  139.0717  180.6002 C   0  0  0  0  0  0  0  0  0  0  0  0
  151.4160  138.0081  181.4611 C   0  0  0  0  0  0  0  0  0  0  0  0
  152.3716  138.0747  182.4483 C   0  0  0  0  0  0  0  0  0  0  0  0
  157.0348  142.2857  183.2620 C   0  0  0  0  0  0  0  0  0  0  0  0
  158.2411  141.5545  182.7440 C   0  0  0  0  0  0  0  0  0  0  0  0
  159.1927  141.0826  183.8178 C   0  0  0  0  0  0  0  0  0  0  0  0
  160.6384  141.4521  183.6608 C   0  0  0  0  0  0  0  0  0  0  0  0
  159.1557  139.5598  183.9932 C   0  0  0  0  0  0  0  0  0  0  0  0
  158.8642  141.7367  185.1816 C   0  0  0  0  0  0  0  0  0  0  0  0
  158.9120  142.5791  181.8504 C   0  0  0  0  0  0  0  0  0  0  0  0
  158.9274  142.4187  180.4095 C   0  0  0  0  0  0  0  0  0  0  0  0
  158.2199  143.9206  182.1594 C   0  0  0  0  0  0  0  0  0  0  0  0
 20 21  1  0  0  0
 20 22  1  0  0  0
 20 15  1  0  0  0
 15 16  1  0  0  0
 16 17  1  0  0  0
 16 18  1  0  0  0
 16 19  1  0  0  0
 15 14  1  0  0  0
 14  1  1  0  0  0
  1  2  1  0  0  0
  2  5  1  0  0  0
  5  6  2  0  0  0
  5  8  1  0  0  0
  8  9  2  0  0  0
  9 10  1  0  0  0
 10 11  2  0  0  0
 11 12  1  0  0  0
 12 13  2  0  0  0
  5  7  2  0  0  0
  1  3  2  0  0  0
 13  8  1  0  0  0
  2  4  1  0  0  0
M  END
> <minimizedAffinity>
-6.79559

> <CNNscore>
0.5834419727

> <CNNaffinity>
5.9951367378

> <CNN_VS>
3.4978144169

> <CNNaffinity_variance>
0.1013349891

$$$$
[H]c1c([H])c([H])c(S(=O)(=O)N([H])C(=O)C([H])([H])[C@@]([H])(C([H])(C([H])([H])[H])C([H])([H])[H])C(C([H])([H])[H])(C([H])([H])[H])C([H])([H])[H])c([H])c1[H]


 22 22  0  0  0  0  0  0  0  0999 V2000
  155.3314  140.1648  183.8288 C   0  0  0  0  0  0  0  0  0  0  0  0
  154.2175  140.0338  182.9522 N   0  0  0  0  0  0  0  0  0  0  0  0
  155.4717  139.2184  184.6461 O   0  0  0  0  0  0  0  0  0  0  0  0
  154.1014  140.8325  182.2557 H   0  0  0  0  0  0  0  0  0  0  0  0
  153.0961  138.7804  182.9010 S   0  0  0  0  0  0  0  0  0  0  0  0
  153.8253  137.4715  182.6182 O   0  0  0  0  0  0  0  0  0  0  0  0
  152.3760  138.5563  184.1976 O   0  0  0  0  0  0  0  0  0  0  0  0
  151.8727  138.9305  181.6747 C   0  0  0  0  0  0  0  0  0  0  0  0
  150.6125  138.4050  181.8170 C   0  0  0  0  0  0  0  0  0  0  0  0
  149.6516  138.5409  180.8149 C   0  0  0  0  0  0  0  0  0  0  0  0
  149.9718  139.2159  179.6579 C   0  0  0  0  0  0  0  0  0  0  0  0
  151.2439  139.7435  179.5207 C   0  0  0  0  0  0  0  0  0  0  0  0
  152.1792  139.6001  180.5190 C   0  0  0  0  0  0  0  0  0  0  0  0
  156.2533  141.2743  183.8240 C   0  0  0  0  0  0  0  0  0  0  0  0
  157.5446  141.1747  183.0620 C   0  0  0  0  0  0  0  0  0  0  0  0
  158.7627  140.9503  183.9264 C   0  0  0  0  0  0  0  0  0  0  0  0
  160.0138  141.6879  183.5497 C   0  0  0  0  0  0  0  0  0  0  0  0
  159.1468  139.4682  184.0088 C   0  0  0  0  0  0  0  0  0  0  0  0
  158.5304  141.4725  185.3649 C   0  0  0  0  0  0  0  0  0  0  0  0
  157.6340  142.5116  182.3524 C   0  0  0  0  0  0  0  0  0  0  0  0
  157.7565  142.5854  180.9096 C   0  0  0  0  0  0  0  0  0  0  0  0
  156.3595  143.2814  182.7486 C   0  0  0  0  0  0  0  0  0  0  0  0
 20 21  1  0  0  0
 20 22  1  0  0  0
 20 15  1  0  0  0
 15 16  1  0  0  0
 16 17  1  0  0  0
 16 18  1  0  0  0
 16 19  1  0  0  0
 15 14  1  0  0  0
 14  1  1  0  0  0
  1  2  1  0  0  0
  2  5  1  0  0  0
  5  6  2  0  0  0
  5  8  1  0  0  0
  8  9  2  0  0  0
  9 10  1  0  0  0
 10 11  2  0  0  0
 11 12  1  0  0  0
 12 13  2  0  0  0
  5  7  2  0  0  0
  1  3  2  0  0  0
 13  8  1  0  0  0
  2  4  1  0  0  0
M  END
> <minimizedAffinity>
-5.92664

> <CNNscore>
0.5490854979

> <CNNaffinity>
5.7321138382

> <CNN_VS>
3.1474206448

> <CNNaffinity_variance>
0.1003451720

$$$$
[H]c1c([H])c([H])c(S(=O)(=O)N([H])C(=O)C([H])([H])[C@@]([H])(C([H])(C([H])([H])[H])C([H])([H])[H])C(C([H])([H])[H])(C([H])([H])[H])C([H])([H])[H])c([H])c1[H]


 22 22  0  0  0  0  0  0  0  0999 V2000
  153.6672  139.9735  182.8682 C   0  0  0  0  0  0  0  0  0  0  0  0
  153.0599  140.2868  181.6195 N   0  0  0  0  0  0  0  0  0  0  0  0
  153.4191  138.8174  183.2984 O   0  0  0  0  0  0  0  0  0  0  0  0
  153.2744  141.2642  181.2517 H   0  0  0  0  0  0  0  0  0  0  0  0
  152.0670  139.2992  180.6868 S   0  0  0  0  0  0  0  0  0  0  0  0
  151.8890  139.9303  179.3103 O   0  0  0  0  0  0  0  0  0  0  0  0
  152.6393  137.9378  180.4234 O   0  0  0  0  0  0  0  0  0  0  0  0
  150.4664  139.0497  181.3183 C   0  0  0  0  0  0  0  0  0  0  0  0
  150.2140  138.2439  182.4007 C   0  0  0  0  0  0  0  0  0  0  0  0
  148.9183  138.0624  182.8845 C   0  0  0  0  0  0  0  0  0  0  0  0
  147.8689  138.7039  182.2648 C   0  0  0  0  0  0  0  0  0  0  0  0
  148.1299  139.5150  181.1743 C   0  0  0  0  0  0  0  0  0  0  0  0
  149.4139  139.6827  180.7103 C   0  0  0  0  0  0  0  0  0  0  0  0
  154.5052  140.8739  183.6219 C   0  0  0  0  0  0  0  0  0  0  0  0
  155.8551  141.2658  183.0908 C   0  0  0  0  0  0  0  0  0  0  0  0
  157.0179  140.6191  183.8055 C   0  0  0  0  0  0  0  0  0  0  0  0
  157.8826  141.5091  184.6489 C   0  0  0  0  0  0  0  0  0  0  0  0
  157.9617  139.8972  182.8364 C   0  0  0  0  0  0  0  0  0  0  0  0
  156.5270  139.5959  184.8580 C   0  0  0  0  0  0  0  0  0  0  0  0
  155.8815  142.7696  183.2827 C   0  0  0  0  0  0  0  0  0  0  0  0
  156.2070  143.6579  182.1841 C   0  0  0  0  0  0  0  0  0  0  0  0
  154.4762  143.1516  183.7860 C   0  0  0  0  0  0  0  0  0  0  0  0
 20 21  1  0  0  0
 20 22  1  0  0  0
 20 15  1  0  0  0
 15 16  1  0  0  0
 16 17  1  0  0  0
 16 18  1  0  0  0
 16 19  1  0  0  0
 15 14  1  0  0  0
 14  1  1  0  0  0
  1  2  1  0  0  0
  2  5  1  0  0  0
  5  6  2  0  0  0
  5  8  1  0  0  0
  8  9  2  0  0  0
  9 10  1  0  0  0
 10 11  2  0  0  0
 11 12  1  0  0  0
 12 13  2  0  0  0
  5  7  2  0  0  0
  1  3  2  0  0  0
 13  8  1  0  0  0
  2  4  1  0  0  0
M  END
> <minimizedAffinity>
-6.74950

> <CNNscore>
0.5294548273

> <CNNaffinity>
5.5385584831

> <CNN_VS>
2.9324164391

> <CNNaffinity_variance>
0.1530987024

$$$$
[H]c1c([H])c([H])c(S(=O)(=O)N([H])C(=O)C([H])([H])[C@@]([H])(C([H])(C([H])([H])[H])C([H])([H])[H])C(C([H])([H])[H])(C([H])([H])[H])C([H])([H])[H])c([H])c1[H]


 22 22  0  0  0  0  0  0  0  0999 V2000
  157.1009  140.5219  183.6613 C   0  0  0  0  0  0  0  0  0  0  0  0
  155.8619  140.3154  182.9916 N   0  0  0  0  0  0  0  0  0  0  0  0
  157.1472  140.0674  184.8337 O   0  0  0  0  0  0  0  0  0  0  0  0
  155.8239  140.6952  181.9962 H   0  0  0  0  0  0  0  0  0  0  0  0
  154.4880  139.5515  183.5916 S   0  0  0  0  0  0  0  0  0  0  0  0
  154.8560  138.1386  184.0310 O   0  0  0  0  0  0  0  0  0  0  0  0
  153.9140  140.2055  184.8134 O   0  0  0  0  0  0  0  0  0  0  0  0
  153.1794  139.3834  182.4590 C   0  0  0  0  0  0  0  0  0  0  0  0
  152.8488  140.3646  181.5578 C   0  0  0  0  0  0  0  0  0  0  0  0
  151.7925  140.2013  180.6613 C   0  0  0  0  0  0  0  0  0  0  0  0
  151.0651  139.0320  180.6791 C   0  0  0  0  0  0  0  0  0  0  0  0
  151.4036  138.0465  181.5899 C   0  0  0  0  0  0  0  0  0  0  0  0
  152.4482  138.2243  182.4669 C   0  0  0  0  0  0  0  0  0  0  0  0
  158.2411  141.1946  183.0884 C   0  0  0  0  0  0  0  0  0  0  0  0
  158.4498  142.6621  183.3354 C   0  0  0  0  0  0  0  0  0  0  0  0
  158.1471  143.5434  182.1468 C   0  0  0  0  0  0  0  0  0  0  0  0
  158.2720  142.9233  180.7863 C   0  0  0  0  0  0  0  0  0  0  0  0
  159.0202  144.8037  182.1256 C   0  0  0  0  0  0  0  0  0  0  0  0
  156.6624  143.9810  182.1399 C   0  0  0  0  0  0  0  0  0  0  0  0
  159.9184  142.7480  183.7021 C   0  0  0  0  0  0  0  0  0  0  0  0
  160.3342  143.0349  185.0611 C   0  0  0  0  0  0  0  0  0  0  0  0
  160.5278  141.3885  183.3089 C   0  0  0  0  0  0  0  0  0  0  0  0
 20 21  1  0  0  0
 20 22  1  0  0  0
 20 15  1  0  0  0
 15 16  1  0  0  0
 16 17  1  0  0  0
 16 18  1  0  0  0
 16 19  1  0  0  0
 15 14  1  0  0  0
 14  1  1  0  0  0
  1  2  1  0  0  0
  2  5  1  0  0  0
  5  6  2  0  0  0
  5  8  1  0  0  0
  8  9  2  0  0  0
  9 10  1  0  0  0
 10 11  2  0  0  0
 11 12  1  0  0  0
 12 13  2  0  0  0
  5  7  2  0  0  0
  1  3  2  0  0  0
 13  8  1  0  0  0
  2  4  1  0  0  0
M  END
> <minimizedAffinity>
-6.69571

> <CNNscore>
0.4951040149

> <CNNaffinity>
5.9897956848

> <CNN_VS>
2.9655718803

> <CNNaffinity_variance>
0.0574462935

$$$$
[H]c1c([H])c([H])c(S(=O)(=O)N([H])C(=O)C([H])([H])[C@@]([H])(C([H])(C([H])([H])[H])C([H])([H])[H])C(C([H])([H])[H])(C([H])([H])[H])C([H])([H])[H])c([H])c1[H]


 22 22  0  0  0  0  0  0  0  0999 V2000
  156.6663  140.4312  183.1761 C   0  0  0  0  0  0  0  0  0  0  0  0
  156.3741  139.6969  184.3601 N   0  0  0  0  0  0  0  0  0  0  0  0
  155.7203  140.4933  182.3487 O   0  0  0  0  0  0  0  0  0  0  0  0
  157.1733  139.6487  185.0640 H   0  0  0  0  0  0  0  0  0  0  0  0
  154.9347  138.9198  184.7546 S   0  0  0  0  0  0  0  0  0  0  0  0
  153.7663  139.8488  184.4438 O   0  0  0  0  0  0  0  0  0  0  0  0
  154.6743  137.6796  183.9521 O   0  0  0  0  0  0  0  0  0  0  0  0
  154.7687  138.4718  186.4264 C   0  0  0  0  0  0  0  0  0  0  0  0
  153.5656  138.5055  187.0866 C   0  0  0  0  0  0  0  0  0  0  0  0
  153.4636  138.1407  188.4292 C   0  0  0  0  0  0  0  0  0  0  0  0
  154.5921  137.7380  189.1082 C   0  0  0  0  0  0  0  0  0  0  0  0
  155.8018  137.7059  188.4369 C   0  0  0  0  0  0  0  0  0  0  0  0
  155.8844  138.0692  187.1128 C   0  0  0  0  0  0  0  0  0  0  0  0
  157.9297  141.0690  182.8969 C   0  0  0  0  0  0  0  0  0  0  0  0
  158.1447  142.5074  183.2746 C   0  0  0  0  0  0  0  0  0  0  0  0
  157.9166  143.4882  182.1488 C   0  0  0  0  0  0  0  0  0  0  0  0
  157.9969  142.9533  180.7492 C   0  0  0  0  0  0  0  0  0  0  0  0
  158.8866  144.6740  182.2111 C   0  0  0  0  0  0  0  0  0  0  0  0
  156.4712  144.0411  182.1743 C   0  0  0  0  0  0  0  0  0  0  0  0
  159.5931  142.5371  183.7218 C   0  0  0  0  0  0  0  0  0  0  0  0
  159.9411  142.5365  185.1293 C   0  0  0  0  0  0  0  0  0  0  0  0
  160.2540  141.3016  183.0810 C   0  0  0  0  0  0  0  0  0  0  0  0
 20 21  1  0  0  0
 20 22  1  0  0  0
 20 15  1  0  0  0
 15 16  1  0  0  0
 16 17  1  0  0  0
 16 18  1  0  0  0
 16 19  1  0  0  0
 15 14  1  0  0  0
 14  1  1  0  0  0
  1  2  1  0  0  0
  2  5  1  0  0  0
  5  6  2  0  0  0
  5  8  1  0  0  0
  8  9  2  0  0  0
  9 10  1  0  0  0
 10 11  2  0  0  0
 11 12  1  0  0  0
 12 13  2  0  0  0
  5  7  2  0  0  0
  1  3  2  0  0  0
 13  8  1  0  0  0
  2  4  1  0  0  0
M  END
> <minimizedAffinity>
-6.92173

> <CNNscore>
0.4944015443

> <CNNaffinity>
5.7659912109

> <CNN_VS>
2.8507149220

> <CNNaffinity_variance>
0.0543761477

$$$$
[H]c1c([H])c([H])c(S(=O)(=O)N([H])C(=O)C([H])([H])[C@@]([H])(C([H])(C([H])([H])[H])C([H])([H])[H])C(C([H])([H])[H])(C([H])([H])[H])C([H])([H])[H])c([H])c1[H]


 22 22  0  0  0  0  0  0  0  0999 V2000
  155.9574  139.7009  184.9718 C   0  0  0  0  0  0  0  0  0  0  0  0
  154.6704  139.1885  185.2994 N   0  0  0  0  0  0  0  0  0  0  0  0
  156.9207  139.0542  185.4590 O   0  0  0  0  0  0  0  0  0  0  0  0
  153.8540  139.7327  184.8822 H   0  0  0  0  0  0  0  0  0  0  0  0
  154.3135  137.8466  186.2496 S   0  0  0  0  0  0  0  0  0  0  0  0
  152.8000  137.7199  186.3834 O   0  0  0  0  0  0  0  0  0  0  0  0
  154.7654  136.5450  185.6567 O   0  0  0  0  0  0  0  0  0  0  0  0
  154.9426  137.8975  187.8698 C   0  0  0  0  0  0  0  0  0  0  0  0
  156.1271  137.3009  188.2239 C   0  0  0  0  0  0  0  0  0  0  0  0
  156.6062  137.3580  189.5328 C   0  0  0  0  0  0  0  0  0  0  0  0
  155.8772  138.0263  190.4912 C   0  0  0  0  0  0  0  0  0  0  0  0
  154.6840  138.6259  190.1279 C   0  0  0  0  0  0  0  0  0  0  0  0
  154.2263  138.5596  188.8324 C   0  0  0  0  0  0  0  0  0  0  0  0
  156.1931  140.8658  184.1542 C   0  0  0  0  0  0  0  0  0  0  0  0
  156.2418  140.7359  182.6579 C   0  0  0  0  0  0  0  0  0  0  0  0
  157.5651  141.1234  182.0414 C   0  0  0  0  0  0  0  0  0  0  0  0
  157.5208  141.8753  180.7437 C   0  0  0  0  0  0  0  0  0  0  0  0
  158.4683  139.9077  181.8021 C   0  0  0  0  0  0  0  0  0  0  0  0
  158.3280  142.1257  182.9409 C   0  0  0  0  0  0  0  0  0  0  0  0
  155.1428  141.6705  182.1916 C   0  0  0  0  0  0  0  0  0  0  0  0
  153.8152  141.1719  181.8903 C   0  0  0  0  0  0  0  0  0  0  0  0
  154.9983  142.7318  183.2992 C   0  0  0  0  0  0  0  0  0  0  0  0
 20 21  1  0  0  0
 20 22  1  0  0  0
 20 15  1  0  0  0
 15 16  1  0  0  0
 16 17  1  0  0  0
 16 18  1  0  0  0
 16 19  1  0  0  0
 15 14  1  0  0  0
 14  1  1  0  0  0
  1  2  1  0  0  0
  2  5  1  0  0  0
  5  6  2  0  0  0
  5  8  1  0  0  0
  8  9  2  0  0  0
  9 10  1  0  0  0
 10 11  2  0  0  0
 11 12  1  0  0  0
 12 13  2  0  0  0
  5  7  2  0  0  0
  1  3  2  0  0  0
 13  8  1  0  0  0
  2  4  1  0  0  0
M  END
> <minimizedAffinity>
-6.47557

> <CNNscore>
0.4528125525

> <CNNaffinity>
5.4848489761

> <CNN_VS>
2.4836084843

> <CNNaffinity_variance>
0.0749172419

$$$$
[H]c1c([H])c([H])c(S(=O)(=O)N([H])C(=O)C([H])([H])[C@@]([H])(C([H])(C([H])([H])[H])C([H])([H])[H])C(C([H])([H])[H])(C([H])([H])[H])C([H])([H])[H])c([H])c1[H]


 22 22  0  0  0  0  0  0  0  0999 V2000
  155.8226  139.3066  184.3473 C   0  0  0  0  0  0  0  0  0  0  0  0
  156.0070  138.9029  185.6998 N   0  0  0  0  0  0  0  0  0  0  0  0
  154.7084  138.9949  183.8526 O   0  0  0  0  0  0  0  0  0  0  0  0
  156.9487  139.1717  186.1213 H   0  0  0  0  0  0  0  0  0  0  0  0
  154.9203  138.0698  186.6775 S   0  0  0  0  0  0  0  0  0  0  0  0
  153.5400  138.7026  186.5390 O   0  0  0  0  0  0  0  0  0  0  0  0
  154.7337  136.6325  186.2907 O   0  0  0  0  0  0  0  0  0  0  0  0
  155.2924  138.0811  188.3759 C   0  0  0  0  0  0  0  0  0  0  0  0
  156.5114  137.6884  188.8701 C   0  0  0  0  0  0  0  0  0  0  0  0
  156.7806  137.7076  190.2387 C   0  0  0  0  0  0  0  0  0  0  0  0
  155.8045  138.1290  191.1141 C   0  0  0  0  0  0  0  0  0  0  0  0
  154.5778  138.5239  190.6096 C   0  0  0  0  0  0  0  0  0  0  0  0
  154.3293  138.4985  189.2570 C   0  0  0  0  0  0  0  0  0  0  0  0
  156.8032  140.0149  183.5613 C   0  0  0  0  0  0  0  0  0  0  0  0
  157.1464  141.4394  183.8946 C   0  0  0  0  0  0  0  0  0  0  0  0
  157.0003  142.4022  182.7401 C   0  0  0  0  0  0  0  0  0  0  0  0
  156.8688  141.8096  181.3680 C   0  0  0  0  0  0  0  0  0  0  0  0
  158.1644  143.3975  182.6678 C   0  0  0  0  0  0  0  0  0  0  0  0
  155.6810  143.2048  182.8461 C   0  0  0  0  0  0  0  0  0  0  0  0
  158.5940  141.3541  184.3373 C   0  0  0  0  0  0  0  0  0  0  0  0
  158.9543  141.4503  185.7383 C   0  0  0  0  0  0  0  0  0  0  0  0
  159.1109  139.9985  183.8184 C   0  0  0  0  0  0  0  0  0  0  0  0
 20 21  1  0  0  0
 20 22  1  0  0  0
 20 15  1  0  0  0
 15 16  1  0  0  0
 16 17  1  0  0  0
 16 18  1  0  0  0
 16 19  1  0  0  0
 15 14  1  0  0  0
 14  1  1  0  0  0
  1  2  1  0  0  0
  2  5  1  0  0  0
  5  6  2  0  0  0
  5  8  1  0  0  0
  8  9  2  0  0  0
  9 10  1  0  0  0
 10 11  2  0  0  0
 11 12  1  0  0  0
 12 13  2  0  0  0
  5  7  2  0  0  0
  1  3  2  0  0  0
 13  8  1  0  0  0
  2  4  1  0  0  0
M  END
> <minimizedAffinity>
-6.92173

> <CNNscore>
0.4402693212

> <CNNaffinity>
5.4525976181

> <CNN_VS>
2.4006114006

> <CNNaffinity_variance>
0.1239489540

$$$$
[H]c1c([H])c([H])c(S(=O)(=O)N([H])C(=O)C([H])([H])[C@@]([H])(C([H])(C([H])([H])[H])C([H])([H])[H])C(C([H])([H])[H])(C([H])([H])[H])C([H])([H])[H])c([H])c1[H]


 22 22  0  0  0  0  0  0  0  0999 V2000
  155.2060  139.0837  184.8153 C   0  0  0  0  0  0  0  0  0  0  0  0
  155.0993  138.7633  186.1981 N   0  0  0  0  0  0  0  0  0  0  0  0
  154.7064  138.2300  184.0374 O   0  0  0  0  0  0  0  0  0  0  0  0
  155.5174  139.4889  186.8579 H   0  0  0  0  0  0  0  0  0  0  0  0
  154.3975  137.3952  186.8815 S   0  0  0  0  0  0  0  0  0  0  0  0
  152.9902  137.2246  186.3201 O   0  0  0  0  0  0  0  0  0  0  0  0
  155.1098  136.1173  186.5502 O   0  0  0  0  0  0  0  0  0  0  0  0
  154.2297  137.4343  188.6116 C   0  0  0  0  0  0  0  0  0  0  0  0
  153.3324  136.6449  189.2871 C   0  0  0  0  0  0  0  0  0  0  0  0
  153.2199  136.6989  190.6765 C   0  0  0  0  0  0  0  0  0  0  0  0
  154.0247  137.5613  191.3872 C   0  0  0  0  0  0  0  0  0  0  0  0
  154.9274  138.3543  190.7004 C   0  0  0  0  0  0  0  0  0  0  0  0
  155.0251  138.2883  189.3300 C   0  0  0  0  0  0  0  0  0  0  0  0
  155.8298  140.2758  184.2949 C   0  0  0  0  0  0  0  0  0  0  0  0
  156.0416  140.4280  182.8151 C   0  0  0  0  0  0  0  0  0  0  0  0
  157.4246  140.8957  182.4282 C   0  0  0  0  0  0  0  0  0  0  0  0
  158.1887  141.6880  183.4479 C   0  0  0  0  0  0  0  0  0  0  0  0
  157.4111  141.7420  181.1497 C   0  0  0  0  0  0  0  0  0  0  0  0
  158.3779  139.6966  182.2068 C   0  0  0  0  0  0  0  0  0  0  0  0
  155.0009  141.4569  182.4186 C   0  0  0  0  0  0  0  0  0  0  0  0
  153.6800  141.0529  181.9781 C   0  0  0  0  0  0  0  0  0  0  0  0
  154.8205  142.3652  183.6501 C   0  0  0  0  0  0  0  0  0  0  0  0
 20 21  1  0  0  0
 20 22  1  0  0  0
 20 15  1  0  0  0
 15 16  1  0  0  0
 16 17  1  0  0  0
 16 18  1  0  0  0
 16 19  1  0  0  0
 15 14  1  0  0  0
 14  1  1  0  0  0
  1  2  1  0  0  0
  2  5  1  0  0  0
  5  6  2  0  0  0
  5  8  1  0  0  0
  8  9  2  0  0  0
  9 10  1  0  0  0
 10 11  2  0  0  0
 11 12  1  0  0  0
 12 13  2  0  0  0
  5  7  2  0  0  0
  1  3  2  0  0  0
 13  8  1  0  0  0
  2  4  1  0  0  0
M  END
> <minimizedAffinity>
-6.10472

> <CNNscore>
0.3889181316

> <CNNaffinity>
5.3184356689

> <CNN_VS>
2.0684361458

> <CNNaffinity_variance>
0.1214562804

$$$$
[H]O[C@@]1([H])C([H])([H])C([H])([H])[C@@]2([H])C3([H])C([H])([H])C([H])([H])C4=C([H])C(=O)C([H])([H])C([H])([H])[C@]4(C([H])([H])[H])C3([H])C([H])([H])C([H])([H])[C@]12C([H])([H])[H]


 22 25  0  0  0  0  0  0  0  0999 V2000
  152.5861  135.6020  193.9067 C   0  0  0  0  0  0  0  0  0  0  0  0
  152.1462  134.8510  192.6994 C   0  0  0  0  0  0  0  0  0  0  0  0
  152.9090  133.6082  192.4811 C   0  0  0  0  0  0  0  0  0  0  0  0
  154.3466  134.0511  192.2719 C   0  0  0  0  0  0  0  0  0  0  0  0
  154.4924  134.8652  191.0076 C   0  0  0  0  0  0  0  0  0  0  0  0
  153.4641  135.9308  190.8370 C   0  0  0  0  0  0  0  0  0  0  0  0
  153.9967  137.3351  191.1300 C   0  0  0  0  0  0  0  0  0  0  0  0
  155.0904  137.5945  190.1501 C   0  0  0  0  0  0  0  0  0  0  0  0
  155.9629  136.4270  189.8877 C   0  0  0  0  0  0  0  0  0  0  0  0
  156.7430  136.4657  188.8194 C   0  0  0  0  0  0  0  0  0  0  0  0
  157.6242  135.3526  188.5044 C   0  0  0  0  0  0  0  0  0  0  0  0
  158.0909  135.1206  187.3679 O   0  0  0  0  0  0  0  0  0  0  0  0
  157.9684  134.4514  189.6462 C   0  0  0  0  0  0  0  0  0  0  0  0
  156.6828  134.0760  190.3018 C   0  0  0  0  0  0  0  0  0  0  0  0
  155.9078  135.2869  190.8406 C   0  0  0  0  0  0  0  0  0  0  0  0
  156.6086  135.6664  192.1119 C   0  0  0  0  0  0  0  0  0  0  0  0
  152.1509  135.6546  191.4256 C   0  0  0  0  0  0  0  0  0  0  0  0
  151.3145  136.8111  191.8376 C   0  0  0  0  0  0  0  0  0  0  0  0
  150.1898  136.1063  192.6143 C   0  0  0  0  0  0  0  0  0  0  0  0
  150.6430  134.6729  192.8144 C   0  0  0  0  0  0  0  0  0  0  0  0
  150.2471  134.1366  194.0065 O   0  0  0  0  0  0  0  0  0  0  0  0
  150.9354  133.6024  194.4697 H   0  0  0  0  0  0  0  0  0  0  0  0
  2  1  1  0  0  0
  2  3  1  0  0  0
  3  4  1  0  0  0
  4  5  1  0  0  0
  5  6  1  0  0  0
  6  7  1  0  0  0
  7  8  1  0  0  0
  8  9  1  0  0  0
  9 10  2  0  0  0
 10 11  1  0  0  0
 11 12  2  0  0  0
 11 13  1  0  0  0
 13 14  1  0  0  0
 14 15  1  0  0  0
 15 16  1  0  0  0
  6 17  1  0  0  0
 17 18  1  0  0  0
 18 19  1  0  0  0
 19 20  1  0  0  0
 20 21  1  0  0  0
 17  2  1  0  0  0
 20  2  1  0  0  0
 15  5  1  0  0  0
 15  9  1  0  0  0
 21 22  1  0  0  0
M  END
> <minimizedAffinity>
-5.78292

> <CNNscore>
0.6314384937

> <CNNaffinity>
5.0864143372

> <CNN_VS>
3.2117578983

> <CNNaffinity_variance>
0.1483775079

$$$$
[H]O[C@@]1([H])C([H])([H])C([H])([H])[C@@]2([H])C3([H])C([H])([H])C([H])([H])C4=C([H])C(=O)C([H])([H])C([H])([H])[C@]4(C([H])([H])[H])C3([H])C([H])([H])C([H])([H])[C@]12C([H])([H])[H]


 22 25  0  0  0  0  0  0  0  0999 V2000
  152.7682  134.5755  193.6062 C   0  0  0  0  0  0  0  0  0  0  0  0
  151.8812  134.7374  192.4222 C   0  0  0  0  0  0  0  0  0  0  0  0
  152.2676  133.8785  191.2878 C   0  0  0  0  0  0  0  0  0  0  0  0
  153.6664  134.3274  190.9027 C   0  0  0  0  0  0  0  0  0  0  0  0
  153.6643  135.7447  190.3795 C   0  0  0  0  0  0  0  0  0  0  0  0
  152.8899  136.7091  191.2114 C   0  0  0  0  0  0  0  0  0  0  0  0
  153.7779  137.6233  192.0585 C   0  0  0  0  0  0  0  0  0  0  0  0
  154.6168  138.4097  191.1090 C   0  0  0  0  0  0  0  0  0  0  0  0
  155.1121  137.6351  189.9482 C   0  0  0  0  0  0  0  0  0  0  0  0
  155.5843  138.3085  188.9114 C   0  0  0  0  0  0  0  0  0  0  0  0
  156.0865  137.6089  187.7396 C   0  0  0  0  0  0  0  0  0  0  0  0
  156.1862  138.1176  186.6018 O   0  0  0  0  0  0  0  0  0  0  0  0
  156.4996  136.1889  187.9564 C   0  0  0  0  0  0  0  0  0  0  0  0
  155.3719  135.5149  188.6620 C   0  0  0  0  0  0  0  0  0  0  0  0
  155.0482  136.1513  190.0212 C   0  0  0  0  0  0  0  0  0  0  0  0
  156.1145  135.6523  190.9512 C   0  0  0  0  0  0  0  0  0  0  0  0
  151.7413  136.1551  191.9334 C   0  0  0  0  0  0  0  0  0  0  0  0
  151.3156  136.8281  193.1873 C   0  0  0  0  0  0  0  0  0  0  0  0
  150.2970  135.8169  193.7395 C   0  0  0  0  0  0  0  0  0  0  0  0
  150.4555  134.5563  192.9115 C   0  0  0  0  0  0  0  0  0  0  0  0
  150.2657  133.4071  193.6249 O   0  0  0  0  0  0  0  0  0  0  0  0
  150.9124  132.6874  193.4312 H   0  0  0  0  0  0  0  0  0  0  0  0
  2  1  1  0  0  0
  2  3  1  0  0  0
  3  4  1  0  0  0
  4  5  1  0  0  0
  5  6  1  0  0  0
  6  7  1  0  0  0
  7  8  1  0  0  0
  8  9  1  0  0  0
  9 10  2  0  0  0
 10 11  1  0  0  0
 11 12  2  0  0  0
 11 13  1  0  0  0
 13 14  1  0  0  0
 14 15  1  0  0  0
 15 16  1  0  0  0
  6 17  1  0  0  0
 17 18  1  0  0  0
 18 19  1  0  0  0
 19 20  1  0  0  0
 20 21  1  0  0  0
 17  2  1  0  0  0
 20  2  1  0  0  0
 15  5  1  0  0  0
 15  9  1  0  0  0
 21 22  1  0  0  0
M  END
> <minimizedAffinity>
-6.42758

> <CNNscore>
0.6064692140

> <CNNaffinity>
5.0797033310

> <CNN_VS>
3.0806837082

> <CNNaffinity_variance>
0.1266849935

$$$$
[H]O[C@@]1([H])C([H])([H])C([H])([H])[C@@]2([H])C3([H])C([H])([H])C([H])([H])C4=C([H])C(=O)C([H])([H])C([H])([H])[C@]4(C([H])([H])[H])C3([H])C([H])([H])C([H])([H])[C@]12C([H])([H])[H]


 22 25  0  0  0  0  0  0  0  0999 V2000
  159.7623  134.3669  188.4934 C   0  0  0  0  0  0  0  0  0  0  0  0
  158.6463  133.4273  188.1990 C   0  0  0  0  0  0  0  0  0  0  0  0
  157.7114  133.9401  187.1807 C   0  0  0  0  0  0  0  0  0  0  0  0
  157.1250  135.2081  187.7764 C   0  0  0  0  0  0  0  0  0  0  0  0
  156.2935  134.9064  189.0013 C   0  0  0  0  0  0  0  0  0  0  0  0
  156.9414  133.9827  189.9755 C   0  0  0  0  0  0  0  0  0  0  0  0
  157.4845  134.6978  191.2147 C   0  0  0  0  0  0  0  0  0  0  0  0
  156.3174  135.3317  191.8927 C   0  0  0  0  0  0  0  0  0  0  0  0
  155.3289  135.9335  190.9686 C   0  0  0  0  0  0  0  0  0  0  0  0
  154.1318  136.2279  191.4498 C   0  0  0  0  0  0  0  0  0  0  0  0
  153.1151  136.8212  190.5959 C   0  0  0  0  0  0  0  0  0  0  0  0
  151.8870  136.7803  190.8267 O   0  0  0  0  0  0  0  0  0  0  0  0
  153.6175  137.5159  189.3716 C   0  0  0  0  0  0  0  0  0  0  0  0
  154.5450  136.5688  188.6885 C   0  0  0  0  0  0  0  0  0  0  0  0
  155.7439  136.1691  189.5604 C   0  0  0  0  0  0  0  0  0  0  0  0
  156.6765  137.3431  189.5060 C   0  0  0  0  0  0  0  0  0  0  0  0
  157.8590  132.9918  189.4069 C   0  0  0  0  0  0  0  0  0  0  0  0
  158.9555  132.4815  190.2693 C   0  0  0  0  0  0  0  0  0  0  0  0
  159.8026  131.7034  189.2486 C   0  0  0  0  0  0  0  0  0  0  0  0
  159.2748  132.0830  187.8785 C   0  0  0  0  0  0  0  0  0  0  0  0
  160.2446  132.1495  186.9190 O   0  0  0  0  0  0  0  0  0  0  0  0
  160.1702  132.9200  186.3071 H   0  0  0  0  0  0  0  0  0  0  0  0
  2  1  1  0  0  0
  2  3  1  0  0  0
  3  4  1  0  0  0
  4  5  1  0  0  0
  5  6  1  0  0  0
  6  7  1  0  0  0
  7  8  1  0  0  0
  8  9  1  0  0  0
  9 10  2  0  0  0
 10 11  1  0  0  0
 11 12  2  0  0  0
 11 13  1  0  0  0
 13 14  1  0  0  0
 14 15  1  0  0  0
 15 16  1  0  0  0
  6 17  1  0  0  0
 17 18  1  0  0  0
 18 19  1  0  0  0
 19 20  1  0  0  0
 20 21  1  0  0  0
 17  2  1  0  0  0
 20  2  1  0  0  0
 15  5  1  0  0  0
 15  9  1  0  0  0
 21 22  1  0  0  0
M  END
> <minimizedAffinity>
-6.26833

> <CNNscore>
0.5963537097

> <CNNaffinity>
5.0954046249

> <CNN_VS>
3.0386633873

> <CNNaffinity_variance>
0.1345181316

$$$$
[H]O[C@@]1([H])C([H])([H])C([H])([H])[C@@]2([H])C3([H])C([H])([H])C([H])([H])C4=C([H])C(=O)C([H])([H])C([H])([H])[C@]4(C([H])([H])[H])C3([H])C([H])([H])C([H])([H])[C@]12C([H])([H])[H]


 22 25  0  0  0  0  0  0  0  0999 V2000
  158.9069  134.6357  189.0651 C   0  0  0  0  0  0  0  0  0  0  0  0
  157.7403  133.7116  189.0636 C   0  0  0  0  0  0  0  0  0  0  0  0
  157.2056  133.4568  187.7133 C   0  0  0  0  0  0  0  0  0  0  0  0
  156.7444  134.8105  187.2022 C   0  0  0  0  0  0  0  0  0  0  0  0
  155.5918  135.3436  188.0207 C   0  0  0  0  0  0  0  0  0  0  0  0
  155.7860  135.2496  189.4956 C   0  0  0  0  0  0  0  0  0  0  0  0
  156.1300  136.5918  190.1451 C   0  0  0  0  0  0  0  0  0  0  0  0
  154.9752  137.5011  189.8933 C   0  0  0  0  0  0  0  0  0  0  0  0
  154.3833  137.3743  188.5418 C   0  0  0  0  0  0  0  0  0  0  0  0
  153.1838  137.8958  188.3405 C   0  0  0  0  0  0  0  0  0  0  0  0
  152.5459  137.8065  187.0367 C   0  0  0  0  0  0  0  0  0  0  0  0
  151.3149  137.9097  186.8439 O   0  0  0  0  0  0  0  0  0  0  0  0
  153.4618  137.5753  185.8783 C   0  0  0  0  0  0  0  0  0  0  0  0
  154.3302  136.4181  186.2396 C   0  0  0  0  0  0  0  0  0  0  0  0
  155.1737  136.6703  187.4974 C   0  0  0  0  0  0  0  0  0  0  0  0
  156.2983  137.5541  187.0441 C   0  0  0  0  0  0  0  0  0  0  0  0
  156.6081  134.1306  189.9641 C   0  0  0  0  0  0  0  0  0  0  0  0
  157.3354  134.2903  191.2494 C   0  0  0  0  0  0  0  0  0  0  0  0
  158.2443  133.0498  191.2358 C   0  0  0  0  0  0  0  0  0  0  0  0
  158.1580  132.4731  189.8358 C   0  0  0  0  0  0  0  0  0  0  0  0
  159.3305  131.9268  189.3973 O   0  0  0  0  0  0  0  0  0  0  0  0
  159.5608  132.1363  188.4610 H   0  0  0  0  0  0  0  0  0  0  0  0
  2  1  1  0  0  0
  2  3  1  0  0  0
  3  4  1  0  0  0
  4  5  1  0  0  0
  5  6  1  0  0  0
  6  7  1  0  0  0
  7  8  1  0  0  0
  8  9  1  0  0  0
  9 10  2  0  0  0
 10 11  1  0  0  0
 11 12  2  0  0  0
 11 13  1  0  0  0
 13 14  1  0  0  0
 14 15  1  0  0  0
 15 16  1  0  0  0
  6 17  1  0  0  0
 17 18  1  0  0  0
 18 19  1  0  0  0
 19 20  1  0  0  0
 20 21  1  0  0  0
 17  2  1  0  0  0
 20  2  1  0  0  0
 15  5  1  0  0  0
 15  9  1  0  0  0
 21 22  1  0  0  0
M  END
> <minimizedAffinity>
-5.19631

> <CNNscore>
0.5520013571

> <CNNaffinity>
5.0788025856

> <CNN_VS>
2.8035058975

> <CNNaffinity_variance>
0.2202764750

$$$$
[H]O[C@@]1([H])C([H])([H])C([H])([H])[C@@]2([H])C3([H])C([H])([H])C([H])([H])C4=C([H])C(=O)C([H])([H])C([H])([H])[C@]4(C([H])([H])[H])C3([H])C([H])([H])C([H])([H])[C@]12C([H])([H])[H]


 22 25  0  0  0  0  0  0  0  0999 V2000
  154.0693  137.7272  188.9404 C   0  0  0  0  0  0  0  0  0  0  0  0
  154.7627  136.5999  189.6210 C   0  0  0  0  0  0  0  0  0  0  0  0
  154.1929  135.2823  189.2847 C   0  0  0  0  0  0  0  0  0  0  0  0
  152.7570  135.3284  189.7774 C   0  0  0  0  0  0  0  0  0  0  0  0
  152.6959  135.4448  191.2825 C   0  0  0  0  0  0  0  0  0  0  0  0
  153.6031  136.4772  191.8596 C   0  0  0  0  0  0  0  0  0  0  0  0
  152.8701  137.7474  192.2968 C   0  0  0  0  0  0  0  0  0  0  0  0
  151.9036  137.3436  193.3582 C   0  0  0  0  0  0  0  0  0  0  0  0
  151.2231  136.0532  193.1037 C   0  0  0  0  0  0  0  0  0  0  0  0
  150.6037  135.4702  194.1175 C   0  0  0  0  0  0  0  0  0  0  0  0
  149.9157  134.2020  193.9355 C   0  0  0  0  0  0  0  0  0  0  0  0
  149.6463  133.4052  194.8605 O   0  0  0  0  0  0  0  0  0  0  0  0
  149.5231  133.8699  192.5320 C   0  0  0  0  0  0  0  0  0  0  0  0
  150.7383  134.0585  191.6884 C   0  0  0  0  0  0  0  0  0  0  0  0
  151.2784  135.4952  191.7265 C   0  0  0  0  0  0  0  0  0  0  0  0
  150.3639  136.2813  190.8339 C   0  0  0  0  0  0  0  0  0  0  0  0
  154.8429  136.7271  191.1196 C   0  0  0  0  0  0  0  0  0  0  0  0
  155.4679  138.0693  191.2397 C   0  0  0  0  0  0  0  0  0  0  0  0
  156.5470  137.9967  190.1465 C   0  0  0  0  0  0  0  0  0  0  0  0
  156.2448  136.7544  189.3307 C   0  0  0  0  0  0  0  0  0  0  0  0
  156.5287  136.8916  188.0017 O   0  0  0  0  0  0  0  0  0  0  0  0
  155.8504  136.5150  187.3920 H   0  0  0  0  0  0  0  0  0  0  0  0
  2  1  1  0  0  0
  2  3  1  0  0  0
  3  4  1  0  0  0
  4  5  1  0  0  0
  5  6  1  0  0  0
  6  7  1  0  0  0
  7  8  1  0  0  0
  8  9  1  0  0  0
  9 10  2  0  0  0
 10 11  1  0  0  0
 11 12  2  0  0  0
 11 13  1  0  0  0
 13 14  1  0  0  0
 14 15  1  0  0  0
 15 16  1  0  0  0
  6 17  1  0  0  0
 17 18  1  0  0  0
 18 19  1  0  0  0
 19 20  1  0  0  0
 20 21  1  0  0  0
 17  2  1  0  0  0
 20  2  1  0  0  0
 15  5  1  0  0  0
 15  9  1  0  0  0
 21 22  1  0  0  0
M  END
> <minimizedAffinity>
-6.50270

> <CNNscore>
0.4711630046

> <CNNaffinity>
4.9465627670

> <CNN_VS>
2.3306374550

> <CNNaffinity_variance>
0.0581276901

$$$$
[H]O[C@@]1([H])C([H])([H])C([H])([H])[C@@]2([H])C3([H])C([H])([H])C([H])([H])C4=C([H])C(=O)C([H])([H])C([H])([H])[C@]4(C([H])([H])[H])C3([H])C([H])([H])C([H])([H])[C@]12C([H])([H])[H]


 22 25  0  0  0  0  0  0  0  0999 V2000
  156.2071  134.9065  188.0048 C   0  0  0  0  0  0  0  0  0  0  0  0
  155.9884  133.8405  189.0201 C   0  0  0  0  0  0  0  0  0  0  0  0
  154.7201  133.1129  188.8313 C   0  0  0  0  0  0  0  0  0  0  0  0
  153.6299  134.1580  188.9922 C   0  0  0  0  0  0  0  0  0  0  0  0
  153.5980  134.7068  190.3994 C   0  0  0  0  0  0  0  0  0  0  0  0
  154.9324  135.0859  190.9450 C   0  0  0  0  0  0  0  0  0  0  0  0
  155.1681  136.5978  190.9651 C   0  0  0  0  0  0  0  0  0  0  0  0
  154.1265  137.1846  191.8564 C   0  0  0  0  0  0  0  0  0  0  0  0
  152.7876  136.5674  191.7175 C   0  0  0  0  0  0  0  0  0  0  0  0
  151.8989  136.7969  192.6709 C   0  0  0  0  0  0  0  0  0  0  0  0
  150.5656  136.2212  192.5955 C   0  0  0  0  0  0  0  0  0  0  0  0
  149.8115  136.0544  193.5786 O   0  0  0  0  0  0  0  0  0  0  0  0
  150.1074  135.8163  191.2316 C   0  0  0  0  0  0  0  0  0  0  0  0
  151.1929  134.9803  190.6427 C   0  0  0  0  0  0  0  0  0  0  0  0
  152.5267  135.7303  190.5166 C   0  0  0  0  0  0  0  0  0  0  0  0
  152.3655  136.6170  189.3172 C   0  0  0  0  0  0  0  0  0  0  0  0
  156.0720  134.3098  190.4489 C   0  0  0  0  0  0  0  0  0  0  0  0
  157.4070  134.9612  190.4373 C   0  0  0  0  0  0  0  0  0  0  0  0
  158.2306  133.9432  189.6309 C   0  0  0  0  0  0  0  0  0  0  0  0
  157.2346  132.9735  189.0244 C   0  0  0  0  0  0  0  0  0  0  0  0
  157.5928  132.5276  187.7841 O   0  0  0  0  0  0  0  0  0  0  0  0
  156.8558  132.4873  187.1293 H   0  0  0  0  0  0  0  0  0  0  0  0
  2  1  1  0  0  0
  2  3  1  0  0  0
  3  4  1  0  0  0
  4  5  1  0  0  0
  5  6  1  0  0  0
  6  7  1  0  0  0
  7  8  1  0  0  0
  8  9  1  0  0  0
  9 10  2  0  0  0
 10 11  1  0  0  0
 11 12  2  0  0  0
 11 13  1  0  0  0
 13 14  1  0  0  0
 14 15  1  0  0  0
 15 16  1  0  0  0
  6 17  1  0  0  0
 17 18  1  0  0  0
 18 19  1  0  0  0
 19 20  1  0  0  0
 20 21  1  0  0  0
 17  2  1  0  0  0
 20  2  1  0  0  0
 15  5  1  0  0  0
 15  9  1  0  0  0
 21 22  1  0  0  0
M  END
> <minimizedAffinity>
-5.46856

> <CNNscore>
0.4343655407

> <CNNaffinity>
5.0132932663

> <CNN_VS>
2.1776018143

> <CNNaffinity_variance>
0.2720094025

$$$$
[H]O[C@@]1([H])C([H])([H])C([H])([H])[C@@]2([H])C3([H])C([H])([H])C([H])([H])C4=C([H])C(=O)C([H])([H])C([H])([H])[C@]4(C([H])([H])[H])C3([H])C([H])([H])C([H])([H])[C@]12C([H])([H])[H]


 22 25  0  0  0  0  0  0  0  0999 V2000
  153.4336  135.3560  192.5522 C   0  0  0  0  0  0  0  0  0  0  0  0
  153.0553  134.5743  191.3436 C   0  0  0  0  0  0  0  0  0  0  0  0
  153.5155  133.1744  191.3924 C   0  0  0  0  0  0  0  0  0  0  0  0
  155.0308  133.2520  191.4573 C   0  0  0  0  0  0  0  0  0  0  0  0
  155.6056  133.8429  190.1912 C   0  0  0  0  0  0  0  0  0  0  0  0
  154.9217  135.0814  189.7216 C   0  0  0  0  0  0  0  0  0  0  0  0
  155.7195  136.3557  190.0068 C   0  0  0  0  0  0  0  0  0  0  0  0
  157.0062  136.2343  189.2629 C   0  0  0  0  0  0  0  0  0  0  0  0
  157.5975  134.8767  189.2860 C   0  0  0  0  0  0  0  0  0  0  0  0
  158.5481  134.6012  188.4074 C   0  0  0  0  0  0  0  0  0  0  0  0
  159.1708  133.2875  188.3767 C   0  0  0  0  0  0  0  0  0  0  0  0
  159.7693  132.8123  187.3871 O   0  0  0  0  0  0  0  0  0  0  0  0
  159.0635  132.4865  189.6341 C   0  0  0  0  0  0  0  0  0  0  0  0
  157.6261  132.4973  190.0308 C   0  0  0  0  0  0  0  0  0  0  0  0
  157.0867  133.9105  190.2942 C   0  0  0  0  0  0  0  0  0  0  0  0
  157.6098  134.2829  191.6502 C   0  0  0  0  0  0  0  0  0  0  0  0
  153.4950  135.1857  190.0392 C   0  0  0  0  0  0  0  0  0  0  0  0
  152.9075  136.5437  190.1704 C   0  0  0  0  0  0  0  0  0  0  0  0
  151.5195  136.2158  190.7457 C   0  0  0  0  0  0  0  0  0  0  0  0
  151.5602  134.7552  191.1517 C   0  0  0  0  0  0  0  0  0  0  0  0
  150.8295  134.4795  192.2722 O   0  0  0  0  0  0  0  0  0  0  0  0
  151.2663  133.8684  192.9121 H   0  0  0  0  0  0  0  0  0  0  0  0
  2  1  1  0  0  0
  2  3  1  0  0  0
  3  4  1  0  0  0
  4  5  1  0  0  0
  5  6  1  0  0  0
  6  7  1  0  0  0
  7  8  1  0  0  0
  8  9  1  0  0  0
  9 10  2  0  0  0
 10 11  1  0  0  0
 11 12  2  0  0  0
 11 13  1  0  0  0
 13 14  1  0  0  0
 14 15  1  0  0  0
 15 16  1  0  0  0
  6 17  1  0  0  0
 17 18  1  0  0  0
 18 19  1  0  0  0
 19 20  1  0  0  0
 20 21  1  0  0  0
 17  2  1  0  0  0
 20  2  1  0  0  0
 15  5  1  0  0  0
 15  9  1  0  0  0
 21 22  1  0  0  0
M  END
> <minimizedAffinity>
-5.19464

> <CNNscore>
0.4217699468

> <CNNaffinity>
4.9467763901

> <CNN_VS>
2.0864017010

> <CNNaffinity_variance>
0.1084421277

$$$$
[H]O[C@@]1([H])C([H])([H])C([H])([H])[C@@]2([H])C3([H])C([H])([H])C([H])([H])C4=C([H])C(=O)C([H])([H])C([H])([H])[C@]4(C([H])([H])[H])C3([H])C([H])([H])C([H])([H])[C@]12C([H])([H])[H]


 22 25  0  0  0  0  0  0  0  0999 V2000
  152.8369  138.3650  187.2580 C   0  0  0  0  0  0  0  0  0  0  0  0
  152.3809  136.9708  187.5093 C   0  0  0  0  0  0  0  0  0  0  0  0
  152.0743  136.7089  188.9275 C   0  0  0  0  0  0  0  0  0  0  0  0
  153.3828  136.9252  189.6676 C   0  0  0  0  0  0  0  0  0  0  0  0
  154.4189  135.9031  189.2624 C   0  0  0  0  0  0  0  0  0  0  0  0
  154.5430  135.6991  187.7910 C   0  0  0  0  0  0  0  0  0  0  0  0
  155.7852  136.3633  187.1930 C   0  0  0  0  0  0  0  0  0  0  0  0
  156.9681  135.7298  187.8435 C   0  0  0  0  0  0  0  0  0  0  0  0
  156.7987  135.4652  189.2907 C   0  0  0  0  0  0  0  0  0  0  0  0
  157.6489  134.6335  189.8710 C   0  0  0  0  0  0  0  0  0  0  0  0
  157.5386  134.3308  191.2891 C   0  0  0  0  0  0  0  0  0  0  0  0
  158.0154  133.3111  191.8330 O   0  0  0  0  0  0  0  0  0  0  0  0
  156.7973  135.3336  192.1131 C   0  0  0  0  0  0  0  0  0  0  0  0
  155.5036  135.5914  191.4176 C   0  0  0  0  0  0  0  0  0  0  0  0
  155.6856  136.1506  189.9994 C   0  0  0  0  0  0  0  0  0  0  0  0
  156.0334  137.5976  190.1906 C   0  0  0  0  0  0  0  0  0  0  0  0
  153.3205  135.9049  187.0098 C   0  0  0  0  0  0  0  0  0  0  0  0
  153.4617  136.3186  185.5902 C   0  0  0  0  0  0  0  0  0  0  0  0
  152.0073  136.6683  185.2334 C   0  0  0  0  0  0  0  0  0  0  0  0
  151.2424  136.6984  186.5426 C   0  0  0  0  0  0  0  0  0  0  0  0
  150.2586  137.6452  186.5784 O   0  0  0  0  0  0  0  0  0  0  0  0
  150.1979  138.1482  187.4251 H   0  0  0  0  0  0  0  0  0  0  0  0
  2  1  1  0  0  0
  2  3  1  0  0  0
  3  4  1  0  0  0
  4  5  1  0  0  0
  5  6  1  0  0  0
  6  7  1  0  0  0
  7  8  1  0  0  0
  8  9  1  0  0  0
  9 10  2  0  0  0
 10 11  1  0  0  0
 11 12  2  0  0  0
 11 13  1  0  0  0
 13 14  1  0  0  0
 14 15  1  0  0  0
 15 16  1  0  0  0
  6 17  1  0  0  0
 17 18  1  0  0  0
 18 19  1  0  0  0
 19 20  1  0  0  0
 20 21  1  0  0  0
 17  2  1  0  0  0
 20  2  1  0  0  0
 15  5  1  0  0  0
 15  9  1  0  0  0
 21 22  1  0  0  0
M  END
> <minimizedAffinity>
-5.49799

> <CNNscore>
0.4188788533

> <CNNaffinity>
5.0054688454

> <CNN_VS>
2.0966849327

> <CNNaffinity_variance>
0.1473113298

$$$$
[H]O[C@@]1([H])C([H])([H])C([H])([H])[C@@]2([H])C3([H])C([H])([H])C([H])([H])C4=C([H])C(=O)C([H])([H])C([H])([H])[C@]4(C([H])([H])[H])C3([H])C([H])([H])C([H])([H])[C@]12C([H])([H])[H]


 22 25  0  0  0  0  0  0  0  0999 V2000
  152.9416  138.4495  187.6786 C   0  0  0  0  0  0  0  0  0  0  0  0
  153.5544  137.1094  187.4702 C   0  0  0  0  0  0  0  0  0  0  0  0
  152.5614  136.0208  187.4172 C   0  0  0  0  0  0  0  0  0  0  0  0
  151.8822  136.0305  188.7756 C   0  0  0  0  0  0  0  0  0  0  0  0
  152.8506  135.6672  189.8768 C   0  0  0  0  0  0  0  0  0  0  0  0
  154.1575  136.3811  189.8105 C   0  0  0  0  0  0  0  0  0  0  0  0
  154.2839  137.5042  190.8422 C   0  0  0  0  0  0  0  0  0  0  0  0
  154.1783  136.8683  192.1869 C   0  0  0  0  0  0  0  0  0  0  0  0
  153.1682  135.7888  192.2727 C   0  0  0  0  0  0  0  0  0  0  0  0
  153.2258  134.9690  193.3100 C   0  0  0  0  0  0  0  0  0  0  0  0
  152.2637  133.8882  193.4549 C   0  0  0  0  0  0  0  0  0  0  0  0
  152.4499  132.8648  194.1485 O   0  0  0  0  0  0  0  0  0  0  0  0
  150.9804  134.0542  192.7067 C   0  0  0  0  0  0  0  0  0  0  0  0
  151.3421  134.3965  191.3011 C   0  0  0  0  0  0  0  0  0  0  0  0
  152.1540  135.6949  191.1894 C   0  0  0  0  0  0  0  0  0  0  0  0
  151.1509  136.7991  191.3496 C   0  0  0  0  0  0  0  0  0  0  0  0
  154.6213  136.7463  188.4694 C   0  0  0  0  0  0  0  0  0  0  0  0
  155.5196  137.9221  188.3386 C   0  0  0  0  0  0  0  0  0  0  0  0
  155.5492  138.1087  186.8124 C   0  0  0  0  0  0  0  0  0  0  0  0
  154.4545  137.2208  186.2528 C   0  0  0  0  0  0  0  0  0  0  0  0
  153.8293  137.7485  185.1590 O   0  0  0  0  0  0  0  0  0  0  0  0
  152.8481  137.6447  185.1521 H   0  0  0  0  0  0  0  0  0  0  0  0
  2  1  1  0  0  0
  2  3  1  0  0  0
  3  4  1  0  0  0
  4  5  1  0  0  0
  5  6  1  0  0  0
  6  7  1  0  0  0
  7  8  1  0  0  0
  8  9  1  0  0  0
  9 10  2  0  0  0
 10 11  1  0  0  0
 11 12  2  0  0  0
 11 13  1  0  0  0
 13 14  1  0  0  0
 14 15  1  0  0  0
 15 16  1  0  0  0
  6 17  1  0  0  0
 17 18  1  0  0  0
 18 19  1  0  0  0
 19 20  1  0  0  0
 20 21  1  0  0  0
 17  2  1  0  0  0
 20  2  1  0  0  0
 15  5  1  0  0  0
 15  9  1  0  0  0
 21 22  1  0  0  0
M  END
> <minimizedAffinity>
-5.38106

> <CNNscore>
0.4185200632

> <CNNaffinity>
5.0382223129

> <CNN_VS>
2.1085970402

> <CNNaffinity_variance>
0.2136832476

$$$$
[H]OC(=O)[C@@]([H])(N([H])C(=O)C1([H])N(C(=O)c2c([H])c([H])c([H])c([H])c2[H])C([H])([H])C([H])([H])C1([H])[H])C([H])(C([H])([H])[H])C([H])([H])[H]


 25 26  0  0  0  0  0  0  0  0999 V2000
  156.9716  142.9371  182.6300 C   0  0  0  0  0  0  0  0  0  0  0  0
  157.3904  142.4717  181.2217 C   0  0  0  0  0  0  0  0  0  0  0  0
  158.4499  143.5730  180.9968 C   0  0  0  0  0  0  0  0  0  0  0  0
  159.0317  143.8046  182.4047 C   0  0  0  0  0  0  0  0  0  0  0  0
  158.2278  142.9049  183.2772 N   0  0  0  0  0  0  0  0  0  0  0  0
  158.8123  142.2032  184.3450 C   0  0  0  0  0  0  0  0  0  0  0  0
  158.1006  141.2648  184.8702 O   0  0  0  0  0  0  0  0  0  0  0  0
  160.1089  142.3695  184.9602 C   0  0  0  0  0  0  0  0  0  0  0  0
  161.3245  142.1025  184.4134 C   0  0  0  0  0  0  0  0  0  0  0  0
  162.5268  142.2315  185.1109 C   0  0  0  0  0  0  0  0  0  0  0  0
  162.5049  142.6522  186.4236 C   0  0  0  0  0  0  0  0  0  0  0  0
  161.3029  142.9371  187.0234 C   0  0  0  0  0  0  0  0  0  0  0  0
  160.1441  142.7957  186.3007 C   0  0  0  0  0  0  0  0  0  0  0  0
  155.5666  140.9524  182.9547 N   0  0  0  0  0  0  0  0  0  0  0  0
  155.7804  142.3683  183.1437 C   0  0  0  0  0  0  0  0  0  0  0  0
  154.8807  142.9722  183.7530 O   0  0  0  0  0  0  0  0  0  0  0  0
  156.2906  140.4149  182.4503 H   0  0  0  0  0  0  0  0  0  0  0  0
  154.3761  140.3094  183.4535 C   0  0  0  0  0  0  0  0  0  0  0  0
  154.7319  139.3592  184.5046 C   0  0  0  0  0  0  0  0  0  0  0  0
  153.9169  139.1724  185.5993 O   0  0  0  0  0  0  0  0  0  0  0  0
  155.7932  138.6936  184.4265 O   0  0  0  0  0  0  0  0  0  0  0  0
  154.1845  138.6028  186.3922 H   0  0  0  0  0  0  0  0  0  0  0  0
  152.6180  138.6050  182.8926 C   0  0  0  0  0  0  0  0  0  0  0  0
  153.5799  139.6346  182.3817 C   0  0  0  0  0  0  0  0  0  0  0  0
  152.8144  140.6824  181.6093 C   0  0  0  0  0  0  0  0  0  0  0  0
 23 24  1  0  0  0
 24 25  1  0  0  0
 24 18  1  0  0  0
 18 19  1  0  0  0
 19 20  1  0  0  0
 19 21  2  0  0  0
 18 14  1  0  0  0
 14 15  1  0  0  0
 15  1  1  0  0  0
  1  2  1  0  0  0
  2  3  1  0  0  0
  3  4  1  0  0  0
  4  5  1  0  0  0
  5  6  1  0  0  0
  6  7  2  0  0  0
  6  8  1  0  0  0
  8  9  2  0  0  0
  9 10  1  0  0  0
 10 11  2  0  0  0
 11 12  1  0  0  0
 12 13  2  0  0  0
 15 16  2  0  0  0
  5  1  1  0  0  0
 13  8  1  0  0  0
 20 22  1  0  0  0
 14 17  1  0  0  0
M  END
> <minimizedAffinity>
-8.30686

> <CNNscore>
0.5887748599

> <CNNaffinity>
5.9891147614

> <CNN_VS>
3.5262401104

> <CNNaffinity_variance>
0.0498976447

$$$$
[H]OC(=O)[C@@]([H])(N([H])C(=O)C1([H])N(C(=O)c2c([H])c([H])c([H])c([H])c2[H])C([H])([H])C([H])([H])C1([H])[H])C([H])(C([H])([H])[H])C([H])([H])[H]


 25 26  0  0  0  0  0  0  0  0999 V2000
  154.6074  136.5533  191.9088 C   0  0  0  0  0  0  0  0  0  0  0  0
  154.0979  137.7671  191.1074 C   0  0  0  0  0  0  0  0  0  0  0  0
  155.4433  138.5258  191.0919 C   0  0  0  0  0  0  0  0  0  0  0  0
  156.4910  137.3981  191.0222 C   0  0  0  0  0  0  0  0  0  0  0  0
  155.6795  136.1510  191.0800 N   0  0  0  0  0  0  0  0  0  0  0  0
  156.0158  135.0202  190.3170 C   0  0  0  0  0  0  0  0  0  0  0  0
  155.1194  134.0966  190.2378 O   0  0  0  0  0  0  0  0  0  0  0  0
  157.2301  134.7219  189.5932 C   0  0  0  0  0  0  0  0  0  0  0  0
  157.5895  135.1685  188.3605 C   0  0  0  0  0  0  0  0  0  0  0  0
  158.7587  134.7713  187.7093 C   0  0  0  0  0  0  0  0  0  0  0  0
  159.6096  133.8819  188.3302 C   0  0  0  0  0  0  0  0  0  0  0  0
  159.2943  133.4014  189.5774 C   0  0  0  0  0  0  0  0  0  0  0  0
  158.1337  133.8177  190.1814 C   0  0  0  0  0  0  0  0  0  0  0  0
  152.5720  135.2376  191.5288 N   0  0  0  0  0  0  0  0  0  0  0  0
  153.6123  135.6871  192.4243 C   0  0  0  0  0  0  0  0  0  0  0  0
  153.5386  135.2641  193.5910 O   0  0  0  0  0  0  0  0  0  0  0  0
  152.5964  135.5692  190.5506 H   0  0  0  0  0  0  0  0  0  0  0  0
  151.5291  134.3540  191.9883 C   0  0  0  0  0  0  0  0  0  0  0  0
  151.3575  133.2571  191.0387 C   0  0  0  0  0  0  0  0  0  0  0  0
  152.4442  132.6598  190.4390 O   0  0  0  0  0  0  0  0  0  0  0  0
  150.2093  132.8390  190.7520 O   0  0  0  0  0  0  0  0  0  0  0  0
  152.3551  131.9723  189.7013 H   0  0  0  0  0  0  0  0  0  0  0  0
  149.7962  135.0710  193.6598 C   0  0  0  0  0  0  0  0  0  0  0  0
  150.2281  135.0536  192.2247 C   0  0  0  0  0  0  0  0  0  0  0  0
  150.3410  136.4753  191.7279 C   0  0  0  0  0  0  0  0  0  0  0  0
 23 24  1  0  0  0
 24 25  1  0  0  0
 24 18  1  0  0  0
 18 19  1  0  0  0
 19 20  1  0  0  0
 19 21  2  0  0  0
 18 14  1  0  0  0
 14 15  1  0  0  0
 15  1  1  0  0  0
  1  2  1  0  0  0
  2  3  1  0  0  0
  3  4  1  0  0  0
  4  5  1  0  0  0
  5  6  1  0  0  0
  6  7  2  0  0  0
  6  8  1  0  0  0
  8  9  2  0  0  0
  9 10  1  0  0  0
 10 11  2  0  0  0
 11 12  1  0  0  0
 12 13  2  0  0  0
 15 16  2  0  0  0
  5  1  1  0  0  0
 13  8  1  0  0  0
 20 22  1  0  0  0
 14 17  1  0  0  0
M  END
> <minimizedAffinity>
-5.51083

> <CNNscore>
0.5165487528

> <CNNaffinity>
4.5215954781

> <CNN_VS>
2.3356244564

> <CNNaffinity_variance>
0.0333266072

$$$$
[H]OC(=O)[C@@]([H])(N([H])C(=O)C1([H])N(C(=O)c2c([H])c([H])c([H])c([H])c2[H])C([H])([H])C([H])([H])C1([H])[H])C([H])(C([H])([H])[H])C([H])([H])[H]


 25 26  0  0  0  0  0  0  0  0999 V2000
  154.7297  140.2900  183.6785 C   0  0  0  0  0  0  0  0  0  0  0  0
  153.6872  139.7587  182.6755 C   0  0  0  0  0  0  0  0  0  0  0  0
  153.2843  141.1406  182.1152 C   0  0  0  0  0  0  0  0  0  0  0  0
  154.5974  141.9453  182.1653 C   0  0  0  0  0  0  0  0  0  0  0  0
  155.5680  141.0086  182.7958 N   0  0  0  0  0  0  0  0  0  0  0  0
  156.9054  140.9413  182.3708 C   0  0  0  0  0  0  0  0  0  0  0  0
  157.5895  139.9330  182.7930 O   0  0  0  0  0  0  0  0  0  0  0  0
  157.6507  141.8400  181.5196 C   0  0  0  0  0  0  0  0  0  0  0  0
  158.0297  141.6348  180.2303 C   0  0  0  0  0  0  0  0  0  0  0  0
  158.8098  142.5370  179.5050 C   0  0  0  0  0  0  0  0  0  0  0  0
  159.2277  143.7050  180.1065 C   0  0  0  0  0  0  0  0  0  0  0  0
  158.8707  143.9621  181.4073 C   0  0  0  0  0  0  0  0  0  0  0  0
  158.1031  143.0468  182.0842 C   0  0  0  0  0  0  0  0  0  0  0  0
  154.2747  138.3230  185.0722 N   0  0  0  0  0  0  0  0  0  0  0  0
  155.1811  139.3667  184.6533 C   0  0  0  0  0  0  0  0  0  0  0  0
  156.2988  139.3599  185.1975 O   0  0  0  0  0  0  0  0  0  0  0  0
  153.3344  138.2959  184.6449 H   0  0  0  0  0  0  0  0  0  0  0  0
  154.6707  137.3496  186.0596 C   0  0  0  0  0  0  0  0  0  0  0  0
  154.3049  136.0098  185.6065 C   0  0  0  0  0  0  0  0  0  0  0  0
  154.1554  135.7290  184.2662 O   0  0  0  0  0  0  0  0  0  0  0  0
  154.1194  135.0870  186.4368 O   0  0  0  0  0  0  0  0  0  0  0  0
  153.8017  134.8433  183.9269 H   0  0  0  0  0  0  0  0  0  0  0  0
  155.0936  138.1489  188.4034 C   0  0  0  0  0  0  0  0  0  0  0  0
  154.0982  137.6212  187.4149 C   0  0  0  0  0  0  0  0  0  0  0  0
  152.9680  138.6133  187.2775 C   0  0  0  0  0  0  0  0  0  0  0  0
 23 24  1  0  0  0
 24 25  1  0  0  0
 24 18  1  0  0  0
 18 19  1  0  0  0
 19 20  1  0  0  0
 19 21  2  0  0  0
 18 14  1  0  0  0
 14 15  1  0  0  0
 15  1  1  0  0  0
  1  2  1  0  0  0
  2  3  1  0  0  0
  3  4  1  0  0  0
  4  5  1  0  0  0
  5  6  1  0  0  0
  6  7  2  0  0  0
  6  8  1  0  0  0
  8  9  2  0  0  0
  9 10  1  0  0  0
 10 11  2  0  0  0
 11 12  1  0  0  0
 12 13  2  0  0  0
 15 16  2  0  0  0
  5  1  1  0  0  0
 13  8  1  0  0  0
 20 22  1  0  0  0
 14 17  1  0  0  0
M  END
> <minimizedAffinity>
-7.50502

> <CNNscore>
0.5012444258

> <CNNaffinity>
5.2819123268

> <CNN_VS>
2.6475291252

> <CNNaffinity_variance>
0.1120386496

$$$$
[H]OC(=O)[C@@]([H])(N([H])C(=O)C1([H])N(C(=O)c2c([H])c([H])c([H])c([H])c2[H])C([H])([H])C([H])([H])C1([H])[H])C([H])(C([H])([H])[H])C([H])([H])[H]


 25 26  0  0  0  0  0  0  0  0999 V2000
  153.9765  137.0949  187.1400 C   0  0  0  0  0  0  0  0  0  0  0  0
  154.3270  137.6115  185.7310 C   0  0  0  0  0  0  0  0  0  0  0  0
  155.5502  138.4484  186.1662 C   0  0  0  0  0  0  0  0  0  0  0  0
  156.1503  137.6311  187.3264 C   0  0  0  0  0  0  0  0  0  0  0  0
  155.2064  136.4908  187.4873 N   0  0  0  0  0  0  0  0  0  0  0  0
  155.6630  135.1965  187.7880 C   0  0  0  0  0  0  0  0  0  0  0  0
  154.8068  134.2420  187.6515 O   0  0  0  0  0  0  0  0  0  0  0  0
  156.9647  134.7567  188.2349 C   0  0  0  0  0  0  0  0  0  0  0  0
  158.1038  134.6621  187.4990 C   0  0  0  0  0  0  0  0  0  0  0  0
  159.3052  134.1603  188.0023 C   0  0  0  0  0  0  0  0  0  0  0  0
  159.3639  133.7342  189.3121 C   0  0  0  0  0  0  0  0  0  0  0  0
  158.2416  133.8099  190.0998 C   0  0  0  0  0  0  0  0  0  0  0  0
  157.0803  134.3094  189.5640 C   0  0  0  0  0  0  0  0  0  0  0  0
  152.2506  135.6122  186.2226 N   0  0  0  0  0  0  0  0  0  0  0  0
  152.7058  136.4847  187.2799 C   0  0  0  0  0  0  0  0  0  0  0  0
  151.9248  136.6241  188.2370 O   0  0  0  0  0  0  0  0  0  0  0  0
  152.8703  135.4722  185.4078 H   0  0  0  0  0  0  0  0  0  0  0  0
  150.9679  134.9582  186.3020 C   0  0  0  0  0  0  0  0  0  0  0  0
  151.1502  133.5574  186.6747 C   0  0  0  0  0  0  0  0  0  0  0  0
  151.8609  132.6946  185.8698 O   0  0  0  0  0  0  0  0  0  0  0  0
  150.6584  133.1147  187.7413 O   0  0  0  0  0  0  0  0  0  0  0  0
  151.9158  131.6992  186.0456 H   0  0  0  0  0  0  0  0  0  0  0  0
  148.7129  134.7781  185.2095 C   0  0  0  0  0  0  0  0  0  0  0  0
  150.1736  135.0675  185.0390 C   0  0  0  0  0  0  0  0  0  0  0  0
  150.3368  136.4604  184.4787 C   0  0  0  0  0  0  0  0  0  0  0  0
 23 24  1  0  0  0
 24 25  1  0  0  0
 24 18  1  0  0  0
 18 19  1  0  0  0
 19 20  1  0  0  0
 19 21  2  0  0  0
 18 14  1  0  0  0
 14 15  1  0  0  0
 15  1  1  0  0  0
  1  2  1  0  0  0
  2  3  1  0  0  0
  3  4  1  0  0  0
  4  5  1  0  0  0
  5  6  1  0  0  0
  6  7  2  0  0  0
  6  8  1  0  0  0
  8  9  2  0  0  0
  9 10  1  0  0  0
 10 11  2  0  0  0
 11 12  1  0  0  0
 12 13  2  0  0  0
 15 16  2  0  0  0
  5  1  1  0  0  0
 13  8  1  0  0  0
 20 22  1  0  0  0
 14 17  1  0  0  0
M  END
> <minimizedAffinity>
-3.57647

> <CNNscore>
0.4998644888

> <CNNaffinity>
4.6656737328

> <CNN_VS>
2.3322045803

> <CNNaffinity_variance>
0.5985276103

$$$$
[H]OC(=O)[C@@]([H])(N([H])C(=O)C1([H])N(C(=O)c2c([H])c([H])c([H])c([H])c2[H])C([H])([H])C([H])([H])C1([H])[H])C([H])(C([H])([H])[H])C([H])([H])[H]


 25 26  0  0  0  0  0  0  0  0999 V2000
  151.7743  137.2857  186.2898 C   0  0  0  0  0  0  0  0  0  0  0  0
  152.4849  136.4162  185.2343 C   0  0  0  0  0  0  0  0  0  0  0  0
  153.6806  137.3701  185.0188 C   0  0  0  0  0  0  0  0  0  0  0  0
  153.9058  137.9848  186.4137 C   0  0  0  0  0  0  0  0  0  0  0  0
  152.8125  137.4048  187.2417 N   0  0  0  0  0  0  0  0  0  0  0  0
  153.0248  137.0278  188.5784 C   0  0  0  0  0  0  0  0  0  0  0  0
  152.1045  136.3066  189.1222 O   0  0  0  0  0  0  0  0  0  0  0  0
  154.1318  137.3261  189.4577 C   0  0  0  0  0  0  0  0  0  0  0  0
  154.3730  138.4890  190.1191 C   0  0  0  0  0  0  0  0  0  0  0  0
  155.5102  138.7092  190.8981 C   0  0  0  0  0  0  0  0  0  0  0  0
  156.4507  137.7085  191.0193 C   0  0  0  0  0  0  0  0  0  0  0  0
  156.2545  136.5130  190.3729 C   0  0  0  0  0  0  0  0  0  0  0  0
  155.1221  136.3392  189.6161 C   0  0  0  0  0  0  0  0  0  0  0  0
  150.1780  135.5844  187.0489 N   0  0  0  0  0  0  0  0  0  0  0  0
  150.4366  136.9293  186.5899 C   0  0  0  0  0  0  0  0  0  0  0  0
  149.4408  137.6679  186.4980 O   0  0  0  0  0  0  0  0  0  0  0  0
  150.9796  134.9385  187.1362 H   0  0  0  0  0  0  0  0  0  0  0  0
  148.8396  135.1563  187.3729 C   0  0  0  0  0  0  0  0  0  0  0  0
  148.7518  134.8467  188.7979 C   0  0  0  0  0  0  0  0  0  0  0  0
  149.8792  134.5495  189.5314 O   0  0  0  0  0  0  0  0  0  0  0  0
  147.6400  134.8463  189.3805 O   0  0  0  0  0  0  0  0  0  0  0  0
  149.8413  134.2292  190.4910 H   0  0  0  0  0  0  0  0  0  0  0  0
  147.3750  134.3476  185.4989 C   0  0  0  0  0  0  0  0  0  0  0  0
  148.3802  133.9927  186.5525 C   0  0  0  0  0  0  0  0  0  0  0  0
  149.5804  133.3565  185.8926 C   0  0  0  0  0  0  0  0  0  0  0  0
 23 24  1  0  0  0
 24 25  1  0  0  0
 24 18  1  0  0  0
 18 19  1  0  0  0
 19 20  1  0  0  0
 19 21  2  0  0  0
 18 14  1  0  0  0
 14 15  1  0  0  0
 15  1  1  0  0  0
  1  2  1  0  0  0
  2  3  1  0  0  0
  3  4  1  0  0  0
  4  5  1  0  0  0
  5  6  1  0  0  0
  6  7  2  0  0  0
  6  8  1  0  0  0
  8  9  2  0  0  0
  9 10  1  0  0  0
 10 11  2  0  0  0
 11 12  1  0  0  0
 12 13  2  0  0  0
 15 16  2  0  0  0
  5  1  1  0  0  0
 13  8  1  0  0  0
 20 22  1  0  0  0
 14 17  1  0  0  0
M  END
> <minimizedAffinity>
-4.02490

> <CNNscore>
0.4905413091

> <CNNaffinity>
4.5164513588

> <CNN_VS>
2.2155060768

> <CNNaffinity_variance>
0.1879399419

$$$$
[H]OC(=O)[C@@]([H])(N([H])C(=O)C1([H])N(C(=O)c2c([H])c([H])c([H])c([H])c2[H])C([H])([H])C([H])([H])C1([H])[H])C([H])(C([H])([H])[H])C([H])([H])[H]


 25 26  0  0  0  0  0  0  0  0999 V2000
  154.6990  139.0150  184.8827 C   0  0  0  0  0  0  0  0  0  0  0  0
  154.1075  137.9273  183.9650 C   0  0  0  0  0  0  0  0  0  0  0  0
  153.3094  138.8946  183.0630 C   0  0  0  0  0  0  0  0  0  0  0  0
  154.1973  140.1529  183.0116 C   0  0  0  0  0  0  0  0  0  0  0  0
  155.3348  139.8260  183.9151 N   0  0  0  0  0  0  0  0  0  0  0  0
  156.6487  140.2224  183.6143 C   0  0  0  0  0  0  0  0  0  0  0  0
  157.5849  139.6762  184.3130 O   0  0  0  0  0  0  0  0  0  0  0  0
  157.1268  141.1633  182.6276 C   0  0  0  0  0  0  0  0  0  0  0  0
  156.8897  142.5009  182.5767 C   0  0  0  0  0  0  0  0  0  0  0  0
  157.3404  143.3232  181.5426 C   0  0  0  0  0  0  0  0  0  0  0  0
  158.0678  142.7723  180.5091 C   0  0  0  0  0  0  0  0  0  0  0  0
  158.3371  141.4258  180.5131 C   0  0  0  0  0  0  0  0  0  0  0  0
  157.8737  140.6536  181.5495 C   0  0  0  0  0  0  0  0  0  0  0  0
  154.4394  138.1309  187.1564 N   0  0  0  0  0  0  0  0  0  0  0  0
  155.3026  138.5572  186.0796 C   0  0  0  0  0  0  0  0  0  0  0  0
  156.5228  138.4822  186.3055 O   0  0  0  0  0  0  0  0  0  0  0  0
  153.4180  138.1805  187.0087 H   0  0  0  0  0  0  0  0  0  0  0  0
  154.9881  137.6527  188.4012 C   0  0  0  0  0  0  0  0  0  0  0  0
  155.0469  136.1930  188.3864 C   0  0  0  0  0  0  0  0  0  0  0  0
  154.1806  135.4548  187.6105 O   0  0  0  0  0  0  0  0  0  0  0  0
  155.8932  135.5843  189.0854 O   0  0  0  0  0  0  0  0  0  0  0  0
  154.1256  134.4451  187.6580 H   0  0  0  0  0  0  0  0  0  0  0  0
  153.2952  137.1236  190.1802 C   0  0  0  0  0  0  0  0  0  0  0  0
  154.2349  138.1367  189.5997 C   0  0  0  0  0  0  0  0  0  0  0  0
  155.2238  138.5554  190.6615 C   0  0  0  0  0  0  0  0  0  0  0  0
 23 24  1  0  0  0
 24 25  1  0  0  0
 24 18  1  0  0  0
 18 19  1  0  0  0
 19 20  1  0  0  0
 19 21  2  0  0  0
 18 14  1  0  0  0
 14 15  1  0  0  0
 15  1  1  0  0  0
  1  2  1  0  0  0
  2  3  1  0  0  0
  3  4  1  0  0  0
  4  5  1  0  0  0
  5  6  1  0  0  0
  6  7  2  0  0  0
  6  8  1  0  0  0
  8  9  2  0  0  0
  9 10  1  0  0  0
 10 11  2  0  0  0
 11 12  1  0  0  0
 12 13  2  0  0  0
 15 16  2  0  0  0
  5  1  1  0  0  0
 13  8  1  0  0  0
 20 22  1  0  0  0
 14 17  1  0  0  0
M  END
> <minimizedAffinity>
-6.49723

> <CNNscore>
0.4897456467

> <CNNaffinity>
5.2189698219

> <CNN_VS>
2.5559678078

> <CNNaffinity_variance>
0.2569715083

$$$$
[H]OC(=O)[C@@]([H])(N([H])C(=O)C1([H])N(C(=O)c2c([H])c([H])c([H])c([H])c2[H])C([H])([H])C([H])([H])C1([H])[H])C([H])(C([H])([H])[H])C([H])([H])[H]


 25 26  0  0  0  0  0  0  0  0999 V2000
  154.3134  138.5640  184.1527 C   0  0  0  0  0  0  0  0  0  0  0  0
  154.4624  138.7245  185.6782 C   0  0  0  0  0  0  0  0  0  0  0  0
  156.0069  138.7494  185.6872 C   0  0  0  0  0  0  0  0  0  0  0  0
  156.3624  139.4600  184.3670 C   0  0  0  0  0  0  0  0  0  0  0  0
  155.0423  139.6950  183.7197 N   0  0  0  0  0  0  0  0  0  0  0  0
  154.7725  140.8775  183.0104 C   0  0  0  0  0  0  0  0  0  0  0  0
  153.5368  141.0972  182.7141 O   0  0  0  0  0  0  0  0  0  0  0  0
  155.6771  141.9061  182.5510 C   0  0  0  0  0  0  0  0  0  0  0  0
  155.5999  143.2423  182.7889 C   0  0  0  0  0  0  0  0  0  0  0  0
  156.4870  144.1729  182.2450 C   0  0  0  0  0  0  0  0  0  0  0  0
  157.5037  143.7368  181.4223 C   0  0  0  0  0  0  0  0  0  0  0  0
  157.6277  142.3964  181.1512 C   0  0  0  0  0  0  0  0  0  0  0  0
  156.7326  141.5156  181.7065 C   0  0  0  0  0  0  0  0  0  0  0  0
  152.7563  138.3125  182.2736 N   0  0  0  0  0  0  0  0  0  0  0  0
  153.0242  138.2042  183.6888 C   0  0  0  0  0  0  0  0  0  0  0  0
  152.0794  137.7964  184.3863 O   0  0  0  0  0  0  0  0  0  0  0  0
  153.5157  138.6504  181.6600 H   0  0  0  0  0  0  0  0  0  0  0  0
  151.4657  137.9614  181.7346 C   0  0  0  0  0  0  0  0  0  0  0  0
  151.2239  136.5330  181.9233 C   0  0  0  0  0  0  0  0  0  0  0  0
  150.1526  136.0854  182.6645 O   0  0  0  0  0  0  0  0  0  0  0  0
  151.9940  135.6852  181.4098 O   0  0  0  0  0  0  0  0  0  0  0  0
  150.0178  135.1104  182.9012 H   0  0  0  0  0  0  0  0  0  0  0  0
  149.8867  138.5437  179.8695 C   0  0  0  0  0  0  0  0  0  0  0  0
  151.3088  138.3358  180.2947 C   0  0  0  0  0  0  0  0  0  0  0  0
  152.0908  139.6007  180.0312 C   0  0  0  0  0  0  0  0  0  0  0  0
 23 24  1  0  0  0
 24 25  1  0  0  0
 24 18  1  0  0  0
 18 19  1  0  0  0
 19 20  1  0  0  0
 19 21  2  0  0  0
 18 14  1  0  0  0
 14 15  1  0  0  0
 15  1  1  0  0  0
  1  2  1  0  0  0
  2  3  1  0  0  0
  3  4  1  0  0  0
  4  5  1  0  0  0
  5  6  1  0  0  0
  6  7  2  0  0  0
  6  8  1  0  0  0
  8  9  2  0  0  0
  9 10  1  0  0  0
 10 11  2  0  0  0
 11 12  1  0  0  0
 12 13  2  0  0  0
 15 16  2  0  0  0
  5  1  1  0  0  0
 13  8  1  0  0  0
 20 22  1  0  0  0
 14 17  1  0  0  0
M  END
> <minimizedAffinity>
-6.01332

> <CNNscore>
0.4752624333

> <CNNaffinity>
5.1047153473

> <CNN_VS>
2.4260795116

> <CNNaffinity_variance>
0.1381136924

$$$$
[H]OC(=O)[C@@]([H])(N([H])C(=O)C1([H])N(C(=O)c2c([H])c([H])c([H])c([H])c2[H])C([H])([H])C([H])([H])C1([H])[H])C([H])(C([H])([H])[H])C([H])([H])[H]


 25 26  0  0  0  0  0  0  0  0999 V2000
  154.9818  136.5205  190.3419 C   0  0  0  0  0  0  0  0  0  0  0  0
  155.4072  137.8221  191.0490 C   0  0  0  0  0  0  0  0  0  0  0  0
  156.6595  138.0749  190.1807 C   0  0  0  0  0  0  0  0  0  0  0  0
  156.2484  137.5438  188.7939 C   0  0  0  0  0  0  0  0  0  0  0  0
  154.8834  136.9904  189.0123 N   0  0  0  0  0  0  0  0  0  0  0  0
  153.8719  137.1290  188.0471 C   0  0  0  0  0  0  0  0  0  0  0  0
  152.6729  136.8505  188.4314 O   0  0  0  0  0  0  0  0  0  0  0  0
  153.9635  137.5418  186.6656 C   0  0  0  0  0  0  0  0  0  0  0  0
  153.9176  138.8091  186.1759 C   0  0  0  0  0  0  0  0  0  0  0  0
  153.9469  139.1084  184.8127 C   0  0  0  0  0  0  0  0  0  0  0  0
  154.0284  138.0814  183.8967 C   0  0  0  0  0  0  0  0  0  0  0  0
  154.0794  136.7823  184.3387 C   0  0  0  0  0  0  0  0  0  0  0  0
  154.0471  136.5327  185.6885 C   0  0  0  0  0  0  0  0  0  0  0  0
  152.6870  136.3294  191.1880 N   0  0  0  0  0  0  0  0  0  0  0  0
  153.9961  135.7477  191.0033 C   0  0  0  0  0  0  0  0  0  0  0  0
  154.1423  134.5971  191.4510 O   0  0  0  0  0  0  0  0  0  0  0  0
  152.5259  137.2858  190.8321 H   0  0  0  0  0  0  0  0  0  0  0  0
  151.6373  135.5968  191.8520 C   0  0  0  0  0  0  0  0  0  0  0  0
  150.7567  134.9866  190.8588 C   0  0  0  0  0  0  0  0  0  0  0  0
  150.2076  135.7347  189.8408 O   0  0  0  0  0  0  0  0  0  0  0  0
  150.4843  133.7628  190.9178 O   0  0  0  0  0  0  0  0  0  0  0  0
  149.5136  135.3671  189.2020 H   0  0  0  0  0  0  0  0  0  0  0  0
  150.1841  135.6538  193.9004 C   0  0  0  0  0  0  0  0  0  0  0  0
  150.8501  136.4354  192.8086 C   0  0  0  0  0  0  0  0  0  0  0  0
  151.7686  137.4615  193.4284 C   0  0  0  0  0  0  0  0  0  0  0  0
 23 24  1  0  0  0
 24 25  1  0  0  0
 24 18  1  0  0  0
 18 19  1  0  0  0
 19 20  1  0  0  0
 19 21  2  0  0  0
 18 14  1  0  0  0
 14 15  1  0  0  0
 15  1  1  0  0  0
  1  2  1  0  0  0
  2  3  1  0  0  0
  3  4  1  0  0  0
  4  5  1  0  0  0
  5  6  1  0  0  0
  6  7  2  0  0  0
  6  8  1  0  0  0
  8  9  2  0  0  0
  9 10  1  0  0  0
 10 11  2  0  0  0
 11 12  1  0  0  0
 12 13  2  0  0  0
 15 16  2  0  0  0
  5  1  1  0  0  0
 13  8  1  0  0  0
 20 22  1  0  0  0
 14 17  1  0  0  0
M  END
> <minimizedAffinity>
-5.32558

> <CNNscore>
0.4707027376

> <CNNaffinity>
4.6207237244

> <CNN_VS>
2.1749873161

> <CNNaffinity_variance>
0.0509644635

$$$$
[H]OC(=O)[C@@]([H])(N([H])C(=O)C1([H])N(C(=O)c2c([H])c([H])c([H])c([H])c2[H])C([H])([H])C([H])([H])C1([H])[H])C([H])(C([H])([H])[H])C([H])([H])[H]


 25 26  0  0  0  0  0  0  0  0999 V2000
  152.4843  137.4565  186.2467 C   0  0  0  0  0  0  0  0  0  0  0  0
  153.5000  137.4886  185.0880 C   0  0  0  0  0  0  0  0  0  0  0  0
  154.4091  138.5765  185.7012 C   0  0  0  0  0  0  0  0  0  0  0  0
  154.3267  138.3022  187.2152 C   0  0  0  0  0  0  0  0  0  0  0  0
  153.3567  137.1776  187.3234 N   0  0  0  0  0  0  0  0  0  0  0  0
  153.5348  136.1415  188.2555 C   0  0  0  0  0  0  0  0  0  0  0  0
  152.7957  135.0968  188.0972 O   0  0  0  0  0  0  0  0  0  0  0  0
  154.4317  136.0593  189.3852 C   0  0  0  0  0  0  0  0  0  0  0  0
  155.6711  135.5019  189.4188 C   0  0  0  0  0  0  0  0  0  0  0  0
  156.4415  135.4089  190.5793 C   0  0  0  0  0  0  0  0  0  0  0  0
  155.9403  135.9031  191.7647 C   0  0  0  0  0  0  0  0  0  0  0  0
  154.6935  136.4781  191.7854 C   0  0  0  0  0  0  0  0  0  0  0  0
  153.9693  136.5482  190.6210 C   0  0  0  0  0  0  0  0  0  0  0  0
  150.1320  137.0724  186.8277 N   0  0  0  0  0  0  0  0  0  0  0  0
  151.2700  136.7740  185.9898 C   0  0  0  0  0  0  0  0  0  0  0  0
  151.0766  135.9274  185.1003 O   0  0  0  0  0  0  0  0  0  0  0  0
  150.2528  137.7693  187.5808 H   0  0  0  0  0  0  0  0  0  0  0  0
  148.8657  136.4146  186.6199 C   0  0  0  0  0  0  0  0  0  0  0  0
  147.8790  137.3817  186.1452 C   0  0  0  0  0  0  0  0  0  0  0  0
  146.8149  136.9866  185.3648 O   0  0  0  0  0  0  0  0  0  0  0  0
  147.9861  138.5964  186.4428 O   0  0  0  0  0  0  0  0  0  0  0  0
  146.1761  137.6434  184.9343 H   0  0  0  0  0  0  0  0  0  0  0  0
  149.4486  135.1412  188.7055 C   0  0  0  0  0  0  0  0  0  0  0  0
  148.3644  135.7067  187.8388 C   0  0  0  0  0  0  0  0  0  0  0  0
  147.5338  136.6684  188.6549 C   0  0  0  0  0  0  0  0  0  0  0  0
 23 24  1  0  0  0
 24 25  1  0  0  0
 24 18  1  0  0  0
 18 19  1  0  0  0
 19 20  1  0  0  0
 19 21  2  0  0  0
 18 14  1  0  0  0
 14 15  1  0  0  0
 15  1  1  0  0  0
  1  2  1  0  0  0
  2  3  1  0  0  0
  3  4  1  0  0  0
  4  5  1  0  0  0
  5  6  1  0  0  0
  6  7  2  0  0  0
  6  8  1  0  0  0
  8  9  2  0  0  0
  9 10  1  0  0  0
 10 11  2  0  0  0
 11 12  1  0  0  0
 12 13  2  0  0  0
 15 16  2  0  0  0
  5  1  1  0  0  0
 13  8  1  0  0  0
 20 22  1  0  0  0
 14 17  1  0  0  0
M  END
> <minimizedAffinity>
-4.15343

> <CNNscore>
0.4671963155

> <CNNaffinity>
4.6742715836

> <CNN_VS>
2.1838023663

> <CNNaffinity_variance>
0.1125519276

$$$$
[H]N=C(N([H])[H])N([H])C([H])([H])C([H])([H])C([H])([H])[C@@]([H])(C(=O)N1C([H])([H])C([H])([H])C([H])([H])[C@@]1([H])C(=O)N([H])[C@]([H])(C(=O)N([H])[C@]([H])(C(=O)N([H])[H])C([H])([H])c1c([H])c([H])c([H])c([H])c1[H])C([H])([H])C([H])(C([H])([H])[H])C([H])([H])[H])N([H])C(=O)C([H])([H])[H]


 50 51  0  0  0  0  0  0  0  0999 V2000
  154.0238  139.1183  184.7834 N   0  0  0  0  0  0  0  0  0  0  0  0
  154.2329  139.8259  183.5953 C   0  0  0  0  0  0  0  0  0  0  0  0
  154.2256  139.2008  182.4978 O   0  0  0  0  0  0  0  0  0  0  0  0
  154.0145  139.5629  185.7000 H   0  0  0  0  0  0  0  0  0  0  0  0
  154.4611  141.2981  183.6922 C   0  0  0  0  0  0  0  0  0  0  0  0
  153.6027  141.9845  182.6198 C   0  0  0  0  0  0  0  0  0  0  0  0
  154.2380  143.3560  182.6485 C   0  0  0  0  0  0  0  0  0  0  0  0
  155.7323  142.9718  182.6712 C   0  0  0  0  0  0  0  0  0  0  0  0
  155.8168  141.6928  183.3335 N   0  0  0  0  0  0  0  0  0  0  0  0
  156.9749  140.9338  183.6421 C   0  0  0  0  0  0  0  0  0  0  0  0
  156.7521  139.8299  184.2992 O   0  0  0  0  0  0  0  0  0  0  0  0
  158.3849  141.1446  183.3648 C   0  0  0  0  0  0  0  0  0  0  0  0
  158.5824  142.1480  182.3219 N   0  0  0  0  0  0  0  0  0  0  0  0
  158.6903  141.9264  180.9544 C   0  0  0  0  0  0  0  0  0  0  0  0
  158.8991  143.0878  180.0192 C   0  0  0  0  0  0  0  0  0  0  0  0
  158.6284  140.8047  180.3969 O   0  0  0  0  0  0  0  0  0  0  0  0
  158.6460  143.1358  182.6959 H   0  0  0  0  0  0  0  0  0  0  0  0
  159.2280  141.4610  184.5385 C   0  0  0  0  0  0  0  0  0  0  0  0
  160.7152  141.5831  184.2345 C   0  0  0  0  0  0  0  0  0  0  0  0
  161.2549  142.8772  184.7635 C   0  0  0  0  0  0  0  0  0  0  0  0
  162.3847  142.6395  185.6579 N   0  0  0  0  0  0  0  0  0  0  0  0
  163.3357  142.3646  185.3474 H   0  0  0  0  0  0  0  0  0  0  0  0
  162.1541  142.7947  187.0443 C   0  0  0  0  0  0  0  0  0  0  0  0
  163.1527  142.4762  188.0199 N   0  0  0  0  0  0  0  0  0  0  0  0
  161.0429  143.2292  187.4834 N   0  0  0  0  0  0  0  0  0  0  0  0
  162.8704  142.1693  188.9955 H   0  0  0  0  0  0  0  0  0  0  0  0
  164.1651  142.5324  187.8141 H   0  0  0  0  0  0  0  0  0  0  0  0
  160.2439  143.4955  186.8716 H   0  0  0  0  0  0  0  0  0  0  0  0
  153.8039  137.6596  184.7180 C   0  0  0  0  0  0  0  0  0  0  0  0
  152.3654  137.3783  184.5752 C   0  0  0  0  0  0  0  0  0  0  0  0
  151.6102  137.3142  185.6068 O   0  0  0  0  0  0  0  0  0  0  0  0
  151.7670  137.1750  183.3277 N   0  0  0  0  0  0  0  0  0  0  0  0
  152.2710  137.2261  182.4299 H   0  0  0  0  0  0  0  0  0  0  0  0
  150.3226  136.8820  183.1920 C   0  0  0  0  0  0  0  0  0  0  0  0
  150.1484  135.8380  182.1813 C   0  0  0  0  0  0  0  0  0  0  0  0
  148.9408  135.2046  181.8470 N   0  0  0  0  0  0  0  0  0  0  0  0
  151.1891  135.4469  181.5313 O   0  0  0  0  0  0  0  0  0  0  0  0
  148.7583  134.8825  180.8765 H   0  0  0  0  0  0  0  0  0  0  0  0
  148.2249  135.0575  182.5878 H   0  0  0  0  0  0  0  0  0  0  0  0
  149.6198  138.1622  182.7928 C   0  0  0  0  0  0  0  0  0  0  0  0
  150.0105  138.7361  181.5048 C   0  0  0  0  0  0  0  0  0  0  0  0
  151.1136  139.5452  181.3752 C   0  0  0  0  0  0  0  0  0  0  0  0
  151.4974  140.0903  180.1743 C   0  0  0  0  0  0  0  0  0  0  0  0
  150.7879  139.8511  179.0258 C   0  0  0  0  0  0  0  0  0  0  0  0
  149.6758  139.0433  179.1211 C   0  0  0  0  0  0  0  0  0  0  0  0
  149.2938  138.4976  180.3288 C   0  0  0  0  0  0  0  0  0  0  0  0
  154.2605  137.1534  186.1002 C   0  0  0  0  0  0  0  0  0  0  0  0
  153.7093  138.3768  188.1713 C   0  0  0  0  0  0  0  0  0  0  0  0
  154.6629  138.2551  187.0107 C   0  0  0  0  0  0  0  0  0  0  0  0
  156.0474  137.9012  187.5605 C   0  0  0  0  0  0  0  0  0  0  0  0
 48 49  1  0  0  0
 49 50  1  0  0  0
 49 47  1  0  0  0
 47 29  1  0  0  0
 29  1  1  0  0  0
  1  2  1  0  0  0
  2  3  2  0  0  0
  2  5  1  0  0  0
  5  6  1  0  0  0
  6  7  1  0  0  0
  7  8  1  0  0  0
  8  9  1  0  0  0
  9 10  1  0  0  0
 10 11  2  0  0  0
 10 12  1  0  0  0
 12 18  1  0  0  0
 18 19  1  0  0  0
 19 20  1  0  0  0
 20 21  1  0  0  0
 21 23  1  0  0  0
 23 24  1  0  0  0
 23 25  2  0  0  0
 12 13  1  0  0  0
 13 14  1  0  0  0
 14 15  1  0  0  0
 14 16  2  0  0  0
 29 30  1  0  0  0
 30 31  2  0  0  0
 30 32  1  0  0  0
 32 34  1  0  0  0
 34 40  1  0  0  0
 40 41  1  0  0  0
 41 42  2  0  0  0
 42 43  1  0  0  0
 43 44  2  0  0  0
 44 45  1  0  0  0
 45 46  2  0  0  0
 34 35  1  0  0  0
 35 36  1  0  0  0
 35 37  2  0  0  0
  9  5  1  0  0  0
 46 41  1  0  0  0
  1  4  1  0  0  0
 21 22  1  0  0  0
 24 26  1  0  0  0
 24 27  1  0  0  0
 25 28  1  0  0  0
 13 17  1  0  0  0
 32 33  1  0  0  0
 36 38  1  0  0  0
 36 39  1  0  0  0
M  END
> <minimizedAffinity>
-8.47506

> <CNNscore>
0.4699774384

> <CNNaffinity>
7.1909165382

> <CNN_VS>
3.3795685768

> <CNNaffinity_variance>
0.0511141047

$$$$
[H]N=C(N([H])[H])N([H])C([H])([H])C([H])([H])C([H])([H])[C@@]([H])(C(=O)N1C([H])([H])C([H])([H])C([H])([H])[C@@]1([H])C(=O)N([H])[C@]([H])(C(=O)N([H])[C@]([H])(C(=O)N([H])[H])C([H])([H])c1c([H])c([H])c([H])c([H])c1[H])C([H])([H])C([H])(C([H])([H])[H])C([H])([H])[H])N([H])C(=O)C([H])([H])[H]


 50 51  0  0  0  0  0  0  0  0999 V2000
  154.0450  139.1366  184.9653 N   0  0  0  0  0  0  0  0  0  0  0  0
  154.3385  139.8577  183.8036 C   0  0  0  0  0  0  0  0  0  0  0  0
  154.4769  139.2365  182.7126 O   0  0  0  0  0  0  0  0  0  0  0  0
  153.9181  139.5773  185.8751 H   0  0  0  0  0  0  0  0  0  0  0  0
  154.4789  141.3395  183.9201 C   0  0  0  0  0  0  0  0  0  0  0  0
  153.7341  141.9824  182.7411 C   0  0  0  0  0  0  0  0  0  0  0  0
  154.2915  143.3839  182.8435 C   0  0  0  0  0  0  0  0  0  0  0  0
  155.7873  143.0749  183.0625 C   0  0  0  0  0  0  0  0  0  0  0  0
  155.8484  141.8016  183.7381 N   0  0  0  0  0  0  0  0  0  0  0  0
  156.9928  141.1014  184.1991 C   0  0  0  0  0  0  0  0  0  0  0  0
  156.7415  139.9875  184.8286 O   0  0  0  0  0  0  0  0  0  0  0  0
  158.4147  141.3825  184.1059 C   0  0  0  0  0  0  0  0  0  0  0  0
  158.9769  141.7413  185.4054 N   0  0  0  0  0  0  0  0  0  0  0  0
  160.0815  142.5490  185.6472 C   0  0  0  0  0  0  0  0  0  0  0  0
  160.5270  142.8089  187.0618 C   0  0  0  0  0  0  0  0  0  0  0  0
  160.7754  143.1077  184.7646 O   0  0  0  0  0  0  0  0  0  0  0  0
  158.4544  141.3158  186.2212 H   0  0  0  0  0  0  0  0  0  0  0  0
  159.2357  140.3275  183.4726 C   0  0  0  0  0  0  0  0  0  0  0  0
  158.5078  139.5096  182.4141 C   0  0  0  0  0  0  0  0  0  0  0  0
  158.7600  140.0739  181.0488 C   0  0  0  0  0  0  0  0  0  0  0  0
  157.7484  141.0699  180.7058 N   0  0  0  0  0  0  0  0  0  0  0  0
  156.7321  140.9652  180.8858 H   0  0  0  0  0  0  0  0  0  0  0  0
  158.1968  142.2565  180.0812 C   0  0  0  0  0  0  0  0  0  0  0  0
  158.5170  143.4341  180.8304 N   0  0  0  0  0  0  0  0  0  0  0  0
  158.3375  142.3251  178.8195 N   0  0  0  0  0  0  0  0  0  0  0  0
  158.4178  144.3937  180.3891 H   0  0  0  0  0  0  0  0  0  0  0  0
  158.8499  143.3936  181.8092 H   0  0  0  0  0  0  0  0  0  0  0  0
  158.1386  141.5347  178.1719 H   0  0  0  0  0  0  0  0  0  0  0  0
  153.9090  137.6687  184.8810 C   0  0  0  0  0  0  0  0  0  0  0  0
  152.4943  137.3097  184.6845 C   0  0  0  0  0  0  0  0  0  0  0  0
  151.7381  137.0733  185.6899 O   0  0  0  0  0  0  0  0  0  0  0  0
  151.9200  137.2152  183.4129 N   0  0  0  0  0  0  0  0  0  0  0  0
  152.4256  137.4059  182.5350 H   0  0  0  0  0  0  0  0  0  0  0  0
  150.5002  136.8434  183.2220 C   0  0  0  0  0  0  0  0  0  0  0  0
  150.4216  135.8005  182.1982 C   0  0  0  0  0  0  0  0  0  0  0  0
  149.2644  135.1040  181.8150 N   0  0  0  0  0  0  0  0  0  0  0  0
  151.5056  135.4740  181.5844 O   0  0  0  0  0  0  0  0  0  0  0  0
  149.1357  134.7811  180.8363 H   0  0  0  0  0  0  0  0  0  0  0  0
  148.5313  134.9105  182.5279 H   0  0  0  0  0  0  0  0  0  0  0  0
  149.7418  138.0860  182.8062 C   0  0  0  0  0  0  0  0  0  0  0  0
  150.1609  138.7051  181.5485 C   0  0  0  0  0  0  0  0  0  0  0  0
  149.4206  138.5833  180.3972 C   0  0  0  0  0  0  0  0  0  0  0  0
  149.7965  139.1598  179.2085 C   0  0  0  0  0  0  0  0  0  0  0  0
  150.9477  139.8975  179.1087 C   0  0  0  0  0  0  0  0  0  0  0  0
  151.7134  140.0395  180.2454 C   0  0  0  0  0  0  0  0  0  0  0  0
  151.3324  139.4592  181.4373 C   0  0  0  0  0  0  0  0  0  0  0  0
  154.3437  137.1752  186.2748 C   0  0  0  0  0  0  0  0  0  0  0  0
  153.6522  138.3876  188.3099 C   0  0  0  0  0  0  0  0  0  0  0  0
  154.6690  138.2883  187.2020 C   0  0  0  0  0  0  0  0  0  0  0  0
  156.0308  137.9708  187.8257 C   0  0  0  0  0  0  0  0  0  0  0  0
 48 49  1  0  0  0
 49 50  1  0  0  0
 49 47  1  0  0  0
 47 29  1  0  0  0
 29  1  1  0  0  0
  1  2  1  0  0  0
  2  3  2  0  0  0
  2  5  1  0  0  0
  5  6  1  0  0  0
  6  7  1  0  0  0
  7  8  1  0  0  0
  8  9  1  0  0  0
  9 10  1  0  0  0
 10 11  2  0  0  0
 10 12  1  0  0  0
 12 18  1  0  0  0
 18 19  1  0  0  0
 19 20  1  0  0  0
 20 21  1  0  0  0
 21 23  1  0  0  0
 23 24  1  0  0  0
 23 25  2  0  0  0
 12 13  1  0  0  0
 13 14  1  0  0  0
 14 15  1  0  0  0
 14 16  2  0  0  0
 29 30  1  0  0  0
 30 31  2  0  0  0
 30 32  1  0  0  0
 32 34  1  0  0  0
 34 40  1  0  0  0
 40 41  1  0  0  0
 41 42  2  0  0  0
 42 43  1  0  0  0
 43 44  2  0  0  0
 44 45  1  0  0  0
 45 46  2  0  0  0
 34 35  1  0  0  0
 35 36  1  0  0  0
 35 37  2  0  0  0
  9  5  1  0  0  0
 46 41  1  0  0  0
  1  4  1  0  0  0
 21 22  1  0  0  0
 24 26  1  0  0  0
 24 27  1  0  0  0
 25 28  1  0  0  0
 13 17  1  0  0  0
 32 33  1  0  0  0
 36 38  1  0  0  0
 36 39  1  0  0  0
M  END
> <minimizedAffinity>
-8.36464

> <CNNscore>
0.3921512365

> <CNNaffinity>
6.9426803589

> <CNN_VS>
2.7225806713

> <CNNaffinity_variance>
0.2802737355

$$$$
[H]N=C(N([H])[H])N([H])C([H])([H])C([H])([H])C([H])([H])[C@@]([H])(C(=O)N1C([H])([H])C([H])([H])C([H])([H])[C@@]1([H])C(=O)N([H])[C@]([H])(C(=O)N([H])[C@]([H])(C(=O)N([H])[H])C([H])([H])c1c([H])c([H])c([H])c([H])c1[H])C([H])([H])C([H])(C([H])([H])[H])C([H])([H])[H])N([H])C(=O)C([H])([H])[H]


 50 51  0  0  0  0  0  0  0  0999 V2000
  153.1737  137.3652  187.4787 N   0  0  0  0  0  0  0  0  0  0  0  0
  153.3344  136.7977  186.2106 C   0  0  0  0  0  0  0  0  0  0  0  0
  154.1211  135.8197  186.0697 O   0  0  0  0  0  0  0  0  0  0  0  0
  152.5530  138.1525  187.6600 H   0  0  0  0  0  0  0  0  0  0  0  0
  152.5614  137.3904  185.0791 C   0  0  0  0  0  0  0  0  0  0  0  0
  152.0025  136.2394  184.2299 C   0  0  0  0  0  0  0  0  0  0  0  0
  151.5964  137.0243  183.0034 C   0  0  0  0  0  0  0  0  0  0  0  0
  152.8389  137.9207  182.8206 C   0  0  0  0  0  0  0  0  0  0  0  0
  153.3962  138.1225  184.1360 N   0  0  0  0  0  0  0  0  0  0  0  0
  154.5179  138.9071  184.5082 C   0  0  0  0  0  0  0  0  0  0  0  0
  154.7617  138.9486  185.7884 O   0  0  0  0  0  0  0  0  0  0  0  0
  155.4672  139.6860  183.7326 C   0  0  0  0  0  0  0  0  0  0  0  0
  155.0576  141.0843  183.6307 N   0  0  0  0  0  0  0  0  0  0  0  0
  154.3758  141.6840  182.5789 C   0  0  0  0  0  0  0  0  0  0  0  0
  154.0379  143.1500  182.6411 C   0  0  0  0  0  0  0  0  0  0  0  0
  153.9971  141.0992  181.5361 O   0  0  0  0  0  0  0  0  0  0  0  0
  155.3328  141.6651  184.4713 H   0  0  0  0  0  0  0  0  0  0  0  0
  156.8766  139.6018  184.1743 C   0  0  0  0  0  0  0  0  0  0  0  0
  157.7703  140.7196  183.6537 C   0  0  0  0  0  0  0  0  0  0  0  0
  158.4521  140.3000  182.3868 C   0  0  0  0  0  0  0  0  0  0  0  0
  157.7007  140.7545  181.2199 N   0  0  0  0  0  0  0  0  0  0  0  0
  156.8085  140.3378  180.8934 H   0  0  0  0  0  0  0  0  0  0  0  0
  158.2383  141.8384  180.4882 C   0  0  0  0  0  0  0  0  0  0  0  0
  158.7421  143.0135  181.1329 N   0  0  0  0  0  0  0  0  0  0  0  0
  158.2988  141.8117  179.2185 N   0  0  0  0  0  0  0  0  0  0  0  0
  158.7236  143.9490  180.6330 H   0  0  0  0  0  0  0  0  0  0  0  0
  159.1346  142.9943  182.0900 H   0  0  0  0  0  0  0  0  0  0  0  0
  157.9665  141.0120  178.6407 H   0  0  0  0  0  0  0  0  0  0  0  0
  153.9325  136.8045  188.6146 C   0  0  0  0  0  0  0  0  0  0  0  0
  153.0529  135.9470  189.4268 C   0  0  0  0  0  0  0  0  0  0  0  0
  153.5151  134.9002  190.0005 O   0  0  0  0  0  0  0  0  0  0  0  0
  151.6962  136.2330  189.6091 N   0  0  0  0  0  0  0  0  0  0  0  0
  151.2220  137.0593  189.2153 H   0  0  0  0  0  0  0  0  0  0  0  0
  150.8153  135.3611  190.4180 C   0  0  0  0  0  0  0  0  0  0  0  0
  149.6835  134.9405  189.5908 C   0  0  0  0  0  0  0  0  0  0  0  0
  148.3537  134.8010  190.0188 N   0  0  0  0  0  0  0  0  0  0  0  0
  149.9098  134.6630  188.3537 O   0  0  0  0  0  0  0  0  0  0  0  0
  147.5628  134.9918  189.3732 H   0  0  0  0  0  0  0  0  0  0  0  0
  148.1663  134.4998  190.9972 H   0  0  0  0  0  0  0  0  0  0  0  0
  150.3556  136.1497  191.6258 C   0  0  0  0  0  0  0  0  0  0  0  0
  150.8436  135.6823  192.9235 C   0  0  0  0  0  0  0  0  0  0  0  0
  152.1850  135.5420  193.1870 C   0  0  0  0  0  0  0  0  0  0  0  0
  152.6618  135.1078  194.3997 C   0  0  0  0  0  0  0  0  0  0  0  0
  151.8101  134.7869  195.4250 C   0  0  0  0  0  0  0  0  0  0  0  0
  150.4580  134.9166  195.1936 C   0  0  0  0  0  0  0  0  0  0  0  0
  149.9831  135.3533  193.9746 C   0  0  0  0  0  0  0  0  0  0  0  0
  154.3114  138.0405  189.4537 C   0  0  0  0  0  0  0  0  0  0  0  0
  156.0382  137.7308  191.1893 C   0  0  0  0  0  0  0  0  0  0  0  0
  155.7638  138.1058  189.7558 C   0  0  0  0  0  0  0  0  0  0  0  0
  156.4579  137.0849  188.8499 C   0  0  0  0  0  0  0  0  0  0  0  0
 48 49  1  0  0  0
 49 50  1  0  0  0
 49 47  1  0  0  0
 47 29  1  0  0  0
 29  1  1  0  0  0
  1  2  1  0  0  0
  2  3  2  0  0  0
  2  5  1  0  0  0
  5  6  1  0  0  0
  6  7  1  0  0  0
  7  8  1  0  0  0
  8  9  1  0  0  0
  9 10  1  0  0  0
 10 11  2  0  0  0
 10 12  1  0  0  0
 12 18  1  0  0  0
 18 19  1  0  0  0
 19 20  1  0  0  0
 20 21  1  0  0  0
 21 23  1  0  0  0
 23 24  1  0  0  0
 23 25  2  0  0  0
 12 13  1  0  0  0
 13 14  1  0  0  0
 14 15  1  0  0  0
 14 16  2  0  0  0
 29 30  1  0  0  0
 30 31  2  0  0  0
 30 32  1  0  0  0
 32 34  1  0  0  0
 34 40  1  0  0  0
 40 41  1  0  0  0
 41 42  2  0  0  0
 42 43  1  0  0  0
 43 44  2  0  0  0
 44 45  1  0  0  0
 45 46  2  0  0  0
 34 35  1  0  0  0
 35 36  1  0  0  0
 35 37  2  0  0  0
  9  5  1  0  0  0
 46 41  1  0  0  0
  1  4  1  0  0  0
 21 22  1  0  0  0
 24 26  1  0  0  0
 24 27  1  0  0  0
 25 28  1  0  0  0
 13 17  1  0  0  0
 32 33  1  0  0  0
 36 38  1  0  0  0
 36 39  1  0  0  0
M  END
> <minimizedAffinity>
-7.26540

> <CNNscore>
0.3107210696

> <CNNaffinity>
6.2128725052

> <CNN_VS>
1.9304703474

> <CNNaffinity_variance>
0.1178786904

$$$$
[H]N=C(N([H])[H])N([H])C([H])([H])C([H])([H])C([H])([H])[C@@]([H])(C(=O)N1C([H])([H])C([H])([H])C([H])([H])[C@@]1([H])C(=O)N([H])[C@]([H])(C(=O)N([H])[C@]([H])(C(=O)N([H])[H])C([H])([H])c1c([H])c([H])c([H])c([H])c1[H])C([H])([H])C([H])(C([H])([H])[H])C([H])([H])[H])N([H])C(=O)C([H])([H])[H]


 50 51  0  0  0  0  0  0  0  0999 V2000
  154.5537  138.5277  186.2425 N   0  0  0  0  0  0  0  0  0  0  0  0
  154.5926  138.5226  184.8445 C   0  0  0  0  0  0  0  0  0  0  0  0
  154.9458  137.4696  184.2430 O   0  0  0  0  0  0  0  0  0  0  0  0
  154.2749  139.3423  186.7871 H   0  0  0  0  0  0  0  0  0  0  0  0
  154.2147  139.7792  184.1324 C   0  0  0  0  0  0  0  0  0  0  0  0
  153.3528  139.3985  182.9199 C   0  0  0  0  0  0  0  0  0  0  0  0
  153.3945  140.7139  182.1760 C   0  0  0  0  0  0  0  0  0  0  0  0
  154.8940  141.0569  182.2980 C   0  0  0  0  0  0  0  0  0  0  0  0
  155.3523  140.4603  183.5291 N   0  0  0  0  0  0  0  0  0  0  0  0
  156.6433  140.5247  184.1136 C   0  0  0  0  0  0  0  0  0  0  0  0
  156.7562  139.9299  185.2685 O   0  0  0  0  0  0  0  0  0  0  0  0
  157.8874  141.1307  183.6727 C   0  0  0  0  0  0  0  0  0  0  0  0
  157.7181  142.5517  183.3805 N   0  0  0  0  0  0  0  0  0  0  0  0
  157.9936  143.2003  182.1830 C   0  0  0  0  0  0  0  0  0  0  0  0
  157.7625  144.6832  182.0611 C   0  0  0  0  0  0  0  0  0  0  0  0
  158.4357  142.6485  181.1472 O   0  0  0  0  0  0  0  0  0  0  0  0
  157.3443  143.1075  184.1997 H   0  0  0  0  0  0  0  0  0  0  0  0
  159.0486  140.9323  184.5676 C   0  0  0  0  0  0  0  0  0  0  0  0
  160.3851  141.3549  183.9725 C   0  0  0  0  0  0  0  0  0  0  0  0
  160.8438  142.6477  184.5764 C   0  0  0  0  0  0  0  0  0  0  0  0
  162.0990  142.4641  185.3000 N   0  0  0  0  0  0  0  0  0  0  0  0
  162.9941  142.1719  184.8644 H   0  0  0  0  0  0  0  0  0  0  0  0
  162.0810  142.7010  186.6938 C   0  0  0  0  0  0  0  0  0  0  0  0
  163.2352  142.4892  187.5144 N   0  0  0  0  0  0  0  0  0  0  0  0
  161.0317  143.1176  187.2785 N   0  0  0  0  0  0  0  0  0  0  0  0
  163.1255  142.2362  188.5388 H   0  0  0  0  0  0  0  0  0  0  0  0
  164.1986  142.5733  187.1466 H   0  0  0  0  0  0  0  0  0  0  0  0
  160.1340  143.3096  186.7876 H   0  0  0  0  0  0  0  0  0  0  0  0
  154.9306  137.3011  186.9731 C   0  0  0  0  0  0  0  0  0  0  0  0
  153.7586  136.4191  187.1043 C   0  0  0  0  0  0  0  0  0  0  0  0
  153.8017  135.2132  186.6771 O   0  0  0  0  0  0  0  0  0  0  0  0
  152.5659  136.8490  187.6944 N   0  0  0  0  0  0  0  0  0  0  0  0
  152.4248  137.7889  188.0936 H   0  0  0  0  0  0  0  0  0  0  0  0
  151.3881  135.9607  187.8135 C   0  0  0  0  0  0  0  0  0  0  0  0
  150.3335  136.4584  186.9291 C   0  0  0  0  0  0  0  0  0  0  0  0
  150.5094  136.9375  185.6212 N   0  0  0  0  0  0  0  0  0  0  0  0
  149.1259  136.4708  187.3766 O   0  0  0  0  0  0  0  0  0  0  0  0
  149.7720  136.8065  184.9015 H   0  0  0  0  0  0  0  0  0  0  0  0
  151.3925  137.4314  185.3780 H   0  0  0  0  0  0  0  0  0  0  0  0
  150.9437  135.9622  189.2607 C   0  0  0  0  0  0  0  0  0  0  0  0
  151.9999  135.7896  190.2584 C   0  0  0  0  0  0  0  0  0  0  0  0
  152.7383  134.6338  190.3414 C   0  0  0  0  0  0  0  0  0  0  0  0
  153.7355  134.4549  191.2690 C   0  0  0  0  0  0  0  0  0  0  0  0
  154.0493  135.4360  192.1736 C   0  0  0  0  0  0  0  0  0  0  0  0
  153.3276  136.6083  192.1174 C   0  0  0  0  0  0  0  0  0  0  0  0
  152.3272  136.7842  191.1843 C   0  0  0  0  0  0  0  0  0  0  0  0
  155.3132  137.8085  188.3772 C   0  0  0  0  0  0  0  0  0  0  0  0
  156.9823  135.9934  188.4755 C   0  0  0  0  0  0  0  0  0  0  0  0
  155.9160  136.7494  189.2256 C   0  0  0  0  0  0  0  0  0  0  0  0
  156.5716  137.4485  190.4197 C   0  0  0  0  0  0  0  0  0  0  0  0
 48 49  1  0  0  0
 49 50  1  0  0  0
 49 47  1  0  0  0
 47 29  1  0  0  0
 29  1  1  0  0  0
  1  2  1  0  0  0
  2  3  2  0  0  0
  2  5  1  0  0  0
  5  6  1  0  0  0
  6  7  1  0  0  0
  7  8  1  0  0  0
  8  9  1  0  0  0
  9 10  1  0  0  0
 10 11  2  0  0  0
 10 12  1  0  0  0
 12 18  1  0  0  0
 18 19  1  0  0  0
 19 20  1  0  0  0
 20 21  1  0  0  0
 21 23  1  0  0  0
 23 24  1  0  0  0
 23 25  2  0  0  0
 12 13  1  0  0  0
 13 14  1  0  0  0
 14 15  1  0  0  0
 14 16  2  0  0  0
 29 30  1  0  0  0
 30 31  2  0  0  0
 30 32  1  0  0  0
 32 34  1  0  0  0
 34 40  1  0  0  0
 40 41  1  0  0  0
 41 42  2  0  0  0
 42 43  1  0  0  0
 43 44  2  0  0  0
 44 45  1  0  0  0
 45 46  2  0  0  0
 34 35  1  0  0  0
 35 36  1  0  0  0
 35 37  2  0  0  0
  9  5  1  0  0  0
 46 41  1  0  0  0
  1  4  1  0  0  0
 21 22  1  0  0  0
 24 26  1  0  0  0
 24 27  1  0  0  0
 25 28  1  0  0  0
 13 17  1  0  0  0
 32 33  1  0  0  0
 36 38  1  0  0  0
 36 39  1  0  0  0
M  END
> <minimizedAffinity>
-7.20048

> <CNNscore>
0.3006394804

> <CNNaffinity>
6.8557257652

> <CNN_VS>
2.0611019135

> <CNNaffinity_variance>
0.1849035323

$$$$
[H]N=C(N([H])[H])N([H])C([H])([H])C([H])([H])C([H])([H])[C@@]([H])(C(=O)N1C([H])([H])C([H])([H])C([H])([H])[C@@]1([H])C(=O)N([H])[C@]([H])(C(=O)N([H])[C@]([H])(C(=O)N([H])[H])C([H])([H])c1c([H])c([H])c([H])c([H])c1[H])C([H])([H])C([H])(C([H])([H])[H])C([H])([H])[H])N([H])C(=O)C([H])([H])[H]


 50 51  0  0  0  0  0  0  0  0999 V2000
  155.3237  139.2945  184.5154 N   0  0  0  0  0  0  0  0  0  0  0  0
  154.1265  138.6065  184.7376 C   0  0  0  0  0  0  0  0  0  0  0  0
  153.1496  138.8061  183.9623 O   0  0  0  0  0  0  0  0  0  0  0  0
  156.1487  139.1764  185.1013 H   0  0  0  0  0  0  0  0  0  0  0  0
  154.0676  137.6669  185.8963 C   0  0  0  0  0  0  0  0  0  0  0  0
  155.1033  138.1246  186.9335 C   0  0  0  0  0  0  0  0  0  0  0  0
  155.1329  136.8877  187.8020 C   0  0  0  0  0  0  0  0  0  0  0  0
  155.1849  135.7879  186.7210 C   0  0  0  0  0  0  0  0  0  0  0  0
  154.5062  136.3182  185.5635 N   0  0  0  0  0  0  0  0  0  0  0  0
  154.2481  135.6805  184.3229 C   0  0  0  0  0  0  0  0  0  0  0  0
  153.5609  136.3890  183.4709 O   0  0  0  0  0  0  0  0  0  0  0  0
  154.6053  134.3724  183.8026 C   0  0  0  0  0  0  0  0  0  0  0  0
  153.7805  133.3187  184.3881 N   0  0  0  0  0  0  0  0  0  0  0  0
  152.4423  133.0555  184.1216 C   0  0  0  0  0  0  0  0  0  0  0  0
  151.7442  131.9233  184.8273 C   0  0  0  0  0  0  0  0  0  0  0  0
  151.7262  133.6962  183.3158 O   0  0  0  0  0  0  0  0  0  0  0  0
  154.3004  132.7170  185.0861 H   0  0  0  0  0  0  0  0  0  0  0  0
  154.6127  134.2498  182.3284 C   0  0  0  0  0  0  0  0  0  0  0  0
  155.4053  133.0632  181.7964 C   0  0  0  0  0  0  0  0  0  0  0  0
  156.2792  133.4849  180.6543 C   0  0  0  0  0  0  0  0  0  0  0  0
  156.9849  132.3368  180.0916 N   0  0  0  0  0  0  0  0  0  0  0  0
  156.6704  131.7994  179.2618 H   0  0  0  0  0  0  0  0  0  0  0  0
  158.1793  131.9355  180.7332 C   0  0  0  0  0  0  0  0  0  0  0  0
  158.2558  130.7375  181.5138 N   0  0  0  0  0  0  0  0  0  0  0  0
  159.2424  132.6265  180.6398 N   0  0  0  0  0  0  0  0  0  0  0  0
  158.9472  130.6628  182.3149 H   0  0  0  0  0  0  0  0  0  0  0  0
  157.6522  129.9176  181.3294 H   0  0  0  0  0  0  0  0  0  0  0  0
  159.3096  133.5134  180.0990 H   0  0  0  0  0  0  0  0  0  0  0  0
  155.4075  140.2367  183.3816 C   0  0  0  0  0  0  0  0  0  0  0  0
  156.8193  140.5003  183.0559 C   0  0  0  0  0  0  0  0  0  0  0  0
  157.6608  139.5382  182.9862 O   0  0  0  0  0  0  0  0  0  0  0  0
  157.2977  141.7909  182.8086 N   0  0  0  0  0  0  0  0  0  0  0  0
  156.7081  142.6365  182.8140 H   0  0  0  0  0  0  0  0  0  0  0  0
  158.7201  142.0501  182.4923 C   0  0  0  0  0  0  0  0  0  0  0  0
  158.9342  141.8129  181.0640 C   0  0  0  0  0  0  0  0  0  0  0  0
  158.7074  140.6059  180.3836 N   0  0  0  0  0  0  0  0  0  0  0  0
  159.3765  142.7887  180.3494 O   0  0  0  0  0  0  0  0  0  0  0  0
  158.3954  140.6027  179.3929 H   0  0  0  0  0  0  0  0  0  0  0  0
  158.8584  139.7066  180.8850 H   0  0  0  0  0  0  0  0  0  0  0  0
  159.5656  141.1238  183.3403 C   0  0  0  0  0  0  0  0  0  0  0  0
  160.1942  141.7234  184.5176 C   0  0  0  0  0  0  0  0  0  0  0  0
  159.4848  141.9865  185.6647 C   0  0  0  0  0  0  0  0  0  0  0  0
  160.0583  142.5460  186.7804 C   0  0  0  0  0  0  0  0  0  0  0  0
  161.3888  142.8758  186.8064 C   0  0  0  0  0  0  0  0  0  0  0  0
  162.1292  142.6247  185.6719 C   0  0  0  0  0  0  0  0  0  0  0  0
  161.5497  142.0625  184.5536 C   0  0  0  0  0  0  0  0  0  0  0  0
  154.7878  141.5359  183.9323 C   0  0  0  0  0  0  0  0  0  0  0  0
  154.1346  143.4973  182.5847 C   0  0  0  0  0  0  0  0  0  0  0  0
  153.7571  142.1078  183.0294 C   0  0  0  0  0  0  0  0  0  0  0  0
  153.6931  141.2074  181.7926 C   0  0  0  0  0  0  0  0  0  0  0  0
 48 49  1  0  0  0
 49 50  1  0  0  0
 49 47  1  0  0  0
 47 29  1  0  0  0
 29  1  1  0  0  0
  1  2  1  0  0  0
  2  3  2  0  0  0
  2  5  1  0  0  0
  5  6  1  0  0  0
  6  7  1  0  0  0
  7  8  1  0  0  0
  8  9  1  0  0  0
  9 10  1  0  0  0
 10 11  2  0  0  0
 10 12  1  0  0  0
 12 18  1  0  0  0
 18 19  1  0  0  0
 19 20  1  0  0  0
 20 21  1  0  0  0
 21 23  1  0  0  0
 23 24  1  0  0  0
 23 25  2  0  0  0
 12 13  1  0  0  0
 13 14  1  0  0  0
 14 15  1  0  0  0
 14 16  2  0  0  0
 29 30  1  0  0  0
 30 31  2  0  0  0
 30 32  1  0  0  0
 32 34  1  0  0  0
 34 40  1  0  0  0
 40 41  1  0  0  0
 41 42  2  0  0  0
 42 43  1  0  0  0
 43 44  2  0  0  0
 44 45  1  0  0  0
 45 46  2  0  0  0
 34 35  1  0  0  0
 35 36  1  0  0  0
 35 37  2  0  0  0
  9  5  1  0  0  0
 46 41  1  0  0  0
  1  4  1  0  0  0
 21 22  1  0  0  0
 24 26  1  0  0  0
 24 27  1  0  0  0
 25 28  1  0  0  0
 13 17  1  0  0  0
 32 33  1  0  0  0
 36 38  1  0  0  0
 36 39  1  0  0  0
M  END
> <minimizedAffinity>
-7.71776

> <CNNscore>
0.2978577316

> <CNNaffinity>
6.9273252487

> <CNN_VS>
2.0633573532

> <CNNaffinity_variance>
0.0766812935

$$$$
[H]N=C(N([H])[H])N([H])C([H])([H])C([H])([H])C([H])([H])[C@@]([H])(C(=O)N1C([H])([H])C([H])([H])C([H])([H])[C@@]1([H])C(=O)N([H])[C@]([H])(C(=O)N([H])[C@]([H])(C(=O)N([H])[H])C([H])([H])c1c([H])c([H])c([H])c([H])c1[H])C([H])([H])C([H])(C([H])([H])[H])C([H])([H])[H])N([H])C(=O)C([H])([H])[H]


 50 51  0  0  0  0  0  0  0  0999 V2000
  154.2341  137.5872  187.3334 N   0  0  0  0  0  0  0  0  0  0  0  0
  154.1396  137.2178  185.9878 C   0  0  0  0  0  0  0  0  0  0  0  0
  154.6228  136.1108  185.6186 O   0  0  0  0  0  0  0  0  0  0  0  0
  153.8625  138.4638  187.6958 H   0  0  0  0  0  0  0  0  0  0  0  0
  153.4691  138.1668  185.0503 C   0  0  0  0  0  0  0  0  0  0  0  0
  152.6264  137.3456  184.0637 C   0  0  0  0  0  0  0  0  0  0  0  0
  152.3518  138.4187  183.0349 C   0  0  0  0  0  0  0  0  0  0  0  0
  153.7550  139.0474  182.9051 C   0  0  0  0  0  0  0  0  0  0  0  0
  154.4033  138.8705  184.1818 N   0  0  0  0  0  0  0  0  0  0  0  0
  155.6891  139.3119  184.5870 C   0  0  0  0  0  0  0  0  0  0  0  0
  155.9948  139.0549  185.8283 O   0  0  0  0  0  0  0  0  0  0  0  0
  156.7531  140.0039  183.8810 C   0  0  0  0  0  0  0  0  0  0  0  0
  156.4135  141.4034  183.6373 N   0  0  0  0  0  0  0  0  0  0  0  0
  156.2134  142.0157  182.4061 C   0  0  0  0  0  0  0  0  0  0  0  0
  155.8726  143.4810  182.3422 C   0  0  0  0  0  0  0  0  0  0  0  0
  156.2921  141.4435  181.2929 O   0  0  0  0  0  0  0  0  0  0  0  0
  156.3221  141.9741  184.5236 H   0  0  0  0  0  0  0  0  0  0  0  0
  158.0962  139.9077  184.4937 C   0  0  0  0  0  0  0  0  0  0  0  0
  159.2501  139.9803  183.5025 C   0  0  0  0  0  0  0  0  0  0  0  0
  160.1415  141.1430  183.8184 C   0  0  0  0  0  0  0  0  0  0  0  0
  159.7664  141.7514  185.0920 N   0  0  0  0  0  0  0  0  0  0  0  0
  158.9250  141.4965  185.6428 H   0  0  0  0  0  0  0  0  0  0  0  0
  160.6159  142.7610  185.6000 C   0  0  0  0  0  0  0  0  0  0  0  0
  160.8928  143.9595  184.8669 N   0  0  0  0  0  0  0  0  0  0  0  0
  161.1704  142.6454  186.7383 N   0  0  0  0  0  0  0  0  0  0  0  0
  161.8099  144.4740  185.0071 H   0  0  0  0  0  0  0  0  0  0  0  0
  160.2228  144.3598  184.1876 H   0  0  0  0  0  0  0  0  0  0  0  0
  161.0428  141.8221  187.3624 H   0  0  0  0  0  0  0  0  0  0  0  0
  154.8998  136.6716  188.2815 C   0  0  0  0  0  0  0  0  0  0  0  0
  153.8877  135.9411  189.0630 C   0  0  0  0  0  0  0  0  0  0  0  0
  154.1666  134.8086  189.5904 O   0  0  0  0  0  0  0  0  0  0  0  0
  152.5982  136.4433  189.2650 N   0  0  0  0  0  0  0  0  0  0  0  0
  152.2702  137.3532  188.9084 H   0  0  0  0  0  0  0  0  0  0  0  0
  151.5824  135.6991  190.0426 C   0  0  0  0  0  0  0  0  0  0  0  0
  150.4336  135.4293  189.1769 C   0  0  0  0  0  0  0  0  0  0  0  0
  149.0865  135.4133  189.5722 N   0  0  0  0  0  0  0  0  0  0  0  0
  150.6599  135.1755  187.9347 O   0  0  0  0  0  0  0  0  0  0  0  0
  148.3353  135.7090  188.9186 H   0  0  0  0  0  0  0  0  0  0  0  0
  148.8454  135.0973  190.5340 H   0  0  0  0  0  0  0  0  0  0  0  0
  151.1906  136.5463  191.2346 C   0  0  0  0  0  0  0  0  0  0  0  0
  151.5125  135.9937  192.5505 C   0  0  0  0  0  0  0  0  0  0  0  0
  150.5915  135.9626  193.5698 C   0  0  0  0  0  0  0  0  0  0  0  0
  150.8744  135.4451  194.8104 C   0  0  0  0  0  0  0  0  0  0  0  0
  152.1098  134.9255  195.0991 C   0  0  0  0  0  0  0  0  0  0  0  0
  153.0568  134.9413  194.0985 C   0  0  0  0  0  0  0  0  0  0  0  0
  152.7688  135.4615  192.8540 C   0  0  0  0  0  0  0  0  0  0  0  0
  155.6597  137.6138  189.2355 C   0  0  0  0  0  0  0  0  0  0  0  0
  156.3327  136.9071  191.5021 C   0  0  0  0  0  0  0  0  0  0  0  0
  155.2263  137.4713  190.6485 C   0  0  0  0  0  0  0  0  0  0  0  0
  154.8920  138.8751  191.1601 C   0  0  0  0  0  0  0  0  0  0  0  0
 48 49  1  0  0  0
 49 50  1  0  0  0
 49 47  1  0  0  0
 47 29  1  0  0  0
 29  1  1  0  0  0
  1  2  1  0  0  0
  2  3  2  0  0  0
  2  5  1  0  0  0
  5  6  1  0  0  0
  6  7  1  0  0  0
  7  8  1  0  0  0
  8  9  1  0  0  0
  9 10  1  0  0  0
 10 11  2  0  0  0
 10 12  1  0  0  0
 12 18  1  0  0  0
 18 19  1  0  0  0
 19 20  1  0  0  0
 20 21  1  0  0  0
 21 23  1  0  0  0
 23 24  1  0  0  0
 23 25  2  0  0  0
 12 13  1  0  0  0
 13 14  1  0  0  0
 14 15  1  0  0  0
 14 16  2  0  0  0
 29 30  1  0  0  0
 30 31  2  0  0  0
 30 32  1  0  0  0
 32 34  1  0  0  0
 34 40  1  0  0  0
 40 41  1  0  0  0
 41 42  2  0  0  0
 42 43  1  0  0  0
 43 44  2  0  0  0
 44 45  1  0  0  0
 45 46  2  0  0  0
 34 35  1  0  0  0
 35 36  1  0  0  0
 35 37  2  0  0  0
  9  5  1  0  0  0
 46 41  1  0  0  0
  1  4  1  0  0  0
 21 22  1  0  0  0
 24 26  1  0  0  0
 24 27  1  0  0  0
 25 28  1  0  0  0
 13 17  1  0  0  0
 32 33  1  0  0  0
 36 38  1  0  0  0
 36 39  1  0  0  0
M  END
> <minimizedAffinity>
-7.22718

> <CNNscore>
0.2576866746

> <CNNaffinity>
6.5256128311

> <CNN_VS>
1.6815634966

> <CNNaffinity_variance>
0.1429806948

$$$$
[H]N=C(N([H])[H])N([H])C([H])([H])C([H])([H])C([H])([H])[C@@]([H])(C(=O)N1C([H])([H])C([H])([H])C([H])([H])[C@@]1([H])C(=O)N([H])[C@]([H])(C(=O)N([H])[C@]([H])(C(=O)N([H])[H])C([H])([H])c1c([H])c([H])c([H])c([H])c1[H])C([H])([H])C([H])(C([H])([H])[H])C([H])([H])[H])N([H])C(=O)C([H])([H])[H]


 50 51  0  0  0  0  0  0  0  0999 V2000
  151.4364  136.4351  187.1914 N   0  0  0  0  0  0  0  0  0  0  0  0
  150.3023  136.0018  186.4972 C   0  0  0  0  0  0  0  0  0  0  0  0
  150.1360  134.7650  186.3022 O   0  0  0  0  0  0  0  0  0  0  0  0
  151.6276  137.4171  187.3844 H   0  0  0  0  0  0  0  0  0  0  0  0
  149.3424  137.0385  186.0146 C   0  0  0  0  0  0  0  0  0  0  0  0
  147.9271  136.6024  186.4206 C   0  0  0  0  0  0  0  0  0  0  0  0
  147.1287  137.5506  185.5552 C   0  0  0  0  0  0  0  0  0  0  0  0
  147.8949  137.4248  184.2217 C   0  0  0  0  0  0  0  0  0  0  0  0
  149.2619  137.1131  184.5620 N   0  0  0  0  0  0  0  0  0  0  0  0
  150.3700  136.9408  183.6932 C   0  0  0  0  0  0  0  0  0  0  0  0
  151.5081  136.7164  184.2887 O   0  0  0  0  0  0  0  0  0  0  0  0
  150.4910  136.9630  182.2461 C   0  0  0  0  0  0  0  0  0  0  0  0
  150.7784  138.3073  181.7523 N   0  0  0  0  0  0  0  0  0  0  0  0
  150.4806  138.8208  180.4960 C   0  0  0  0  0  0  0  0  0  0  0  0
  150.8586  140.2378  180.1545 C   0  0  0  0  0  0  0  0  0  0  0  0
  149.9025  138.1930  179.5770 O   0  0  0  0  0  0  0  0  0  0  0  0
  151.2684  138.9199  182.4624 H   0  0  0  0  0  0  0  0  0  0  0  0
  151.4496  135.9955  181.6688 C   0  0  0  0  0  0  0  0  0  0  0  0
  150.8585  134.6261  181.3616 C   0  0  0  0  0  0  0  0  0  0  0  0
  151.9374  133.6659  180.9615 C   0  0  0  0  0  0  0  0  0  0  0  0
  153.2433  134.3196  180.9767 N   0  0  0  0  0  0  0  0  0  0  0  0
  153.4639  135.1855  181.5039 H   0  0  0  0  0  0  0  0  0  0  0  0
  154.2725  133.7232  180.2124 C   0  0  0  0  0  0  0  0  0  0  0  0
  155.6484  133.7994  180.6018 N   0  0  0  0  0  0  0  0  0  0  0  0
  154.0152  133.0880  179.1415 N   0  0  0  0  0  0  0  0  0  0  0  0
  156.4155  133.7644  179.8698 H   0  0  0  0  0  0  0  0  0  0  0  0
  155.9393  133.8895  181.5906 H   0  0  0  0  0  0  0  0  0  0  0  0
  153.0547  132.9637  178.7598 H   0  0  0  0  0  0  0  0  0  0  0  0
  152.4072  135.4320  187.6729 C   0  0  0  0  0  0  0  0  0  0  0  0
  152.1199  135.0943  189.0772 C   0  0  0  0  0  0  0  0  0  0  0  0
  151.5427  133.9914  189.3755 O   0  0  0  0  0  0  0  0  0  0  0  0
  152.4613  135.9462  190.1324 N   0  0  0  0  0  0  0  0  0  0  0  0
  152.9487  136.8467  190.0134 H   0  0  0  0  0  0  0  0  0  0  0  0
  152.1601  135.6056  191.5409 C   0  0  0  0  0  0  0  0  0  0  0  0
  151.0686  136.4615  192.0077 C   0  0  0  0  0  0  0  0  0  0  0  0
  151.1743  137.4937  192.9536 N   0  0  0  0  0  0  0  0  0  0  0  0
  149.8933  136.2609  191.5208 O   0  0  0  0  0  0  0  0  0  0  0  0
  150.5741  138.3390  192.8899 H   0  0  0  0  0  0  0  0  0  0  0  0
  151.8642  137.4019  193.7273 H   0  0  0  0  0  0  0  0  0  0  0  0
  153.4186  135.8197  192.3548 C   0  0  0  0  0  0  0  0  0  0  0  0
  154.5008  136.5443  191.6880 C   0  0  0  0  0  0  0  0  0  0  0  0
  154.5489  137.9174  191.6654 C   0  0  0  0  0  0  0  0  0  0  0  0
  155.5581  138.6148  191.0474 C   0  0  0  0  0  0  0  0  0  0  0  0
  156.5848  137.9658  190.4115 C   0  0  0  0  0  0  0  0  0  0  0  0
  156.5667  136.5881  190.4158 C   0  0  0  0  0  0  0  0  0  0  0  0
  155.5517  135.8915  191.0377 C   0  0  0  0  0  0  0  0  0  0  0  0
  153.7595  136.1694  187.6200 C   0  0  0  0  0  0  0  0  0  0  0  0
  153.6958  138.5931  188.0801 C   0  0  0  0  0  0  0  0  0  0  0  0
  153.6519  137.5232  187.0197 C   0  0  0  0  0  0  0  0  0  0  0  0
  154.8635  137.7057  186.1015 C   0  0  0  0  0  0  0  0  0  0  0  0
 48 49  1  0  0  0
 49 50  1  0  0  0
 49 47  1  0  0  0
 47 29  1  0  0  0
 29  1  1  0  0  0
  1  2  1  0  0  0
  2  3  2  0  0  0
  2  5  1  0  0  0
  5  6  1  0  0  0
  6  7  1  0  0  0
  7  8  1  0  0  0
  8  9  1  0  0  0
  9 10  1  0  0  0
 10 11  2  0  0  0
 10 12  1  0  0  0
 12 18  1  0  0  0
 18 19  1  0  0  0
 19 20  1  0  0  0
 20 21  1  0  0  0
 21 23  1  0  0  0
 23 24  1  0  0  0
 23 25  2  0  0  0
 12 13  1  0  0  0
 13 14  1  0  0  0
 14 15  1  0  0  0
 14 16  2  0  0  0
 29 30  1  0  0  0
 30 31  2  0  0  0
 30 32  1  0  0  0
 32 34  1  0  0  0
 34 40  1  0  0  0
 40 41  1  0  0  0
 41 42  2  0  0  0
 42 43  1  0  0  0
 43 44  2  0  0  0
 44 45  1  0  0  0
 45 46  2  0  0  0
 34 35  1  0  0  0
 35 36  1  0  0  0
 35 37  2  0  0  0
  9  5  1  0  0  0
 46 41  1  0  0  0
  1  4  1  0  0  0
 21 22  1  0  0  0
 24 26  1  0  0  0
 24 27  1  0  0  0
 25 28  1  0  0  0
 13 17  1  0  0  0
 32 33  1  0  0  0
 36 38  1  0  0  0
 36 39  1  0  0  0
M  END
> <minimizedAffinity>
-5.49788

> <CNNscore>
0.2570197284

> <CNNaffinity>
5.6216659546

> <CNN_VS>
1.4448790550

> <CNNaffinity_variance>
0.2170041054

$$$$
[H]N=C(N([H])[H])N([H])C([H])([H])C([H])([H])C([H])([H])[C@@]([H])(C(=O)N1C([H])([H])C([H])([H])C([H])([H])[C@@]1([H])C(=O)N([H])[C@]([H])(C(=O)N([H])[C@]([H])(C(=O)N([H])[H])C([H])([H])c1c([H])c([H])c([H])c([H])c1[H])C([H])([H])C([H])(C([H])([H])[H])C([H])([H])[H])N([H])C(=O)C([H])([H])[H]


 50 51  0  0  0  0  0  0  0  0999 V2000
  153.7319  139.3417  185.1874 N   0  0  0  0  0  0  0  0  0  0  0  0
  154.1435  138.3517  186.0855 C   0  0  0  0  0  0  0  0  0  0  0  0
  154.9457  137.4592  185.6916 O   0  0  0  0  0  0  0  0  0  0  0  0
  153.0900  140.0905  185.4426 H   0  0  0  0  0  0  0  0  0  0  0  0
  153.6007  138.4027  187.4754 C   0  0  0  0  0  0  0  0  0  0  0  0
  154.7659  138.1780  188.4500 C   0  0  0  0  0  0  0  0  0  0  0  0
  153.9742  137.9103  189.7096 C   0  0  0  0  0  0  0  0  0  0  0  0
  152.8969  136.9496  189.1642 C   0  0  0  0  0  0  0  0  0  0  0  0
  152.6980  137.3004  187.7789 N   0  0  0  0  0  0  0  0  0  0  0  0
  151.7830  136.7417  186.8499 C   0  0  0  0  0  0  0  0  0  0  0  0
  151.7858  137.2976  185.6705 O   0  0  0  0  0  0  0  0  0  0  0  0
  150.8278  135.6524  186.9523 C   0  0  0  0  0  0  0  0  0  0  0  0
  151.4956  134.3723  187.1730 N   0  0  0  0  0  0  0  0  0  0  0  0
  152.0495  133.5382  186.2095 C   0  0  0  0  0  0  0  0  0  0  0  0
  152.6983  132.2430  186.6201 C   0  0  0  0  0  0  0  0  0  0  0  0
  152.0633  133.7674  184.9766 O   0  0  0  0  0  0  0  0  0  0  0  0
  151.5365  134.0899  188.1919 H   0  0  0  0  0  0  0  0  0  0  0  0
  149.7484  135.8388  187.9465 C   0  0  0  0  0  0  0  0  0  0  0  0
  149.8337  134.9141  189.1535 C   0  0  0  0  0  0  0  0  0  0  0  0
  149.4252  135.6386  190.4002 C   0  0  0  0  0  0  0  0  0  0  0  0
  150.1237  135.0998  191.5641 N   0  0  0  0  0  0  0  0  0  0  0  0
  150.5826  134.1701  191.5988 H   0  0  0  0  0  0  0  0  0  0  0  0
  150.1688  135.9101  192.7219 C   0  0  0  0  0  0  0  0  0  0  0  0
  150.9349  137.1188  192.7728 N   0  0  0  0  0  0  0  0  0  0  0  0
  149.5237  135.5968  193.7717 N   0  0  0  0  0  0  0  0  0  0  0  0
  151.3235  137.4688  193.6958 H   0  0  0  0  0  0  0  0  0  0  0  0
  151.1338  137.6837  191.9291 H   0  0  0  0  0  0  0  0  0  0  0  0
  148.9312  134.7448  193.8534 H   0  0  0  0  0  0  0  0  0  0  0  0
  154.2464  139.3108  183.8036 C   0  0  0  0  0  0  0  0  0  0  0  0
  155.3139  140.3130  183.6462 C   0  0  0  0  0  0  0  0  0  0  0  0
  155.0350  141.5622  183.6283 O   0  0  0  0  0  0  0  0  0  0  0  0
  156.6589  139.9534  183.5147 N   0  0  0  0  0  0  0  0  0  0  0  0
  157.0021  138.9816  183.5385 H   0  0  0  0  0  0  0  0  0  0  0  0
  157.7257  140.9653  183.3461 C   0  0  0  0  0  0  0  0  0  0  0  0
  157.8821  141.2491  181.9189 C   0  0  0  0  0  0  0  0  0  0  0  0
  157.8353  142.5173  181.3184 N   0  0  0  0  0  0  0  0  0  0  0  0
  158.0763  140.2552  181.1232 O   0  0  0  0  0  0  0  0  0  0  0  0
  158.4077  142.7313  180.4786 H   0  0  0  0  0  0  0  0  0  0  0  0
  157.2144  143.2468  181.7251 H   0  0  0  0  0  0  0  0  0  0  0  0
  159.0003  140.4070  183.9426 C   0  0  0  0  0  0  0  0  0  0  0  0
  159.7925  141.3342  184.7511 C   0  0  0  0  0  0  0  0  0  0  0  0
  159.3514  141.7957  185.9679 C   0  0  0  0  0  0  0  0  0  0  0  0
  160.0823  142.6636  186.7420 C   0  0  0  0  0  0  0  0  0  0  0  0
  161.3084  143.1209  186.3332 C   0  0  0  0  0  0  0  0  0  0  0  0
  161.7803  142.6771  185.1171 C   0  0  0  0  0  0  0  0  0  0  0  0
  161.0435  141.8053  184.3428 C   0  0  0  0  0  0  0  0  0  0  0  0
  153.0409  139.7506  182.9499 C   0  0  0  0  0  0  0  0  0  0  0  0
  151.4699  137.9754  182.2640 C   0  0  0  0  0  0  0  0  0  0  0  0
  152.6973  138.7667  181.8922 C   0  0  0  0  0  0  0  0  0  0  0  0
  152.3901  139.5623  180.6206 C   0  0  0  0  0  0  0  0  0  0  0  0
 48 49  1  0  0  0
 49 50  1  0  0  0
 49 47  1  0  0  0
 47 29  1  0  0  0
 29  1  1  0  0  0
  1  2  1  0  0  0
  2  3  2  0  0  0
  2  5  1  0  0  0
  5  6  1  0  0  0
  6  7  1  0  0  0
  7  8  1  0  0  0
  8  9  1  0  0  0
  9 10  1  0  0  0
 10 11  2  0  0  0
 10 12  1  0  0  0
 12 18  1  0  0  0
 18 19  1  0  0  0
 19 20  1  0  0  0
 20 21  1  0  0  0
 21 23  1  0  0  0
 23 24  1  0  0  0
 23 25  2  0  0  0
 12 13  1  0  0  0
 13 14  1  0  0  0
 14 15  1  0  0  0
 14 16  2  0  0  0
 29 30  1  0  0  0
 30 31  2  0  0  0
 30 32  1  0  0  0
 32 34  1  0  0  0
 34 40  1  0  0  0
 40 41  1  0  0  0
 41 42  2  0  0  0
 42 43  1  0  0  0
 43 44  2  0  0  0
 44 45  1  0  0  0
 45 46  2  0  0  0
 34 35  1  0  0  0
 35 36  1  0  0  0
 35 37  2  0  0  0
  9  5  1  0  0  0
 46 41  1  0  0  0
  1  4  1  0  0  0
 21 22  1  0  0  0
 24 26  1  0  0  0
 24 27  1  0  0  0
 25 28  1  0  0  0
 13 17  1  0  0  0
 32 33  1  0  0  0
 36 38  1  0  0  0
 36 39  1  0  0  0
M  END
> <minimizedAffinity>
-7.50888

> <CNNscore>
0.2527234554

> <CNNaffinity>
6.4088792801

> <CNN_VS>
1.6196740866

> <CNNaffinity_variance>
0.0968874544

$$$$
[H]N=C(N([H])[H])N([H])C([H])([H])C([H])([H])C([H])([H])[C@@]([H])(C(=O)N1C([H])([H])C([H])([H])C([H])([H])[C@@]1([H])C(=O)N([H])[C@]([H])(C(=O)N([H])[C@]([H])(C(=O)N([H])[H])C([H])([H])c1c([H])c([H])c([H])c([H])c1[H])C([H])([H])C([H])(C([H])([H])[H])C([H])([H])[H])N([H])C(=O)C([H])([H])[H]


 50 51  0  0  0  0  0  0  0  0999 V2000
  153.8011  139.5204  184.8617 N   0  0  0  0  0  0  0  0  0  0  0  0
  154.1384  138.4525  185.6995 C   0  0  0  0  0  0  0  0  0  0  0  0
  154.8640  137.5224  185.2482 O   0  0  0  0  0  0  0  0  0  0  0  0
  153.2227  140.3025  185.1648 H   0  0  0  0  0  0  0  0  0  0  0  0
  153.6110  138.4691  187.0961 C   0  0  0  0  0  0  0  0  0  0  0  0
  154.7928  138.2589  188.0537 C   0  0  0  0  0  0  0  0  0  0  0  0
  154.0229  137.9528  189.3181 C   0  0  0  0  0  0  0  0  0  0  0  0
  152.9634  136.9737  188.7705 C   0  0  0  0  0  0  0  0  0  0  0  0
  152.7395  137.3401  187.3931 N   0  0  0  0  0  0  0  0  0  0  0  0
  151.8277  136.7728  186.4662 C   0  0  0  0  0  0  0  0  0  0  0  0
  151.8028  137.3463  185.2954 O   0  0  0  0  0  0  0  0  0  0  0  0
  150.9011  135.6586  186.5628 C   0  0  0  0  0  0  0  0  0  0  0  0
  149.9063  135.8775  187.6097 N   0  0  0  0  0  0  0  0  0  0  0  0
  149.7735  135.1741  188.8007 C   0  0  0  0  0  0  0  0  0  0  0  0
  148.6779  135.5352  189.7684 C   0  0  0  0  0  0  0  0  0  0  0  0
  150.5085  134.2258  189.1659 O   0  0  0  0  0  0  0  0  0  0  0  0
  149.2347  136.6659  187.3929 H   0  0  0  0  0  0  0  0  0  0  0  0
  150.2324  135.2707  185.3016 C   0  0  0  0  0  0  0  0  0  0  0  0
  148.7110  135.3151  185.3528 C   0  0  0  0  0  0  0  0  0  0  0  0
  148.1738  136.1854  184.2573 C   0  0  0  0  0  0  0  0  0  0  0  0
  148.6604  137.5551  184.3990 N   0  0  0  0  0  0  0  0  0  0  0  0
  149.6534  137.8163  184.5472 H   0  0  0  0  0  0  0  0  0  0  0  0
  147.7006  138.5911  184.3310 C   0  0  0  0  0  0  0  0  0  0  0  0
  146.6684  138.7350  185.3129 N   0  0  0  0  0  0  0  0  0  0  0  0
  147.7175  139.4451  183.3892 N   0  0  0  0  0  0  0  0  0  0  0  0
  145.7413  139.1814  185.0548 H   0  0  0  0  0  0  0  0  0  0  0  0
  146.7859  138.4156  186.2900 H   0  0  0  0  0  0  0  0  0  0  0  0
  148.4198  139.4442  182.6207 H   0  0  0  0  0  0  0  0  0  0  0  0
  154.3018  139.5258  183.4727 C   0  0  0  0  0  0  0  0  0  0  0  0
  155.4085  140.4890  183.3455 C   0  0  0  0  0  0  0  0  0  0  0  0
  155.1747  141.7472  183.3147 O   0  0  0  0  0  0  0  0  0  0  0  0
  156.7434  140.0817  183.2574 N   0  0  0  0  0  0  0  0  0  0  0  0
  157.0511  139.0986  183.2952 H   0  0  0  0  0  0  0  0  0  0  0  0
  157.8501  141.0546  183.1190 C   0  0  0  0  0  0  0  0  0  0  0  0
  158.0725  141.3132  181.6957 C   0  0  0  0  0  0  0  0  0  0  0  0
  157.0859  141.3443  180.6973 N   0  0  0  0  0  0  0  0  0  0  0  0
  159.2797  141.5292  181.3026 O   0  0  0  0  0  0  0  0  0  0  0  0
  157.1755  141.9770  179.8785 H   0  0  0  0  0  0  0  0  0  0  0  0
  156.2577  140.7203  180.7850 H   0  0  0  0  0  0  0  0  0  0  0  0
  159.0802  140.4621  183.7731 C   0  0  0  0  0  0  0  0  0  0  0  0
  159.8175  141.3457  184.6766 C   0  0  0  0  0  0  0  0  0  0  0  0
  159.2917  141.7592  185.8769 C   0  0  0  0  0  0  0  0  0  0  0  0
  159.9700  142.5858  186.7392 C   0  0  0  0  0  0  0  0  0  0  0  0
  161.2259  143.0476  186.4410 C   0  0  0  0  0  0  0  0  0  0  0  0
  161.7825  142.6514  185.2445 C   0  0  0  0  0  0  0  0  0  0  0  0
  161.0983  141.8211  184.3815 C   0  0  0  0  0  0  0  0  0  0  0  0
  153.1083  140.0495  182.6501 C   0  0  0  0  0  0  0  0  0  0  0  0
  151.3505  138.3921  182.1471 C   0  0  0  0  0  0  0  0  0  0  0  0
  152.6127  139.0577  181.6625 C   0  0  0  0  0  0  0  0  0  0  0  0
  152.2891  139.8254  180.3778 C   0  0  0  0  0  0  0  0  0  0  0  0
 48 49  1  0  0  0
 49 50  1  0  0  0
 49 47  1  0  0  0
 47 29  1  0  0  0
 29  1  1  0  0  0
  1  2  1  0  0  0
  2  3  2  0  0  0
  2  5  1  0  0  0
  5  6  1  0  0  0
  6  7  1  0  0  0
  7  8  1  0  0  0
  8  9  1  0  0  0
  9 10  1  0  0  0
 10 11  2  0  0  0
 10 12  1  0  0  0
 12 18  1  0  0  0
 18 19  1  0  0  0
 19 20  1  0  0  0
 20 21  1  0  0  0
 21 23  1  0  0  0
 23 24  1  0  0  0
 23 25  2  0  0  0
 12 13  1  0  0  0
 13 14  1  0  0  0
 14 15  1  0  0  0
 14 16  2  0  0  0
 29 30  1  0  0  0
 30 31  2  0  0  0
 30 32  1  0  0  0
 32 34  1  0  0  0
 34 40  1  0  0  0
 40 41  1  0  0  0
 41 42  2  0  0  0
 42 43  1  0  0  0
 43 44  2  0  0  0
 44 45  1  0  0  0
 45 46  2  0  0  0
 34 35  1  0  0  0
 35 36  1  0  0  0
 35 37  2  0  0  0
  9  5  1  0  0  0
 46 41  1  0  0  0
  1  4  1  0  0  0
 21 22  1  0  0  0
 24 26  1  0  0  0
 24 27  1  0  0  0
 25 28  1  0  0  0
 13 17  1  0  0  0
 32 33  1  0  0  0
 36 38  1  0  0  0
 36 39  1  0  0  0
M  END
> <minimizedAffinity>
-7.40138

> <CNNscore>
0.2456091493

> <CNNaffinity>
6.4948196411

> <CNN_VS>
1.5951870680

> <CNNaffinity_variance>
0.1044322848

$$$$
[H]c1c([H])c([H])c2c(c1[H])c1c3c(c4c5c([H])c([H])c([H])c([H])c5n5c4c1n2[C@@]1([H])O[C@@]5(C([H])([H])[H])[C@]([H])(OC([H])([H])[H])[C@]([H])(N([H])C([H])([H])[H])C1([H])[H])C([H])([H])N([H])C3=O


 37 44  0  0  0  0  0  0  0  0999 V2000
  149.6192  134.4886  185.3393 C   0  0  0  0  0  0  0  0  0  0  0  0
  149.6741  134.4397  183.7781 C   0  0  0  0  0  0  0  0  0  0  0  0
  151.0107  134.2240  183.5527 C   0  0  0  0  0  0  0  0  0  0  0  0
  151.6338  135.3342  184.1048 O   0  0  0  0  0  0  0  0  0  0  0  0
  152.1294  134.9117  185.3636 C   0  0  0  0  0  0  0  0  0  0  0  0
  152.4844  136.2919  186.0121 C   0  0  0  0  0  0  0  0  0  0  0  0
  150.9981  134.2840  186.0015 C   0  0  0  0  0  0  0  0  0  0  0  0
  153.3718  134.2303  185.0789 N   0  0  0  0  0  0  0  0  0  0  0  0
  154.4507  134.1454  185.9174 C   0  0  0  0  0  0  0  0  0  0  0  0
  154.6463  134.5016  187.2245 C   0  0  0  0  0  0  0  0  0  0  0  0
  155.8596  134.2908  187.8425 C   0  0  0  0  0  0  0  0  0  0  0  0
  156.9140  133.7146  187.1659 C   0  0  0  0  0  0  0  0  0  0  0  0
  156.7565  133.3403  185.8451 C   0  0  0  0  0  0  0  0  0  0  0  0
  155.5297  133.5690  185.2681 C   0  0  0  0  0  0  0  0  0  0  0  0
  155.1232  133.2819  184.0032 C   0  0  0  0  0  0  0  0  0  0  0  0
  155.6868  132.7473  182.8479 C   0  0  0  0  0  0  0  0  0  0  0  0
  157.0865  132.2498  182.7057 C   0  0  0  0  0  0  0  0  0  0  0  0
  157.1524  131.7985  181.3370 N   0  0  0  0  0  0  0  0  0  0  0  0
  155.8963  132.0110  180.6805 C   0  0  0  0  0  0  0  0  0  0  0  0
  155.7530  131.6922  179.4922 O   0  0  0  0  0  0  0  0  0  0  0  0
  154.9993  132.6060  181.6514 C   0  0  0  0  0  0  0  0  0  0  0  0
  153.6790  133.0029  181.5639 C   0  0  0  0  0  0  0  0  0  0  0  0
  152.7022  132.9638  180.6037 C   0  0  0  0  0  0  0  0  0  0  0  0
  152.6629  132.5626  179.3029 C   0  0  0  0  0  0  0  0  0  0  0  0
  151.4582  132.6733  178.6167 C   0  0  0  0  0  0  0  0  0  0  0  0
  150.3345  133.1755  179.2359 C   0  0  0  0  0  0  0  0  0  0  0  0
  150.3793  133.5807  180.5534 C   0  0  0  0  0  0  0  0  0  0  0  0
  151.5586  133.4748  181.2334 C   0  0  0  0  0  0  0  0  0  0  0  0
  151.8190  133.8039  182.4862 N   0  0  0  0  0  0  0  0  0  0  0  0
  153.1341  133.5235  182.6964 C   0  0  0  0  0  0  0  0  0  0  0  0
  153.8392  133.6744  183.9085 C   0  0  0  0  0  0  0  0  0  0  0  0
  158.0269  131.3806  180.9343 H   0  0  0  0  0  0  0  0  0  0  0  0
  147.4440  133.6407  185.9882 C   0  0  0  0  0  0  0  0  0  0  0  0
  148.8367  133.3351  185.7326 N   0  0  0  0  0  0  0  0  0  0  0  0
  148.8321  132.6978  184.8841 H   0  0  0  0  0  0  0  0  0  0  0  0
  151.1477  133.0110  186.5425 O   0  0  0  0  0  0  0  0  0  0  0  0
  151.4195  132.9635  187.8826 C   0  0  0  0  0  0  0  0  0  0  0  0
 33 34  1  0  0  0
 34  1  1  0  0  0
  1  2  1  0  0  0
  2  3  1  0  0  0
  3  4  1  0  0  0
  4  5  1  0  0  0
  5  6  1  0  0  0
  5  7  1  0  0  0
  7 36  1  0  0  0
 36 37  1  0  0  0
  5  8  1  0  0  0
  8  9  1  0  0  0
  9 10  2  0  0  0
 10 11  1  0  0  0
 11 12  2  0  0  0
 12 13  1  0  0  0
 13 14  2  0  0  0
 14 15  1  0  0  0
 15 16  2  0  0  0
 16 17  1  0  0  0
 17 18  1  0  0  0
 18 19  1  0  0  0
 19 20  2  0  0  0
 19 21  1  0  0  0
 21 22  2  0  0  0
 22 23  1  0  0  0
 23 24  2  0  0  0
 24 25  1  0  0  0
 25 26  2  0  0  0
 26 27  1  0  0  0
 27 28  2  0  0  0
 28 29  1  0  0  0
 29 30  1  0  0  0
 30 31  2  0  0  0
  7  1  1  0  0  0
 31  8  1  0  0  0
 29  3  1  0  0  0
 14  9  1  0  0  0
 31 15  1  0  0  0
 21 16  1  0  0  0
 30 22  1  0  0  0
 28 23  1  0  0  0
 34 35  1  0  0  0
 18 32  1  0  0  0
M  END
> <minimizedAffinity>
-3.67933

> <CNNscore>
0.5490404963

> <CNNaffinity>
5.6877508163

> <CNN_VS>
3.1228055954

> <CNNaffinity_variance>
0.5926924944

$$$$
[H]c1c([H])c([H])c2c(c1[H])c1c3c(c4c5c([H])c([H])c([H])c([H])c5n5c4c1n2[C@@]1([H])O[C@@]5(C([H])([H])[H])[C@]([H])(OC([H])([H])[H])[C@]([H])(N([H])C([H])([H])[H])C1([H])[H])C([H])([H])N([H])C3=O


 37 44  0  0  0  0  0  0  0  0999 V2000
  150.0983  134.9177  183.9503 C   0  0  0  0  0  0  0  0  0  0  0  0
  151.2725  134.4268  184.8575 C   0  0  0  0  0  0  0  0  0  0  0  0
  152.0889  133.8060  183.9453 C   0  0  0  0  0  0  0  0  0  0  0  0
  151.3079  132.7816  183.4295 O   0  0  0  0  0  0  0  0  0  0  0  0
  150.8384  133.2485  182.1764 C   0  0  0  0  0  0  0  0  0  0  0  0
  149.7279  132.1879  181.8707 C   0  0  0  0  0  0  0  0  0  0  0  0
  150.2859  134.5497  182.4633 C   0  0  0  0  0  0  0  0  0  0  0  0
  151.9248  133.0229  181.2502 N   0  0  0  0  0  0  0  0  0  0  0  0
  151.7980  132.7788  179.9091 C   0  0  0  0  0  0  0  0  0  0  0  0
  150.7319  132.8141  179.0513 C   0  0  0  0  0  0  0  0  0  0  0  0
  150.8890  132.5256  177.7133 C   0  0  0  0  0  0  0  0  0  0  0  0
  152.1230  132.1934  177.1954 C   0  0  0  0  0  0  0  0  0  0  0  0
  153.2245  132.1474  178.0285 C   0  0  0  0  0  0  0  0  0  0  0  0
  153.0224  132.4422  179.3561 C   0  0  0  0  0  0  0  0  0  0  0  0
  153.9351  132.4796  180.3627 C   0  0  0  0  0  0  0  0  0  0  0  0
  155.2951  132.2250  180.5156 C   0  0  0  0  0  0  0  0  0  0  0  0
  156.2369  131.8171  179.4322 C   0  0  0  0  0  0  0  0  0  0  0  0
  157.5055  131.6960  180.1086 N   0  0  0  0  0  0  0  0  0  0  0  0
  157.3581  131.9938  181.5026 C   0  0  0  0  0  0  0  0  0  0  0  0
  158.3383  131.9393  182.2580 O   0  0  0  0  0  0  0  0  0  0  0  0
  155.9639  132.3212  181.7270 C   0  0  0  0  0  0  0  0  0  0  0  0
  155.2764  132.6915  182.8666 C   0  0  0  0  0  0  0  0  0  0  0  0
  155.6019  132.9387  184.1745 C   0  0  0  0  0  0  0  0  0  0  0  0
  156.7513  132.8568  184.9004 C   0  0  0  0  0  0  0  0  0  0  0  0
  156.7036  133.1969  186.2481 C   0  0  0  0  0  0  0  0  0  0  0  0
  155.5254  133.6058  186.8336 C   0  0  0  0  0  0  0  0  0  0  0  0
  154.3639  133.6870  186.0945 C   0  0  0  0  0  0  0  0  0  0  0  0
  154.4032  133.3547  184.7707 C   0  0  0  0  0  0  0  0  0  0  0  0
  153.4173  133.3590  183.8911 N   0  0  0  0  0  0  0  0  0  0  0  0
  153.9481  132.9398  182.7101 C   0  0  0  0  0  0  0  0  0  0  0  0
  153.2697  132.8316  181.4785 C   0  0  0  0  0  0  0  0  0  0  0  0
  158.3808  131.4244  179.5971 H   0  0  0  0  0  0  0  0  0  0  0  0
  149.7598  136.9236  185.2667 C   0  0  0  0  0  0  0  0  0  0  0  0
  150.1596  136.3642  183.9918 N   0  0  0  0  0  0  0  0  0  0  0  0
  151.1885  136.6034  183.8917 H   0  0  0  0  0  0  0  0  0  0  0  0
  150.6793  135.6366  181.6891 O   0  0  0  0  0  0  0  0  0  0  0  0
  149.8120  136.0038  180.6967 C   0  0  0  0  0  0  0  0  0  0  0  0
 33 34  1  0  0  0
 34  1  1  0  0  0
  1  2  1  0  0  0
  2  3  1  0  0  0
  3  4  1  0  0  0
  4  5  1  0  0  0
  5  6  1  0  0  0
  5  7  1  0  0  0
  7 36  1  0  0  0
 36 37  1  0  0  0
  5  8  1  0  0  0
  8  9  1  0  0  0
  9 10  2  0  0  0
 10 11  1  0  0  0
 11 12  2  0  0  0
 12 13  1  0  0  0
 13 14  2  0  0  0
 14 15  1  0  0  0
 15 16  2  0  0  0
 16 17  1  0  0  0
 17 18  1  0  0  0
 18 19  1  0  0  0
 19 20  2  0  0  0
 19 21  1  0  0  0
 21 22  2  0  0  0
 22 23  1  0  0  0
 23 24  2  0  0  0
 24 25  1  0  0  0
 25 26  2  0  0  0
 26 27  1  0  0  0
 27 28  2  0  0  0
 28 29  1  0  0  0
 29 30  1  0  0  0
 30 31  2  0  0  0
  7  1  1  0  0  0
 31  8  1  0  0  0
 29  3  1  0  0  0
 14  9  1  0  0  0
 31 15  1  0  0  0
 21 16  1  0  0  0
 30 22  1  0  0  0
 28 23  1  0  0  0
 34 35  1  0  0  0
 18 32  1  0  0  0
M  END
> <minimizedAffinity>
-4.35809

> <CNNscore>
0.4331420660

> <CNNaffinity>
5.3686666489

> <CNN_VS>
2.3253953457

> <CNNaffinity_variance>
0.3700534999

$$$$
[H]c1c([H])c([H])c2c(c1[H])c1c3c(c4c5c([H])c([H])c([H])c([H])c5n5c4c1n2[C@@]1([H])O[C@@]5(C([H])([H])[H])[C@]([H])(OC([H])([H])[H])[C@]([H])(N([H])C([H])([H])[H])C1([H])[H])C([H])([H])N([H])C3=O


 37 44  0  0  0  0  0  0  0  0999 V2000
  155.7896  135.2980  191.2422 C   0  0  0  0  0  0  0  0  0  0  0  0
  154.3477  135.0831  191.8056 C   0  0  0  0  0  0  0  0  0  0  0  0
  153.5732  135.5739  190.7842 C   0  0  0  0  0  0  0  0  0  0  0  0
  153.9465  136.9064  190.6823 O   0  0  0  0  0  0  0  0  0  0  0  0
  154.8357  136.9744  189.5807 C   0  0  0  0  0  0  0  0  0  0  0  0
  155.4368  138.4061  189.7828 C   0  0  0  0  0  0  0  0  0  0  0  0
  155.8030  135.9354  189.8367 C   0  0  0  0  0  0  0  0  0  0  0  0
  153.9925  137.0163  188.4077 N   0  0  0  0  0  0  0  0  0  0  0  0
  154.3018  137.6198  187.2184 C   0  0  0  0  0  0  0  0  0  0  0  0
  155.4466  138.1916  186.7327 C   0  0  0  0  0  0  0  0  0  0  0  0
  155.4868  138.7312  185.4656 C   0  0  0  0  0  0  0  0  0  0  0  0
  154.3775  138.7119  184.6467 C   0  0  0  0  0  0  0  0  0  0  0  0
  153.2026  138.1431  185.0999 C   0  0  0  0  0  0  0  0  0  0  0  0
  153.2070  137.6169  186.3700 C   0  0  0  0  0  0  0  0  0  0  0  0
  152.1944  136.9979  187.0326 C   0  0  0  0  0  0  0  0  0  0  0  0
  150.8567  136.6940  186.7956 C   0  0  0  0  0  0  0  0  0  0  0  0
  150.0994  136.9915  185.5446 C   0  0  0  0  0  0  0  0  0  0  0  0
  148.7810  136.4688  185.8097 N   0  0  0  0  0  0  0  0  0  0  0  0
  148.7236  135.9034  187.1252 C   0  0  0  0  0  0  0  0  0  0  0  0
  147.6692  135.4057  187.5436 O   0  0  0  0  0  0  0  0  0  0  0  0
  150.0374  136.0591  187.7176 C   0  0  0  0  0  0  0  0  0  0  0  0
  150.5427  135.6888  188.9489 C   0  0  0  0  0  0  0  0  0  0  0  0
  150.0672  135.0188  190.0455 C   0  0  0  0  0  0  0  0  0  0  0  0
  148.8591  134.4918  190.3881 C   0  0  0  0  0  0  0  0  0  0  0  0
  148.7421  133.8638  191.6235 C   0  0  0  0  0  0  0  0  0  0  0  0
  149.8192  133.7769  192.4782 C   0  0  0  0  0  0  0  0  0  0  0  0
  151.0407  134.3122  192.1269 C   0  0  0  0  0  0  0  0  0  0  0  0
  151.1630  134.9302  190.9155 C   0  0  0  0  0  0  0  0  0  0  0  0
  152.2291  135.5063  190.3891 N   0  0  0  0  0  0  0  0  0  0  0  0
  151.8505  135.9878  189.1737 C   0  0  0  0  0  0  0  0  0  0  0  0
  152.6778  136.6420  188.2374 C   0  0  0  0  0  0  0  0  0  0  0  0
  148.0114  136.5239  185.0982 H   0  0  0  0  0  0  0  0  0  0  0  0
  157.7060  133.8379  191.5004 C   0  0  0  0  0  0  0  0  0  0  0  0
  156.3326  133.9680  191.0586 N   0  0  0  0  0  0  0  0  0  0  0  0
  155.7700  133.3443  191.7070 H   0  0  0  0  0  0  0  0  0  0  0  0
  156.0856  135.0132  188.8342 O   0  0  0  0  0  0  0  0  0  0  0  0
  157.1751  135.2965  188.0566 C   0  0  0  0  0  0  0  0  0  0  0  0
 33 34  1  0  0  0
 34  1  1  0  0  0
  1  2  1  0  0  0
  2  3  1  0  0  0
  3  4  1  0  0  0
  4  5  1  0  0  0
  5  6  1  0  0  0
  5  7  1  0  0  0
  7 36  1  0  0  0
 36 37  1  0  0  0
  5  8  1  0  0  0
  8  9  1  0  0  0
  9 10  2  0  0  0
 10 11  1  0  0  0
 11 12  2  0  0  0
 12 13  1  0  0  0
 13 14  2  0  0  0
 14 15  1  0  0  0
 15 16  2  0  0  0
 16 17  1  0  0  0
 17 18  1  0  0  0
 18 19  1  0  0  0
 19 20  2  0  0  0
 19 21  1  0  0  0
 21 22  2  0  0  0
 22 23  1  0  0  0
 23 24  2  0  0  0
 24 25  1  0  0  0
 25 26  2  0  0  0
 26 27  1  0  0  0
 27 28  2  0  0  0
 28 29  1  0  0  0
 29 30  1  0  0  0
 30 31  2  0  0  0
  7  1  1  0  0  0
 31  8  1  0  0  0
 29  3  1  0  0  0
 14  9  1  0  0  0
 31 15  1  0  0  0
 21 16  1  0  0  0
 30 22  1  0  0  0
 28 23  1  0  0  0
 34 35  1  0  0  0
 18 32  1  0  0  0
M  END
> <minimizedAffinity>
-7.10826

> <CNNscore>
0.3803175688

> <CNNaffinity>
5.6234683990

> <CNN_VS>
2.1387038231

> <CNNaffinity_variance>
0.4061812460

$$$$
[H]c1c([H])c([H])c2c(c1[H])c1c3c(c4c5c([H])c([H])c([H])c([H])c5n5c4c1n2[C@@]1([H])O[C@@]5(C([H])([H])[H])[C@]([H])(OC([H])([H])[H])[C@]([H])(N([H])C([H])([H])[H])C1([H])[H])C([H])([H])N([H])C3=O


 37 44  0  0  0  0  0  0  0  0999 V2000
  152.1163  136.0693  184.8095 C   0  0  0  0  0  0  0  0  0  0  0  0
  151.0055  135.2197  185.5073 C   0  0  0  0  0  0  0  0  0  0  0  0
  151.3334  135.3660  186.8321 C   0  0  0  0  0  0  0  0  0  0  0  0
  152.6060  134.8217  186.9311 O   0  0  0  0  0  0  0  0  0  0  0  0
  153.4966  135.9241  186.9436 C   0  0  0  0  0  0  0  0  0  0  0  0
  154.8622  135.1947  186.7093 C   0  0  0  0  0  0  0  0  0  0  0  0
  153.0999  136.7178  185.8063 C   0  0  0  0  0  0  0  0  0  0  0  0
  153.4888  136.4097  188.3048 N   0  0  0  0  0  0  0  0  0  0  0  0
  154.5266  137.0392  188.9381 C   0  0  0  0  0  0  0  0  0  0  0  0
  155.7358  137.5112  188.5037 C   0  0  0  0  0  0  0  0  0  0  0  0
  156.6098  138.1271  189.3726 C   0  0  0  0  0  0  0  0  0  0  0  0
  156.2951  138.2886  190.7054 C   0  0  0  0  0  0  0  0  0  0  0  0
  155.0837  137.8264  191.1831 C   0  0  0  0  0  0  0  0  0  0  0  0
  154.2424  137.2183  190.2817 C   0  0  0  0  0  0  0  0  0  0  0  0
  153.0050  136.6985  190.4972 C   0  0  0  0  0  0  0  0  0  0  0  0
  152.1507  136.5156  191.5811 C   0  0  0  0  0  0  0  0  0  0  0  0
  152.4143  136.9444  192.9860 C   0  0  0  0  0  0  0  0  0  0  0  0
  151.2283  136.5342  193.6977 N   0  0  0  0  0  0  0  0  0  0  0  0
  150.3085  135.8916  192.8061 C   0  0  0  0  0  0  0  0  0  0  0  0
  149.2275  135.4611  193.2308 O   0  0  0  0  0  0  0  0  0  0  0  0
  150.9136  135.8950  191.4888 C   0  0  0  0  0  0  0  0  0  0  0  0
  150.4684  135.4227  190.2693 C   0  0  0  0  0  0  0  0  0  0  0  0
  149.3234  134.8325  189.8021 C   0  0  0  0  0  0  0  0  0  0  0  0
  148.1651  134.4125  190.3822 C   0  0  0  0  0  0  0  0  0  0  0  0
  147.1925  133.8399  189.5695 C   0  0  0  0  0  0  0  0  0  0  0  0
  147.3952  133.7008  188.2138 C   0  0  0  0  0  0  0  0  0  0  0  0
  148.5700  134.1275  187.6309 C   0  0  0  0  0  0  0  0  0  0  0  0
  149.5293  134.6907  188.4227 C   0  0  0  0  0  0  0  0  0  0  0  0
  150.7146  135.1585  188.0736 N   0  0  0  0  0  0  0  0  0  0  0  0
  151.3074  135.6055  189.2143 C   0  0  0  0  0  0  0  0  0  0  0  0
  152.5688  136.2284  189.3138 C   0  0  0  0  0  0  0  0  0  0  0  0
  151.1122  136.7099  194.7259 H   0  0  0  0  0  0  0  0  0  0  0  0
  151.6825  137.3070  182.7720 C   0  0  0  0  0  0  0  0  0  0  0  0
  151.4199  137.1783  184.1908 N   0  0  0  0  0  0  0  0  0  0  0  0
  150.3892  136.9370  184.2637 H   0  0  0  0  0  0  0  0  0  0  0  0
  152.8656  138.0781  185.9802 O   0  0  0  0  0  0  0  0  0  0  0  0
  153.9081  138.9056  185.6633 C   0  0  0  0  0  0  0  0  0  0  0  0
 33 34  1  0  0  0
 34  1  1  0  0  0
  1  2  1  0  0  0
  2  3  1  0  0  0
  3  4  1  0  0  0
  4  5  1  0  0  0
  5  6  1  0  0  0
  5  7  1  0  0  0
  7 36  1  0  0  0
 36 37  1  0  0  0
  5  8  1  0  0  0
  8  9  1  0  0  0
  9 10  2  0  0  0
 10 11  1  0  0  0
 11 12  2  0  0  0
 12 13  1  0  0  0
 13 14  2  0  0  0
 14 15  1  0  0  0
 15 16  2  0  0  0
 16 17  1  0  0  0
 17 18  1  0  0  0
 18 19  1  0  0  0
 19 20  2  0  0  0
 19 21  1  0  0  0
 21 22  2  0  0  0
 22 23  1  0  0  0
 23 24  2  0  0  0
 24 25  1  0  0  0
 25 26  2  0  0  0
 26 27  1  0  0  0
 27 28  2  0  0  0
 28 29  1  0  0  0
 29 30  1  0  0  0
 30 31  2  0  0  0
  7  1  1  0  0  0
 31  8  1  0  0  0
 29  3  1  0  0  0
 14  9  1  0  0  0
 31 15  1  0  0  0
 21 16  1  0  0  0
 30 22  1  0  0  0
 28 23  1  0  0  0
 34 35  1  0  0  0
 18 32  1  0  0  0
M  END
> <minimizedAffinity>
-7.29771

> <CNNscore>
0.3799437284

> <CNNaffinity>
5.6306476593

> <CNN_VS>
2.1393291950

> <CNNaffinity_variance>
0.2713668942

$$$$
[H]c1c([H])c([H])c2c(c1[H])c1c3c(c4c5c([H])c([H])c([H])c([H])c5n5c4c1n2[C@@]1([H])O[C@@]5(C([H])([H])[H])[C@]([H])(OC([H])([H])[H])[C@]([H])(N([H])C([H])([H])[H])C1([H])[H])C([H])([H])N([H])C3=O


 37 44  0  0  0  0  0  0  0  0999 V2000
  151.6177  135.9217  185.9177 C   0  0  0  0  0  0  0  0  0  0  0  0
  152.5697  135.2301  184.8891 C   0  0  0  0  0  0  0  0  0  0  0  0
  153.7244  135.1022  185.6201 C   0  0  0  0  0  0  0  0  0  0  0  0
  154.0797  136.4075  185.9289 O   0  0  0  0  0  0  0  0  0  0  0  0
  153.6621  136.6143  187.2673 C   0  0  0  0  0  0  0  0  0  0  0  0
  153.7938  138.1709  187.3738 C   0  0  0  0  0  0  0  0  0  0  0  0
  152.2864  136.1807  187.2843 C   0  0  0  0  0  0  0  0  0  0  0  0
  154.6988  136.0311  188.0883 N   0  0  0  0  0  0  0  0  0  0  0  0
  155.0464  136.4356  189.3491 C   0  0  0  0  0  0  0  0  0  0  0  0
  154.4935  137.3273  190.2282 C   0  0  0  0  0  0  0  0  0  0  0  0
  155.0560  137.5423  191.4674 C   0  0  0  0  0  0  0  0  0  0  0  0
  156.1916  136.8669  191.8621 C   0  0  0  0  0  0  0  0  0  0  0  0
  156.7798  135.9578  191.0036 C   0  0  0  0  0  0  0  0  0  0  0  0
  156.1855  135.7745  189.7775 C   0  0  0  0  0  0  0  0  0  0  0  0
  156.5583  134.9372  188.7737 C   0  0  0  0  0  0  0  0  0  0  0  0
  157.5934  134.0397  188.5262 C   0  0  0  0  0  0  0  0  0  0  0  0
  158.7018  133.7005  189.4660 C   0  0  0  0  0  0  0  0  0  0  0  0
  159.4821  132.7288  188.7391 N   0  0  0  0  0  0  0  0  0  0  0  0
  158.9086  132.4941  187.4469 C   0  0  0  0  0  0  0  0  0  0  0  0
  159.4396  131.6920  186.6664 O   0  0  0  0  0  0  0  0  0  0  0  0
  157.7279  133.3286  187.3428 C   0  0  0  0  0  0  0  0  0  0  0  0
  156.8004  133.4906  186.3319 C   0  0  0  0  0  0  0  0  0  0  0  0
  156.5843  132.9356  185.0978 C   0  0  0  0  0  0  0  0  0  0  0  0
  157.2498  132.0248  184.3348 C   0  0  0  0  0  0  0  0  0  0  0  0
  156.7174  131.6922  183.0937 C   0  0  0  0  0  0  0  0  0  0  0  0
  155.5482  132.2686  182.6476 C   0  0  0  0  0  0  0  0  0  0  0  0
  154.8779  133.1906  183.4238 C   0  0  0  0  0  0  0  0  0  0  0  0
  155.3946  133.5220  184.6434 C   0  0  0  0  0  0  0  0  0  0  0  0
  154.9203  134.3744  185.5346 N   0  0  0  0  0  0  0  0  0  0  0  0
  155.7912  134.3681  186.5805 C   0  0  0  0  0  0  0  0  0  0  0  0
  155.6630  135.0965  187.7813 C   0  0  0  0  0  0  0  0  0  0  0  0
  160.3409  132.2890  189.1520 H   0  0  0  0  0  0  0  0  0  0  0  0
  149.2444  135.4355  185.8700 C   0  0  0  0  0  0  0  0  0  0  0  0
  150.5737  134.9543  186.1856 N   0  0  0  0  0  0  0  0  0  0  0  0
  150.7507  134.1570  185.5082 H   0  0  0  0  0  0  0  0  0  0  0  0
  151.8737  135.2797  188.2607 O   0  0  0  0  0  0  0  0  0  0  0  0
  151.2921  135.8309  189.3697 C   0  0  0  0  0  0  0  0  0  0  0  0
 33 34  1  0  0  0
 34  1  1  0  0  0
  1  2  1  0  0  0
  2  3  1  0  0  0
  3  4  1  0  0  0
  4  5  1  0  0  0
  5  6  1  0  0  0
  5  7  1  0  0  0
  7 36  1  0  0  0
 36 37  1  0  0  0
  5  8  1  0  0  0
  8  9  1  0  0  0
  9 10  2  0  0  0
 10 11  1  0  0  0
 11 12  2  0  0  0
 12 13  1  0  0  0
 13 14  2  0  0  0
 14 15  1  0  0  0
 15 16  2  0  0  0
 16 17  1  0  0  0
 17 18  1  0  0  0
 18 19  1  0  0  0
 19 20  2  0  0  0
 19 21  1  0  0  0
 21 22  2  0  0  0
 22 23  1  0  0  0
 23 24  2  0  0  0
 24 25  1  0  0  0
 25 26  2  0  0  0
 26 27  1  0  0  0
 27 28  2  0  0  0
 28 29  1  0  0  0
 29 30  1  0  0  0
 30 31  2  0  0  0
  7  1  1  0  0  0
 31  8  1  0  0  0
 29  3  1  0  0  0
 14  9  1  0  0  0
 31 15  1  0  0  0
 21 16  1  0  0  0
 30 22  1  0  0  0
 28 23  1  0  0  0
 34 35  1  0  0  0
 18 32  1  0  0  0
M  END
> <minimizedAffinity>
-6.30853

> <CNNscore>
0.3598023355

> <CNNaffinity>
5.4751577377

> <CNN_VS>
1.9699745178

> <CNNaffinity_variance>
0.2285886556

$$$$
[H]c1c([H])c([H])c2c(c1[H])c1c3c(c4c5c([H])c([H])c([H])c([H])c5n5c4c1n2[C@@]1([H])O[C@@]5(C([H])([H])[H])[C@]([H])(OC([H])([H])[H])[C@]([H])(N([H])C([H])([H])[H])C1([H])[H])C([H])([H])N([H])C3=O


 37 44  0  0  0  0  0  0  0  0999 V2000
  149.9712  134.8678  184.8243 C   0  0  0  0  0  0  0  0  0  0  0  0
  151.3750  134.9842  185.5014 C   0  0  0  0  0  0  0  0  0  0  0  0
  151.9606  135.9798  184.7599 C   0  0  0  0  0  0  0  0  0  0  0  0
  151.9966  135.4691  183.4702 O   0  0  0  0  0  0  0  0  0  0  0  0
  150.9105  136.0709  182.7869 C   0  0  0  0  0  0  0  0  0  0  0  0
  150.8491  135.1800  181.5008 C   0  0  0  0  0  0  0  0  0  0  0  0
  149.7782  135.8556  183.6543 C   0  0  0  0  0  0  0  0  0  0  0  0
  151.3822  137.3783  182.3905 N   0  0  0  0  0  0  0  0  0  0  0  0
  150.9658  138.0827  181.2930 C   0  0  0  0  0  0  0  0  0  0  0  0
  149.9628  137.8844  180.3829 C   0  0  0  0  0  0  0  0  0  0  0  0
  149.7524  138.7768  179.3544 C   0  0  0  0  0  0  0  0  0  0  0  0
  150.5433  139.8970  179.2092 C   0  0  0  0  0  0  0  0  0  0  0  0
  151.5661  140.1334  180.1078 C   0  0  0  0  0  0  0  0  0  0  0  0
  151.7405  139.2174  181.1181 C   0  0  0  0  0  0  0  0  0  0  0  0
  152.6553  139.2309  182.1234 C   0  0  0  0  0  0  0  0  0  0  0  0
  153.7237  140.0310  182.5189 C   0  0  0  0  0  0  0  0  0  0  0  0
  154.1736  141.2856  181.8476 C   0  0  0  0  0  0  0  0  0  0  0  0
  155.2915  141.7210  182.6490 N   0  0  0  0  0  0  0  0  0  0  0  0
  155.5226  140.8021  183.7242 C   0  0  0  0  0  0  0  0  0  0  0  0
  156.4475  140.9996  184.5242 O   0  0  0  0  0  0  0  0  0  0  0  0
  154.5258  139.7552  183.6165 C   0  0  0  0  0  0  0  0  0  0  0  0
  154.2790  138.6352  184.3867 C   0  0  0  0  0  0  0  0  0  0  0  0
  154.8026  138.0947  185.5319 C   0  0  0  0  0  0  0  0  0  0  0  0
  155.8390  138.4242  186.3516 C   0  0  0  0  0  0  0  0  0  0  0  0
  156.0843  137.6180  187.4580 C   0  0  0  0  0  0  0  0  0  0  0  0
  155.3001  136.5155  187.7182 C   0  0  0  0  0  0  0  0  0  0  0  0
  154.2518  136.1857  186.8851 C   0  0  0  0  0  0  0  0  0  0  0  0
  154.0049  136.9727  185.7969 C   0  0  0  0  0  0  0  0  0  0  0  0
  153.0644  136.8369  184.8790 N   0  0  0  0  0  0  0  0  0  0  0  0
  153.2333  137.8582  183.9954 C   0  0  0  0  0  0  0  0  0  0  0  0
  152.4258  138.1368  182.8732 C   0  0  0  0  0  0  0  0  0  0  0  0
  155.8228  142.5982  182.4262 H   0  0  0  0  0  0  0  0  0  0  0  0
  149.3280  134.7903  187.1591 C   0  0  0  0  0  0  0  0  0  0  0  0
  149.0217  135.2884  185.8338 N   0  0  0  0  0  0  0  0  0  0  0  0
  149.1308  136.3418  185.8988 H   0  0  0  0  0  0  0  0  0  0  0  0
  148.9727  136.9374  183.9953 O   0  0  0  0  0  0  0  0  0  0  0  0
  147.8490  137.1047  183.2330 C   0  0  0  0  0  0  0  0  0  0  0  0
 33 34  1  0  0  0
 34  1  1  0  0  0
  1  2  1  0  0  0
  2  3  1  0  0  0
  3  4  1  0  0  0
  4  5  1  0  0  0
  5  6  1  0  0  0
  5  7  1  0  0  0
  7 36  1  0  0  0
 36 37  1  0  0  0
  5  8  1  0  0  0
  8  9  1  0  0  0
  9 10  2  0  0  0
 10 11  1  0  0  0
 11 12  2  0  0  0
 12 13  1  0  0  0
 13 14  2  0  0  0
 14 15  1  0  0  0
 15 16  2  0  0  0
 16 17  1  0  0  0
 17 18  1  0  0  0
 18 19  1  0  0  0
 19 20  2  0  0  0
 19 21  1  0  0  0
 21 22  2  0  0  0
 22 23  1  0  0  0
 23 24  2  0  0  0
 24 25  1  0  0  0
 25 26  2  0  0  0
 26 27  1  0  0  0
 27 28  2  0  0  0
 28 29  1  0  0  0
 29 30  1  0  0  0
 30 31  2  0  0  0
  7  1  1  0  0  0
 31  8  1  0  0  0
 29  3  1  0  0  0
 14  9  1  0  0  0
 31 15  1  0  0  0
 21 16  1  0  0  0
 30 22  1  0  0  0
 28 23  1  0  0  0
 34 35  1  0  0  0
 18 32  1  0  0  0
M  END
> <minimizedAffinity>
-8.64010

> <CNNscore>
0.3360275030

> <CNNaffinity>
5.6795167923

> <CNN_VS>
1.9084738493

> <CNNaffinity_variance>
0.4097304940

$$$$
[H]c1c([H])c([H])c2c(c1[H])c1c3c(c4c5c([H])c([H])c([H])c([H])c5n5c4c1n2[C@@]1([H])O[C@@]5(C([H])([H])[H])[C@]([H])(OC([H])([H])[H])[C@]([H])(N([H])C([H])([H])[H])C1([H])[H])C([H])([H])N([H])C3=O


 37 44  0  0  0  0  0  0  0  0999 V2000
  148.0292  134.8796  187.5549 C   0  0  0  0  0  0  0  0  0  0  0  0
  148.5981  134.9374  189.0094 C   0  0  0  0  0  0  0  0  0  0  0  0
  149.9087  135.2768  188.7830 C   0  0  0  0  0  0  0  0  0  0  0  0
  150.4069  134.2279  188.0234 O   0  0  0  0  0  0  0  0  0  0  0  0
  150.4140  134.6914  186.6841 C   0  0  0  0  0  0  0  0  0  0  0  0
  150.6524  133.3485  185.9151 C   0  0  0  0  0  0  0  0  0  0  0  0
  149.0838  135.2097  186.4775 C   0  0  0  0  0  0  0  0  0  0  0  0
  151.6148  135.4859  186.5583 N   0  0  0  0  0  0  0  0  0  0  0  0
  152.3394  135.6685  185.4112 C   0  0  0  0  0  0  0  0  0  0  0  0
  152.1177  135.3288  184.1039 C   0  0  0  0  0  0  0  0  0  0  0  0
  153.0311  135.6497  183.1235 C   0  0  0  0  0  0  0  0  0  0  0  0
  154.1956  136.3231  183.4267 C   0  0  0  0  0  0  0  0  0  0  0  0
  154.4561  136.6845  184.7347 C   0  0  0  0  0  0  0  0  0  0  0  0
  153.5180  136.3443  185.6804 C   0  0  0  0  0  0  0  0  0  0  0  0
  153.5339  136.5957  187.0162 C   0  0  0  0  0  0  0  0  0  0  0  0
  154.4015  137.1832  187.9327 C   0  0  0  0  0  0  0  0  0  0  0  0
  155.7185  137.8090  187.6149 C   0  0  0  0  0  0  0  0  0  0  0  0
  156.1978  138.2679  188.8960 N   0  0  0  0  0  0  0  0  0  0  0  0
  155.2573  137.9413  189.9268 C   0  0  0  0  0  0  0  0  0  0  0  0
  155.4918  138.2485  191.1037 O   0  0  0  0  0  0  0  0  0  0  0  0
  154.1437  137.2631  189.2934 C   0  0  0  0  0  0  0  0  0  0  0  0
  152.9691  136.7455  189.8041 C   0  0  0  0  0  0  0  0  0  0  0  0
  152.3700  136.6962  191.0354 C   0  0  0  0  0  0  0  0  0  0  0  0
  152.7323  137.0953  192.2861 C   0  0  0  0  0  0  0  0  0  0  0  0
  151.8410  136.8749  193.3307 C   0  0  0  0  0  0  0  0  0  0  0  0
  150.6240  136.2689  193.1068 C   0  0  0  0  0  0  0  0  0  0  0  0
  150.2616  135.8663  191.8386 C   0  0  0  0  0  0  0  0  0  0  0  0
  151.1316  136.0795  190.8081 C   0  0  0  0  0  0  0  0  0  0  0  0
  150.9864  135.7729  189.5311 N   0  0  0  0  0  0  0  0  0  0  0  0
  152.1254  136.1737  188.9032 C   0  0  0  0  0  0  0  0  0  0  0  0
  152.3953  136.0858  187.5217 C   0  0  0  0  0  0  0  0  0  0  0  0
  157.1160  138.7663  188.9964 H   0  0  0  0  0  0  0  0  0  0  0  0
  146.8115  136.5998  188.7503 C   0  0  0  0  0  0  0  0  0  0  0  0
  147.0616  135.9545  187.4778 N   0  0  0  0  0  0  0  0  0  0  0  0
  147.5166  136.6974  186.8720 H   0  0  0  0  0  0  0  0  0  0  0  0
  148.9309  136.4897  185.9542 O   0  0  0  0  0  0  0  0  0  0  0  0
  148.7400  136.5592  184.6012 C   0  0  0  0  0  0  0  0  0  0  0  0
 33 34  1  0  0  0
 34  1  1  0  0  0
  1  2  1  0  0  0
  2  3  1  0  0  0
  3  4  1  0  0  0
  4  5  1  0  0  0
  5  6  1  0  0  0
  5  7  1  0  0  0
  7 36  1  0  0  0
 36 37  1  0  0  0
  5  8  1  0  0  0
  8  9  1  0  0  0
  9 10  2  0  0  0
 10 11  1  0  0  0
 11 12  2  0  0  0
 12 13  1  0  0  0
 13 14  2  0  0  0
 14 15  1  0  0  0
 15 16  2  0  0  0
 16 17  1  0  0  0
 17 18  1  0  0  0
 18 19  1  0  0  0
 19 20  2  0  0  0
 19 21  1  0  0  0
 21 22  2  0  0  0
 22 23  1  0  0  0
 23 24  2  0  0  0
 24 25  1  0  0  0
 25 26  2  0  0  0
 26 27  1  0  0  0
 27 28  2  0  0  0
 28 29  1  0  0  0
 29 30  1  0  0  0
 30 31  2  0  0  0
  7  1  1  0  0  0
 31  8  1  0  0  0
 29  3  1  0  0  0
 14  9  1  0  0  0
 31 15  1  0  0  0
 21 16  1  0  0  0
 30 22  1  0  0  0
 28 23  1  0  0  0
 34 35  1  0  0  0
 18 32  1  0  0  0
M  END
> <minimizedAffinity>
-6.63447

> <CNNscore>
0.3324328661

> <CNNaffinity>
5.6244826317

> <CNN_VS>
1.8697628975

> <CNNaffinity_variance>
0.1312073320

$$$$
[H]c1c([H])c([H])c2c(c1[H])c1c3c(c4c5c([H])c([H])c([H])c([H])c5n5c4c1n2[C@@]1([H])O[C@@]5(C([H])([H])[H])[C@]([H])(OC([H])([H])[H])[C@]([H])(N([H])C([H])([H])[H])C1([H])[H])C([H])([H])N([H])C3=O


 37 44  0  0  0  0  0  0  0  0999 V2000
  156.7606  135.9729  189.7176 C   0  0  0  0  0  0  0  0  0  0  0  0
  155.6715  136.3202  190.7834 C   0  0  0  0  0  0  0  0  0  0  0  0
  154.5253  136.2975  190.0285 C   0  0  0  0  0  0  0  0  0  0  0  0
  154.7221  137.2897  189.0787 O   0  0  0  0  0  0  0  0  0  0  0  0
  155.1068  136.6166  187.8923 C   0  0  0  0  0  0  0  0  0  0  0  0
  155.6225  137.8192  187.0323 C   0  0  0  0  0  0  0  0  0  0  0  0
  156.1777  135.7436  188.3071 C   0  0  0  0  0  0  0  0  0  0  0  0
  153.8748  136.1508  187.2974 N   0  0  0  0  0  0  0  0  0  0  0  0
  153.6501  135.9640  185.9599 C   0  0  0  0  0  0  0  0  0  0  0  0
  154.4678  136.0002  184.8628 C   0  0  0  0  0  0  0  0  0  0  0  0
  153.9709  135.7601  183.6003 C   0  0  0  0  0  0  0  0  0  0  0  0
  152.6365  135.4751  183.4014 C   0  0  0  0  0  0  0  0  0  0  0  0
  151.7783  135.4285  184.4835 C   0  0  0  0  0  0  0  0  0  0  0  0
  152.3163  135.6745  185.7245 C   0  0  0  0  0  0  0  0  0  0  0  0
  151.6923  135.6739  186.9321 C   0  0  0  0  0  0  0  0  0  0  0  0
  150.3961  135.5010  187.4098 C   0  0  0  0  0  0  0  0  0  0  0  0
  149.1924  135.1920  186.5837 C   0  0  0  0  0  0  0  0  0  0  0  0
  148.1259  135.1047  187.5514 N   0  0  0  0  0  0  0  0  0  0  0  0
  148.6278  135.3520  188.8707 C   0  0  0  0  0  0  0  0  0  0  0  0
  147.8612  135.3271  189.8434 O   0  0  0  0  0  0  0  0  0  0  0  0
  150.0515  135.5968  188.7500 C   0  0  0  0  0  0  0  0  0  0  0  0
  151.0220  135.8738  189.6933 C   0  0  0  0  0  0  0  0  0  0  0  0
  151.0635  135.9813  191.0587 C   0  0  0  0  0  0  0  0  0  0  0  0
  150.1286  135.9151  192.0469 C   0  0  0  0  0  0  0  0  0  0  0  0
  150.5498  136.0767  193.3625 C   0  0  0  0  0  0  0  0  0  0  0  0
  151.8770  136.2979  193.6587 C   0  0  0  0  0  0  0  0  0  0  0  0
  152.8201  136.3643  192.6546 C   0  0  0  0  0  0  0  0  0  0  0  0
  152.4139  136.2065  191.3606 C   0  0  0  0  0  0  0  0  0  0  0  0
  153.1432  136.2365  190.2592 N   0  0  0  0  0  0  0  0  0  0  0  0
  152.2863  136.0406  189.2202 C   0  0  0  0  0  0  0  0  0  0  0  0
  152.6313  135.9519  187.8556 C   0  0  0  0  0  0  0  0  0  0  0  0
  147.1391  134.8866  187.2682 H   0  0  0  0  0  0  0  0  0  0  0  0
  157.2950  134.4838  191.5528 C   0  0  0  0  0  0  0  0  0  0  0  0
  157.2947  134.6879  190.1187 N   0  0  0  0  0  0  0  0  0  0  0  0
  156.6146  133.9699  189.7341 H   0  0  0  0  0  0  0  0  0  0  0  0
  156.1229  134.3966  187.9637 O   0  0  0  0  0  0  0  0  0  0  0  0
  156.8638  134.0311  186.8732 C   0  0  0  0  0  0  0  0  0  0  0  0
 33 34  1  0  0  0
 34  1  1  0  0  0
  1  2  1  0  0  0
  2  3  1  0  0  0
  3  4  1  0  0  0
  4  5  1  0  0  0
  5  6  1  0  0  0
  5  7  1  0  0  0
  7 36  1  0  0  0
 36 37  1  0  0  0
  5  8  1  0  0  0
  8  9  1  0  0  0
  9 10  2  0  0  0
 10 11  1  0  0  0
 11 12  2  0  0  0
 12 13  1  0  0  0
 13 14  2  0  0  0
 14 15  1  0  0  0
 15 16  2  0  0  0
 16 17  1  0  0  0
 17 18  1  0  0  0
 18 19  1  0  0  0
 19 20  2  0  0  0
 19 21  1  0  0  0
 21 22  2  0  0  0
 22 23  1  0  0  0
 23 24  2  0  0  0
 24 25  1  0  0  0
 25 26  2  0  0  0
 26 27  1  0  0  0
 27 28  2  0  0  0
 28 29  1  0  0  0
 29 30  1  0  0  0
 30 31  2  0  0  0
  7  1  1  0  0  0
 31  8  1  0  0  0
 29  3  1  0  0  0
 14  9  1  0  0  0
 31 15  1  0  0  0
 21 16  1  0  0  0
 30 22  1  0  0  0
 28 23  1  0  0  0
 34 35  1  0  0  0
 18 32  1  0  0  0
M  END
> <minimizedAffinity>
-6.49312

> <CNNscore>
0.3176798820

> <CNNaffinity>
5.7143478394

> <CNN_VS>
1.8153333664

> <CNNaffinity_variance>
0.1183030009

$$$$
[H]c1c([H])c([H])c2c(c1[H])c1c3c(c4c5c([H])c([H])c([H])c([H])c5n5c4c1n2[C@@]1([H])O[C@@]5(C([H])([H])[H])[C@]([H])(OC([H])([H])[H])[C@]([H])(N([H])C([H])([H])[H])C1([H])[H])C([H])([H])N([H])C3=O


 37 44  0  0  0  0  0  0  0  0999 V2000
  154.7038  136.2789  186.3234 C   0  0  0  0  0  0  0  0  0  0  0  0
  153.9418  135.1104  185.6188 C   0  0  0  0  0  0  0  0  0  0  0  0
  152.9742  134.8100  186.5449 C   0  0  0  0  0  0  0  0  0  0  0  0
  153.6871  134.4215  187.6701 O   0  0  0  0  0  0  0  0  0  0  0  0
  153.6819  135.5435  188.5360 C   0  0  0  0  0  0  0  0  0  0  0  0
  154.7748  135.1140  189.5718 C   0  0  0  0  0  0  0  0  0  0  0  0
  154.1182  136.6390  187.7051 C   0  0  0  0  0  0  0  0  0  0  0  0
  152.4033  135.5045  189.2087 N   0  0  0  0  0  0  0  0  0  0  0  0
  152.1424  135.9836  190.4643 C   0  0  0  0  0  0  0  0  0  0  0  0
  152.8783  136.7198  191.3533 C   0  0  0  0  0  0  0  0  0  0  0  0
  152.3568  137.0824  192.5759 C   0  0  0  0  0  0  0  0  0  0  0  0
  151.0787  136.7171  192.9428 C   0  0  0  0  0  0  0  0  0  0  0  0
  150.3034  135.9742  192.0730 C   0  0  0  0  0  0  0  0  0  0  0  0
  150.8633  135.6342  190.8643 C   0  0  0  0  0  0  0  0  0  0  0  0
  150.3081  134.9289  189.8435 C   0  0  0  0  0  0  0  0  0  0  0  0
  149.1075  134.2698  189.5944 C   0  0  0  0  0  0  0  0  0  0  0  0
  147.9409  134.1947  190.5220 C   0  0  0  0  0  0  0  0  0  0  0  0
  146.9698  133.4191  189.7891 N   0  0  0  0  0  0  0  0  0  0  0  0
  147.4982  133.0345  188.5138 C   0  0  0  0  0  0  0  0  0  0  0  0
  146.8143  132.3554  187.7356 O   0  0  0  0  0  0  0  0  0  0  0  0
  148.8374  133.5814  188.4208 C   0  0  0  0  0  0  0  0  0  0  0  0
  149.7868  133.5283  187.4186 C   0  0  0  0  0  0  0  0  0  0  0  0
  149.8498  133.0133  186.1504 C   0  0  0  0  0  0  0  0  0  0  0  0
  149.0011  132.2791  185.3788 C   0  0  0  0  0  0  0  0  0  0  0  0
  149.4156  131.9247  184.0994 C   0  0  0  0  0  0  0  0  0  0  0  0
  150.6517  132.3058  183.6249 C   0  0  0  0  0  0  0  0  0  0  0  0
  151.5078  133.0490  184.4101 C   0  0  0  0  0  0  0  0  0  0  0  0
  151.1075  133.4007  185.6672 C   0  0  0  0  0  0  0  0  0  0  0  0
  151.7652  134.0996  186.5754 N   0  0  0  0  0  0  0  0  0  0  0  0
  150.9572  134.1751  187.6680 C   0  0  0  0  0  0  0  0  0  0  0  0
  151.2318  134.8659  188.8665 C   0  0  0  0  0  0  0  0  0  0  0  0
  146.0238  133.1996  190.1870 H   0  0  0  0  0  0  0  0  0  0  0  0
  154.1437  137.1240  184.1226 C   0  0  0  0  0  0  0  0  0  0  0  0
  154.4670  137.4450  185.4977 N   0  0  0  0  0  0  0  0  0  0  0  0
  153.5911  137.8947  185.8933 H   0  0  0  0  0  0  0  0  0  0  0  0
  153.3653  137.8085  187.6784 O   0  0  0  0  0  0  0  0  0  0  0  0
  153.7671  138.7934  188.5389 C   0  0  0  0  0  0  0  0  0  0  0  0
 33 34  1  0  0  0
 34  1  1  0  0  0
  1  2  1  0  0  0
  2  3  1  0  0  0
  3  4  1  0  0  0
  4  5  1  0  0  0
  5  6  1  0  0  0
  5  7  1  0  0  0
  7 36  1  0  0  0
 36 37  1  0  0  0
  5  8  1  0  0  0
  8  9  1  0  0  0
  9 10  2  0  0  0
 10 11  1  0  0  0
 11 12  2  0  0  0
 12 13  1  0  0  0
 13 14  2  0  0  0
 14 15  1  0  0  0
 15 16  2  0  0  0
 16 17  1  0  0  0
 17 18  1  0  0  0
 18 19  1  0  0  0
 19 20  2  0  0  0
 19 21  1  0  0  0
 21 22  2  0  0  0
 22 23  1  0  0  0
 23 24  2  0  0  0
 24 25  1  0  0  0
 25 26  2  0  0  0
 26 27  1  0  0  0
 27 28  2  0  0  0
 28 29  1  0  0  0
 29 30  1  0  0  0
 30 31  2  0  0  0
  7  1  1  0  0  0
 31  8  1  0  0  0
 29  3  1  0  0  0
 14  9  1  0  0  0
 31 15  1  0  0  0
 21 16  1  0  0  0
 30 22  1  0  0  0
 28 23  1  0  0  0
 34 35  1  0  0  0
 18 32  1  0  0  0
M  END
> <minimizedAffinity>
-4.51980

> <CNNscore>
0.3165513277

> <CNNaffinity>
5.5822753906

> <CNN_VS>
1.7670767307

> <CNNaffinity_variance>
0.1851503402

$$$$
[H]OC(=O)c1c([H])c([H])c([H])c(N([H])C(=O)c2c([H])c([H])c(-c3c([H])c([H])c(S(=O)(=O)N([H])[H])c([H])c3[H])c([H])c2[H])c1[H]


 32 34  0  0  0  0  0  0  0  0999 V2000
  157.3237  141.6167  184.1868 C   0  0  0  0  0  0  0  0  0  0  0  0
  156.7689  142.5414  183.3258 C   0  0  0  0  0  0  0  0  0  0  0  0
  155.5670  142.2912  182.6975 C   0  0  0  0  0  0  0  0  0  0  0  0
  154.8564  141.1180  182.8890 C   0  0  0  0  0  0  0  0  0  0  0  0
  155.3964  140.1962  183.7391 C   0  0  0  0  0  0  0  0  0  0  0  0
  156.6175  140.4489  184.3781 C   0  0  0  0  0  0  0  0  0  0  0  0
  161.0491  142.3774  186.1055 C   0  0  0  0  0  0  0  0  0  0  0  0
  159.8937  142.3083  186.8611 C   0  0  0  0  0  0  0  0  0  0  0  0
  158.7101  142.0622  186.2173 C   0  0  0  0  0  0  0  0  0  0  0  0
  158.5957  141.8776  184.8551 C   0  0  0  0  0  0  0  0  0  0  0  0
  159.7745  141.9533  184.1267 C   0  0  0  0  0  0  0  0  0  0  0  0
  160.9862  142.1998  184.7412 C   0  0  0  0  0  0  0  0  0  0  0  0
  163.8440  142.2245  185.8400 N   0  0  0  0  0  0  0  0  0  0  0  0
  162.5710  142.6915  186.9087 S   0  0  0  0  0  0  0  0  0  0  0  0
  162.6630  141.8924  188.1961 O   0  0  0  0  0  0  0  0  0  0  0  0
  162.6773  144.1608  187.2357 O   0  0  0  0  0  0  0  0  0  0  0  0
  163.4794  141.4505  185.2419 H   0  0  0  0  0  0  0  0  0  0  0  0
  164.0137  143.0383  185.1794 H   0  0  0  0  0  0  0  0  0  0  0  0
  153.5629  140.9229  182.1767 C   0  0  0  0  0  0  0  0  0  0  0  0
  152.8293  141.9370  181.9878 O   0  0  0  0  0  0  0  0  0  0  0  0
  153.1500  139.6732  181.7223 N   0  0  0  0  0  0  0  0  0  0  0  0
  153.8097  138.8625  181.9137 H   0  0  0  0  0  0  0  0  0  0  0  0
  151.9619  139.4065  181.0406 C   0  0  0  0  0  0  0  0  0  0  0  0
  151.7424  139.5926  179.6965 C   0  0  0  0  0  0  0  0  0  0  0  0
  150.5117  139.3186  179.1449 C   0  0  0  0  0  0  0  0  0  0  0  0
  149.4589  138.8546  179.8859 C   0  0  0  0  0  0  0  0  0  0  0  0
  149.6680  138.6614  181.2454 C   0  0  0  0  0  0  0  0  0  0  0  0
  150.8758  138.9288  181.7973 C   0  0  0  0  0  0  0  0  0  0  0  0
  148.5820  138.1693  182.0782 C   0  0  0  0  0  0  0  0  0  0  0  0
  147.5991  139.0260  182.5936 O   0  0  0  0  0  0  0  0  0  0  0  0
  148.5147  136.9490  182.3472 O   0  0  0  0  0  0  0  0  0  0  0  0
  147.3292  139.8671  182.1148 H   0  0  0  0  0  0  0  0  0  0  0  0
 13 14  1  0  0  0
 14 15  2  0  0  0
 14 16  2  0  0  0
 14  7  1  0  0  0
  7  8  2  0  0  0
  8  9  1  0  0  0
  9 10  2  0  0  0
 10 11  1  0  0  0
 11 12  2  0  0  0
 10  1  1  0  0  0
  1  2  2  0  0  0
  2  3  1  0  0  0
  3  4  2  0  0  0
  4  5  1  0  0  0
  5  6  2  0  0  0
  4 19  1  0  0  0
 19 20  2  0  0  0
 19 21  1  0  0  0
 21 23  1  0  0  0
 23 24  2  0  0  0
 24 25  1  0  0  0
 25 26  2  0  0  0
 26 27  1  0  0  0
 27 28  2  0  0  0
 27 29  1  0  0  0
 29 30  1  0  0  0
 29 31  2  0  0  0
 12  7  1  0  0  0
  6  1  1  0  0  0
 28 23  1  0  0  0
 13 17  1  0  0  0
 13 18  1  0  0  0
 21 22  1  0  0  0
 30 32  1  0  0  0
M  END
> <minimizedAffinity>
-7.75184

> <CNNscore>
0.4704058766

> <CNNaffinity>
5.7385497093

> <CNN_VS>
2.6994473934

> <CNNaffinity_variance>
0.3598200381

$$$$
[H]OC(=O)c1c([H])c([H])c([H])c(N([H])C(=O)c2c([H])c([H])c(-c3c([H])c([H])c(S(=O)(=O)N([H])[H])c([H])c3[H])c([H])c2[H])c1[H]


 32 34  0  0  0  0  0  0  0  0999 V2000
  151.9157  137.7260  183.4535 C   0  0  0  0  0  0  0  0  0  0  0  0
  151.6887  136.9405  184.5650 C   0  0  0  0  0  0  0  0  0  0  0  0
  152.5808  136.9278  185.6166 C   0  0  0  0  0  0  0  0  0  0  0  0
  153.7379  137.6888  185.6211 C   0  0  0  0  0  0  0  0  0  0  0  0
  153.9722  138.4697  184.5260 C   0  0  0  0  0  0  0  0  0  0  0  0
  153.0667  138.4836  183.4568 C   0  0  0  0  0  0  0  0  0  0  0  0
  149.1617  137.7437  180.2047 C   0  0  0  0  0  0  0  0  0  0  0  0
  149.7683  138.9238  180.5918 C   0  0  0  0  0  0  0  0  0  0  0  0
  150.6497  138.8881  181.6396 C   0  0  0  0  0  0  0  0  0  0  0  0
  150.9733  137.7435  182.3379 C   0  0  0  0  0  0  0  0  0  0  0  0
  150.3466  136.5767  181.9235 C   0  0  0  0  0  0  0  0  0  0  0  0
  149.4525  136.5741  180.8714 C   0  0  0  0  0  0  0  0  0  0  0  0
  147.5882  136.1373  178.5168 N   0  0  0  0  0  0  0  0  0  0  0  0
  148.0323  137.7681  178.8691 S   0  0  0  0  0  0  0  0  0  0  0  0
  148.6736  138.4005  177.6472 O   0  0  0  0  0  0  0  0  0  0  0  0
  146.8125  138.5697  179.2520 O   0  0  0  0  0  0  0  0  0  0  0  0
  148.3968  135.5315  178.7791 H   0  0  0  0  0  0  0  0  0  0  0  0
  146.8067  135.8733  179.1853 H   0  0  0  0  0  0  0  0  0  0  0  0
  154.6505  137.6235  186.7963 C   0  0  0  0  0  0  0  0  0  0  0  0
  155.8509  137.9928  186.6383 O   0  0  0  0  0  0  0  0  0  0  0  0
  154.2210  137.1737  188.0422 N   0  0  0  0  0  0  0  0  0  0  0  0
  153.2031  136.8764  188.1086 H   0  0  0  0  0  0  0  0  0  0  0  0
  155.0063  137.0903  189.1927 C   0  0  0  0  0  0  0  0  0  0  0  0
  155.1368  138.0641  190.1540 C   0  0  0  0  0  0  0  0  0  0  0  0
  155.9688  137.8732  191.2335 C   0  0  0  0  0  0  0  0  0  0  0  0
  156.6976  136.7283  191.4089 C   0  0  0  0  0  0  0  0  0  0  0  0
  156.5739  135.7360  190.4448 C   0  0  0  0  0  0  0  0  0  0  0  0
  155.7578  135.9150  189.3787 C   0  0  0  0  0  0  0  0  0  0  0  0
  157.3264  134.4993  190.5838 C   0  0  0  0  0  0  0  0  0  0  0  0
  157.7585  133.7675  189.4687 O   0  0  0  0  0  0  0  0  0  0  0  0
  157.6005  134.0687  191.7264 O   0  0  0  0  0  0  0  0  0  0  0  0
  157.9642  134.2143  188.5926 H   0  0  0  0  0  0  0  0  0  0  0  0
 13 14  1  0  0  0
 14 15  2  0  0  0
 14 16  2  0  0  0
 14  7  1  0  0  0
  7  8  2  0  0  0
  8  9  1  0  0  0
  9 10  2  0  0  0
 10 11  1  0  0  0
 11 12  2  0  0  0
 10  1  1  0  0  0
  1  2  2  0  0  0
  2  3  1  0  0  0
  3  4  2  0  0  0
  4  5  1  0  0  0
  5  6  2  0  0  0
  4 19  1  0  0  0
 19 20  2  0  0  0
 19 21  1  0  0  0
 21 23  1  0  0  0
 23 24  2  0  0  0
 24 25  1  0  0  0
 25 26  2  0  0  0
 26 27  1  0  0  0
 27 28  2  0  0  0
 27 29  1  0  0  0
 29 30  1  0  0  0
 29 31  2  0  0  0
 12  7  1  0  0  0
  6  1  1  0  0  0
 28 23  1  0  0  0
 13 17  1  0  0  0
 13 18  1  0  0  0
 21 22  1  0  0  0
 30 32  1  0  0  0
M  END
> <minimizedAffinity>
-6.02936

> <CNNscore>
0.4208327532

> <CNNaffinity>
4.7222986221

> <CNN_VS>
1.9872978926

> <CNNaffinity_variance>
0.2726739049

$$$$
[H]OC(=O)c1c([H])c([H])c([H])c(N([H])C(=O)c2c([H])c([H])c(-c3c([H])c([H])c(S(=O)(=O)N([H])[H])c([H])c3[H])c([H])c2[H])c1[H]


 32 34  0  0  0  0  0  0  0  0999 V2000
  156.0893  140.8257  183.5522 C   0  0  0  0  0  0  0  0  0  0  0  0
  155.4699  139.7801  184.2057 C   0  0  0  0  0  0  0  0  0  0  0  0
  154.2786  139.2624  183.7422 C   0  0  0  0  0  0  0  0  0  0  0  0
  153.6430  139.7515  182.6132 C   0  0  0  0  0  0  0  0  0  0  0  0
  154.2474  140.7862  181.9590 C   0  0  0  0  0  0  0  0  0  0  0  0
  155.4577  141.3132  182.4287 C   0  0  0  0  0  0  0  0  0  0  0  0
  159.7712  142.4528  184.9434 C   0  0  0  0  0  0  0  0  0  0  0  0
  159.1116  141.5070  185.7056 C   0  0  0  0  0  0  0  0  0  0  0  0
  157.9297  141.0010  185.2332 C   0  0  0  0  0  0  0  0  0  0  0  0
  157.3513  141.3766  184.0387 C   0  0  0  0  0  0  0  0  0  0  0  0
  158.0395  142.3278  183.2986 C   0  0  0  0  0  0  0  0  0  0  0  0
  159.2334  142.8602  183.7427 C   0  0  0  0  0  0  0  0  0  0  0  0
  161.2163  143.1432  187.2543 N   0  0  0  0  0  0  0  0  0  0  0  0
  161.2819  143.1119  185.5293 S   0  0  0  0  0  0  0  0  0  0  0  0
  161.4849  144.5195  184.9982 O   0  0  0  0  0  0  0  0  0  0  0  0
  162.4264  142.2442  185.0666 O   0  0  0  0  0  0  0  0  0  0  0  0
  160.2148  143.2584  187.5251 H   0  0  0  0  0  0  0  0  0  0  0  0
  161.4940  142.1771  187.5966 H   0  0  0  0  0  0  0  0  0  0  0  0
  152.3596  139.1367  182.1734 C   0  0  0  0  0  0  0  0  0  0  0  0
  151.9807  138.0751  182.7493 O   0  0  0  0  0  0  0  0  0  0  0  0
  151.5815  139.6931  181.1615 N   0  0  0  0  0  0  0  0  0  0  0  0
  151.9555  140.5827  180.7170 H   0  0  0  0  0  0  0  0  0  0  0  0
  150.3663  139.1874  180.6976 C   0  0  0  0  0  0  0  0  0  0  0  0
  149.9971  139.0540  179.3803 C   0  0  0  0  0  0  0  0  0  0  0  0
  148.7536  138.5663  179.0491 C   0  0  0  0  0  0  0  0  0  0  0  0
  147.8334  138.1937  179.9910 C   0  0  0  0  0  0  0  0  0  0  0  0
  148.1946  138.3228  181.3260 C   0  0  0  0  0  0  0  0  0  0  0  0
  149.4162  138.8021  181.6616 C   0  0  0  0  0  0  0  0  0  0  0  0
  147.2535  137.9404  182.3667 C   0  0  0  0  0  0  0  0  0  0  0  0
  146.8208  136.6158  182.5218 O   0  0  0  0  0  0  0  0  0  0  0  0
  146.8125  138.8107  183.1503 O   0  0  0  0  0  0  0  0  0  0  0  0
  147.4010  135.8379  182.2613 H   0  0  0  0  0  0  0  0  0  0  0  0
 13 14  1  0  0  0
 14 15  2  0  0  0
 14 16  2  0  0  0
 14  7  1  0  0  0
  7  8  2  0  0  0
  8  9  1  0  0  0
  9 10  2  0  0  0
 10 11  1  0  0  0
 11 12  2  0  0  0
 10  1  1  0  0  0
  1  2  2  0  0  0
  2  3  1  0  0  0
  3  4  2  0  0  0
  4  5  1  0  0  0
  5  6  2  0  0  0
  4 19  1  0  0  0
 19 20  2  0  0  0
 19 21  1  0  0  0
 21 23  1  0  0  0
 23 24  2  0  0  0
 24 25  1  0  0  0
 25 26  2  0  0  0
 26 27  1  0  0  0
 27 28  2  0  0  0
 27 29  1  0  0  0
 29 30  1  0  0  0
 29 31  2  0  0  0
 12  7  1  0  0  0
  6  1  1  0  0  0
 28 23  1  0  0  0
 13 17  1  0  0  0
 13 18  1  0  0  0
 21 22  1  0  0  0
 30 32  1  0  0  0
M  END
> <minimizedAffinity>
-8.78083

> <CNNscore>
0.3917164803

> <CNNaffinity>
5.4854278564

> <CNN_VS>
2.1487324238

> <CNNaffinity_variance>
0.1037053838

$$$$
[H]OC(=O)c1c([H])c([H])c([H])c(N([H])C(=O)c2c([H])c([H])c(-c3c([H])c([H])c(S(=O)(=O)N([H])[H])c([H])c3[H])c([H])c2[H])c1[H]


 32 34  0  0  0  0  0  0  0  0999 V2000
  155.1839  136.4026  186.6526 C   0  0  0  0  0  0  0  0  0  0  0  0
  154.3909  135.8007  185.6971 C   0  0  0  0  0  0  0  0  0  0  0  0
  153.8117  136.5423  184.6890 C   0  0  0  0  0  0  0  0  0  0  0  0
  153.9873  137.9114  184.5761 C   0  0  0  0  0  0  0  0  0  0  0  0
  154.7702  138.5170  185.5164 C   0  0  0  0  0  0  0  0  0  0  0  0
  155.3594  137.7649  186.5413 C   0  0  0  0  0  0  0  0  0  0  0  0
  156.9507  134.1117  189.7782 C   0  0  0  0  0  0  0  0  0  0  0  0
  157.7544  134.8793  188.9565 C   0  0  0  0  0  0  0  0  0  0  0  0
  157.1588  135.6060  187.9598 C   0  0  0  0  0  0  0  0  0  0  0  0
  155.8003  135.6214  187.7215 C   0  0  0  0  0  0  0  0  0  0  0  0
  155.0228  134.8400  188.5647 C   0  0  0  0  0  0  0  0  0  0  0  0
  155.5879  134.0943  189.5800 C   0  0  0  0  0  0  0  0  0  0  0  0
  159.1257  132.4511  190.4241 N   0  0  0  0  0  0  0  0  0  0  0  0
  157.6920  133.1758  191.0567 S   0  0  0  0  0  0  0  0  0  0  0  0
  156.7411  132.0954  191.5392 O   0  0  0  0  0  0  0  0  0  0  0  0
  158.0327  134.0812  192.2149 O   0  0  0  0  0  0  0  0  0  0  0  0
  158.9730  132.3005  189.4025 H   0  0  0  0  0  0  0  0  0  0  0  0
  159.8996  133.1749  190.4921 H   0  0  0  0  0  0  0  0  0  0  0  0
  153.3309  138.6421  183.4564 C   0  0  0  0  0  0  0  0  0  0  0  0
  153.6417  139.8557  183.2753 O   0  0  0  0  0  0  0  0  0  0  0  0
  152.4003  138.0317  182.6197 N   0  0  0  0  0  0  0  0  0  0  0  0
  152.1814  137.0125  182.8255 H   0  0  0  0  0  0  0  0  0  0  0  0
  151.7484  138.6399  181.5461 C   0  0  0  0  0  0  0  0  0  0  0  0
  152.3522  139.3112  180.5098 C   0  0  0  0  0  0  0  0  0  0  0  0
  151.5949  139.8960  179.5206 C   0  0  0  0  0  0  0  0  0  0  0  0
  150.2275  139.8435  179.5111 C   0  0  0  0  0  0  0  0  0  0  0  0
  149.6051  139.1671  180.5526 C   0  0  0  0  0  0  0  0  0  0  0  0
  150.3421  138.5888  181.5309 C   0  0  0  0  0  0  0  0  0  0  0  0
  148.1537  139.0814  180.5897 C   0  0  0  0  0  0  0  0  0  0  0  0
  147.4114  138.6306  179.4891 O   0  0  0  0  0  0  0  0  0  0  0  0
  147.5420  139.4170  181.6286 O   0  0  0  0  0  0  0  0  0  0  0  0
  147.7913  137.9737  178.8305 H   0  0  0  0  0  0  0  0  0  0  0  0
 13 14  1  0  0  0
 14 15  2  0  0  0
 14 16  2  0  0  0
 14  7  1  0  0  0
  7  8  2  0  0  0
  8  9  1  0  0  0
  9 10  2  0  0  0
 10 11  1  0  0  0
 11 12  2  0  0  0
 10  1  1  0  0  0
  1  2  2  0  0  0
  2  3  1  0  0  0
  3  4  2  0  0  0
  4  5  1  0  0  0
  5  6  2  0  0  0
  4 19  1  0  0  0
 19 20  2  0  0  0
 19 21  1  0  0  0
 21 23  1  0  0  0
 23 24  2  0  0  0
 24 25  1  0  0  0
 25 26  2  0  0  0
 26 27  1  0  0  0
 27 28  2  0  0  0
 27 29  1  0  0  0
 29 30  1  0  0  0
 29 31  2  0  0  0
 12  7  1  0  0  0
  6  1  1  0  0  0
 28 23  1  0  0  0
 13 17  1  0  0  0
 13 18  1  0  0  0
 21 22  1  0  0  0
 30 32  1  0  0  0
M  END
> <minimizedAffinity>
-6.34162

> <CNNscore>
0.3792937994

> <CNNaffinity>
4.7693443298

> <CNN_VS>
1.8089827299

> <CNNaffinity_variance>
0.1083400026

$$$$
[H]OC(=O)c1c([H])c([H])c([H])c(N([H])C(=O)c2c([H])c([H])c(-c3c([H])c([H])c(S(=O)(=O)N([H])[H])c([H])c3[H])c([H])c2[H])c1[H]


 32 34  0  0  0  0  0  0  0  0999 V2000
  157.0702  141.1122  184.3402 C   0  0  0  0  0  0  0  0  0  0  0  0
  156.3801  141.9457  183.4840 C   0  0  0  0  0  0  0  0  0  0  0  0
  155.1892  141.5462  182.9148 C   0  0  0  0  0  0  0  0  0  0  0  0
  154.6236  140.3067  183.1632 C   0  0  0  0  0  0  0  0  0  0  0  0
  155.2983  139.4742  184.0091 C   0  0  0  0  0  0  0  0  0  0  0  0
  156.5084  139.8786  184.5882 C   0  0  0  0  0  0  0  0  0  0  0  0
  160.7336  142.3303  186.1388 C   0  0  0  0  0  0  0  0  0  0  0  0
  160.6499  142.2269  184.7630 C   0  0  0  0  0  0  0  0  0  0  0  0
  159.4592  141.8332  184.2123 C   0  0  0  0  0  0  0  0  0  0  0  0
  158.3311  141.5312  184.9463 C   0  0  0  0  0  0  0  0  0  0  0  0
  158.4497  141.6454  186.3243 C   0  0  0  0  0  0  0  0  0  0  0  0
  159.6338  142.0394  186.9151 C   0  0  0  0  0  0  0  0  0  0  0  0
  162.1229  144.5099  187.2456 N   0  0  0  0  0  0  0  0  0  0  0  0
  162.2457  142.8310  186.8620 S   0  0  0  0  0  0  0  0  0  0  0  0
  163.3930  142.6089  185.8931 O   0  0  0  0  0  0  0  0  0  0  0  0
  162.4992  142.0272  188.1136 O   0  0  0  0  0  0  0  0  0  0  0  0
  161.4642  144.9383  186.5584 H   0  0  0  0  0  0  0  0  0  0  0  0
  161.6376  144.5820  188.1874 H   0  0  0  0  0  0  0  0  0  0  0  0
  153.3321  139.9495  182.5128 C   0  0  0  0  0  0  0  0  0  0  0  0
  152.7360  140.8436  181.8438 O   0  0  0  0  0  0  0  0  0  0  0  0
  152.7760  138.6776  182.6220 N   0  0  0  0  0  0  0  0  0  0  0  0
  153.3242  137.9734  183.1985 H   0  0  0  0  0  0  0  0  0  0  0  0
  151.5793  138.2595  182.0384 C   0  0  0  0  0  0  0  0  0  0  0  0
  150.7093  137.3301  182.5566 C   0  0  0  0  0  0  0  0  0  0  0  0
  149.5703  136.9791  181.8684 C   0  0  0  0  0  0  0  0  0  0  0  0
  149.2448  137.5235  180.6558 C   0  0  0  0  0  0  0  0  0  0  0  0
  150.1155  138.4648  180.1216 C   0  0  0  0  0  0  0  0  0  0  0  0
  151.2391  138.8162  180.7914 C   0  0  0  0  0  0  0  0  0  0  0  0
  149.8160  139.0744  178.8356 C   0  0  0  0  0  0  0  0  0  0  0  0
  150.5586  140.1550  178.3389 O   0  0  0  0  0  0  0  0  0  0  0  0
  148.8713  138.6289  178.1464 O   0  0  0  0  0  0  0  0  0  0  0  0
  151.5254  140.2849  178.5793 H   0  0  0  0  0  0  0  0  0  0  0  0
 13 14  1  0  0  0
 14 15  2  0  0  0
 14 16  2  0  0  0
 14  7  1  0  0  0
  7  8  2  0  0  0
  8  9  1  0  0  0
  9 10  2  0  0  0
 10 11  1  0  0  0
 11 12  2  0  0  0
 10  1  1  0  0  0
  1  2  2  0  0  0
  2  3  1  0  0  0
  3  4  2  0  0  0
  4  5  1  0  0  0
  5  6  2  0  0  0
  4 19  1  0  0  0
 19 20  2  0  0  0
 19 21  1  0  0  0
 21 23  1  0  0  0
 23 24  2  0  0  0
 24 25  1  0  0  0
 25 26  2  0  0  0
 26 27  1  0  0  0
 27 28  2  0  0  0
 27 29  1  0  0  0
 29 30  1  0  0  0
 29 31  2  0  0  0
 12  7  1  0  0  0
  6  1  1  0  0  0
 28 23  1  0  0  0
 13 17  1  0  0  0
 13 18  1  0  0  0
 21 22  1  0  0  0
 30 32  1  0  0  0
M  END
> <minimizedAffinity>
-7.67562

> <CNNscore>
0.2660555243

> <CNNaffinity>
5.4940314293

> <CNN_VS>
1.4617173672

> <CNNaffinity_variance>
0.5346366763

$$$$
[H]OC(=O)c1c([H])c([H])c([H])c(N([H])C(=O)c2c([H])c([H])c(-c3c([H])c([H])c(S(=O)(=O)N([H])[H])c([H])c3[H])c([H])c2[H])c1[H]


 32 34  0  0  0  0  0  0  0  0999 V2000
  155.6286  140.5104  183.4493 C   0  0  0  0  0  0  0  0  0  0  0  0
  155.1396  139.3446  184.0023 C   0  0  0  0  0  0  0  0  0  0  0  0
  153.9001  138.8573  183.6445 C   0  0  0  0  0  0  0  0  0  0  0  0
  153.0854  139.4966  182.7250 C   0  0  0  0  0  0  0  0  0  0  0  0
  153.5597  140.6511  182.1717 C   0  0  0  0  0  0  0  0  0  0  0  0
  154.8188  141.1474  182.5343 C   0  0  0  0  0  0  0  0  0  0  0  0
  159.4557  142.0051  184.5712 C   0  0  0  0  0  0  0  0  0  0  0  0
  158.8792  142.4249  183.3871 C   0  0  0  0  0  0  0  0  0  0  0  0
  157.6476  141.9278  183.0520 C   0  0  0  0  0  0  0  0  0  0  0  0
  156.9410  141.0297  183.8244 C   0  0  0  0  0  0  0  0  0  0  0  0
  157.5485  140.6292  185.0062 C   0  0  0  0  0  0  0  0  0  0  0  0
  158.7890  141.1089  185.3768 C   0  0  0  0  0  0  0  0  0  0  0  0
  161.1451  142.5971  186.7393 N   0  0  0  0  0  0  0  0  0  0  0  0
  161.0284  142.6278  185.0170 S   0  0  0  0  0  0  0  0  0  0  0  0
  161.1934  144.0516  184.5170 O   0  0  0  0  0  0  0  0  0  0  0  0
  162.1061  141.7663  184.4058 O   0  0  0  0  0  0  0  0  0  0  0  0
  160.1793  142.7121  187.1183 H   0  0  0  0  0  0  0  0  0  0  0  0
  161.4442  141.6166  187.0162 H   0  0  0  0  0  0  0  0  0  0  0  0
  151.7605  138.9056  182.3878 C   0  0  0  0  0  0  0  0  0  0  0  0
  151.3876  137.8785  183.0266 O   0  0  0  0  0  0  0  0  0  0  0  0
  150.9378  139.4476  181.4037 N   0  0  0  0  0  0  0  0  0  0  0  0
  151.3090  140.3081  180.9030 H   0  0  0  0  0  0  0  0  0  0  0  0
  149.6826  138.9626  181.0340 C   0  0  0  0  0  0  0  0  0  0  0  0
  148.4877  139.6286  181.1681 C   0  0  0  0  0  0  0  0  0  0  0  0
  147.3075  139.0291  180.7913 C   0  0  0  0  0  0  0  0  0  0  0  0
  147.2565  137.7640  180.2723 C   0  0  0  0  0  0  0  0  0  0  0  0
  148.4574  137.0805  180.1308 C   0  0  0  0  0  0  0  0  0  0  0  0
  149.6239  137.6622  180.4992 C   0  0  0  0  0  0  0  0  0  0  0  0
  148.4589  135.7330  179.5837 C   0  0  0  0  0  0  0  0  0  0  0  0
  147.4890  135.3070  178.6653 O   0  0  0  0  0  0  0  0  0  0  0  0
  149.3465  134.9246  179.9366 O   0  0  0  0  0  0  0  0  0  0  0  0
  147.0437  135.9486  178.0333 H   0  0  0  0  0  0  0  0  0  0  0  0
 13 14  1  0  0  0
 14 15  2  0  0  0
 14 16  2  0  0  0
 14  7  1  0  0  0
  7  8  2  0  0  0
  8  9  1  0  0  0
  9 10  2  0  0  0
 10 11  1  0  0  0
 11 12  2  0  0  0
 10  1  1  0  0  0
  1  2  2  0  0  0
  2  3  1  0  0  0
  3  4  2  0  0  0
  4  5  1  0  0  0
  5  6  2  0  0  0
  4 19  1  0  0  0
 19 20  2  0  0  0
 19 21  1  0  0  0
 21 23  1  0  0  0
 23 24  2  0  0  0
 24 25  1  0  0  0
 25 26  2  0  0  0
 26 27  1  0  0  0
 27 28  2  0  0  0
 27 29  1  0  0  0
 29 30  1  0  0  0
 29 31  2  0  0  0
 12  7  1  0  0  0
  6  1  1  0  0  0
 28 23  1  0  0  0
 13 17  1  0  0  0
 13 18  1  0  0  0
 21 22  1  0  0  0
 30 32  1  0  0  0
M  END
> <minimizedAffinity>
-8.44927

> <CNNscore>
0.2645804584

> <CNNaffinity>
5.2854967117

> <CNN_VS>
1.3984391689

> <CNNaffinity_variance>
0.1235946789

$$$$
[H]OC(=O)c1c([H])c([H])c([H])c(N([H])C(=O)c2c([H])c([H])c(-c3c([H])c([H])c(S(=O)(=O)N([H])[H])c([H])c3[H])c([H])c2[H])c1[H]


 32 34  0  0  0  0  0  0  0  0999 V2000
  155.1443  135.4693  186.7917 C   0  0  0  0  0  0  0  0  0  0  0  0
  154.3586  134.8801  185.8224 C   0  0  0  0  0  0  0  0  0  0  0  0
  153.6327  135.6483  184.9366 C   0  0  0  0  0  0  0  0  0  0  0  0
  153.6477  137.0329  184.9653 C   0  0  0  0  0  0  0  0  0  0  0  0
  154.4220  137.6261  185.9204 C   0  0  0  0  0  0  0  0  0  0  0  0
  155.1601  136.8470  186.8212 C   0  0  0  0  0  0  0  0  0  0  0  0
  157.4075  133.1377  189.5450 C   0  0  0  0  0  0  0  0  0  0  0  0
  156.5345  132.5108  188.6758 C   0  0  0  0  0  0  0  0  0  0  0  0
  155.8200  133.2858  187.8012 C   0  0  0  0  0  0  0  0  0  0  0  0
  155.9157  134.6600  187.7313 C   0  0  0  0  0  0  0  0  0  0  0  0
  156.8010  135.2571  188.6177 C   0  0  0  0  0  0  0  0  0  0  0  0
  157.5381  134.5083  189.5134 C   0  0  0  0  0  0  0  0  0  0  0  0
  158.1719  132.8724  192.2377 N   0  0  0  0  0  0  0  0  0  0  0  0
  158.3289  132.1657  190.6703 S   0  0  0  0  0  0  0  0  0  0  0  0
  159.7917  132.1346  190.2659 O   0  0  0  0  0  0  0  0  0  0  0  0
  157.7929  130.7552  190.6781 O   0  0  0  0  0  0  0  0  0  0  0  0
  158.0301  133.8979  192.1034 H   0  0  0  0  0  0  0  0  0  0  0  0
  157.2643  132.5123  192.6550 H   0  0  0  0  0  0  0  0  0  0  0  0
  152.8389  137.7929  183.9720 C   0  0  0  0  0  0  0  0  0  0  0  0
  153.3329  138.8538  183.4898 O   0  0  0  0  0  0  0  0  0  0  0  0
  151.5747  137.3704  183.5693 N   0  0  0  0  0  0  0  0  0  0  0  0
  151.2160  136.4737  184.0123 H   0  0  0  0  0  0  0  0  0  0  0  0
  150.7580  138.0166  182.6403 C   0  0  0  0  0  0  0  0  0  0  0  0
  149.3874  138.1064  182.6942 C   0  0  0  0  0  0  0  0  0  0  0  0
  148.6895  138.7488  181.6971 C   0  0  0  0  0  0  0  0  0  0  0  0
  149.3059  139.3233  180.6188 C   0  0  0  0  0  0  0  0  0  0  0  0
  150.6908  139.2403  180.5530 C   0  0  0  0  0  0  0  0  0  0  0  0
  151.3862  138.6097  181.5294 C   0  0  0  0  0  0  0  0  0  0  0  0
  151.3952  139.8349  179.4280 C   0  0  0  0  0  0  0  0  0  0  0  0
  150.7135  140.4806  178.3868 O   0  0  0  0  0  0  0  0  0  0  0  0
  152.6441  139.7736  179.3796 O   0  0  0  0  0  0  0  0  0  0  0  0
  149.8314  140.9373  178.5378 H   0  0  0  0  0  0  0  0  0  0  0  0
 13 14  1  0  0  0
 14 15  2  0  0  0
 14 16  2  0  0  0
 14  7  1  0  0  0
  7  8  2  0  0  0
  8  9  1  0  0  0
  9 10  2  0  0  0
 10 11  1  0  0  0
 11 12  2  0  0  0
 10  1  1  0  0  0
  1  2  2  0  0  0
  2  3  1  0  0  0
  3  4  2  0  0  0
  4  5  1  0  0  0
  5  6  2  0  0  0
  4 19  1  0  0  0
 19 20  2  0  0  0
 19 21  1  0  0  0
 21 23  1  0  0  0
 23 24  2  0  0  0
 24 25  1  0  0  0
 25 26  2  0  0  0
 26 27  1  0  0  0
 27 28  2  0  0  0
 27 29  1  0  0  0
 29 30  1  0  0  0
 29 31  2  0  0  0
 12  7  1  0  0  0
  6  1  1  0  0  0
 28 23  1  0  0  0
 13 17  1  0  0  0
 13 18  1  0  0  0
 21 22  1  0  0  0
 30 32  1  0  0  0
M  END
> <minimizedAffinity>
-5.80721

> <CNNscore>
0.2359235734

> <CNNaffinity>
4.6708936691

> <CNN_VS>
1.1019738913

> <CNNaffinity_variance>
0.3467507958

$$$$
[H]OC(=O)c1c([H])c([H])c([H])c(N([H])C(=O)c2c([H])c([H])c(-c3c([H])c([H])c(S(=O)(=O)N([H])[H])c([H])c3[H])c([H])c2[H])c1[H]


 32 34  0  0  0  0  0  0  0  0999 V2000
  155.7473  140.9644  183.1842 C   0  0  0  0  0  0  0  0  0  0  0  0
  155.0768  141.7048  182.2323 C   0  0  0  0  0  0  0  0  0  0  0  0
  153.8432  141.3039  181.7638 C   0  0  0  0  0  0  0  0  0  0  0  0
  153.2137  140.1546  182.2120 C   0  0  0  0  0  0  0  0  0  0  0  0
  153.8685  139.4147  183.1541 C   0  0  0  0  0  0  0  0  0  0  0  0
  155.1219  139.8206  183.6310 C   0  0  0  0  0  0  0  0  0  0  0  0
  159.5585  142.2148  184.6162 C   0  0  0  0  0  0  0  0  0  0  0  0
  158.8423  141.2658  185.3210 C   0  0  0  0  0  0  0  0  0  0  0  0
  157.6197  140.8825  184.8369 C   0  0  0  0  0  0  0  0  0  0  0  0
  157.0533  141.3855  183.6841 C   0  0  0  0  0  0  0  0  0  0  0  0
  157.7988  142.3362  183.0011 C   0  0  0  0  0  0  0  0  0  0  0  0
  159.0349  142.7469  183.4588 C   0  0  0  0  0  0  0  0  0  0  0  0
  162.3293  141.7818  184.4146 N   0  0  0  0  0  0  0  0  0  0  0  0
  161.1219  142.7183  185.2182 S   0  0  0  0  0  0  0  0  0  0  0  0
  161.2088  142.4902  186.7165 O   0  0  0  0  0  0  0  0  0  0  0  0
  161.3253  144.1862  184.9338 O   0  0  0  0  0  0  0  0  0  0  0  0
  161.9002  140.8606  184.1758 H   0  0  0  0  0  0  0  0  0  0  0  0
  162.5250  142.2540  183.4839 H   0  0  0  0  0  0  0  0  0  0  0  0
  151.8793  139.7900  181.6599 C   0  0  0  0  0  0  0  0  0  0  0  0
  151.5245  140.3171  180.5650 O   0  0  0  0  0  0  0  0  0  0  0  0
  151.0288  138.8987  182.3088 N   0  0  0  0  0  0  0  0  0  0  0  0
  151.3841  138.4926  183.2242 H   0  0  0  0  0  0  0  0  0  0  0  0
  149.7709  138.4978  181.8566 C   0  0  0  0  0  0  0  0  0  0  0  0
  148.5786  139.1283  182.1214 C   0  0  0  0  0  0  0  0  0  0  0  0
  147.3954  138.6163  181.6398 C   0  0  0  0  0  0  0  0  0  0  0  0
  147.3387  137.4757  180.8857 C   0  0  0  0  0  0  0  0  0  0  0  0
  148.5370  136.8295  180.6103 C   0  0  0  0  0  0  0  0  0  0  0  0
  149.7065  137.3257  181.0803 C   0  0  0  0  0  0  0  0  0  0  0  0
  148.5325  135.6135  179.8126 C   0  0  0  0  0  0  0  0  0  0  0  0
  147.5814  135.3930  178.8063 O   0  0  0  0  0  0  0  0  0  0  0  0
  149.3976  134.7341  180.0229 O   0  0  0  0  0  0  0  0  0  0  0  0
  147.1634  136.1537  178.3003 H   0  0  0  0  0  0  0  0  0  0  0  0
 13 14  1  0  0  0
 14 15  2  0  0  0
 14 16  2  0  0  0
 14  7  1  0  0  0
  7  8  2  0  0  0
  8  9  1  0  0  0
  9 10  2  0  0  0
 10 11  1  0  0  0
 11 12  2  0  0  0
 10  1  1  0  0  0
  1  2  2  0  0  0
  2  3  1  0  0  0
  3  4  2  0  0  0
  4  5  1  0  0  0
  5  6  2  0  0  0
  4 19  1  0  0  0
 19 20  2  0  0  0
 19 21  1  0  0  0
 21 23  1  0  0  0
 23 24  2  0  0  0
 24 25  1  0  0  0
 25 26  2  0  0  0
 26 27  1  0  0  0
 27 28  2  0  0  0
 27 29  1  0  0  0
 29 30  1  0  0  0
 29 31  2  0  0  0
 12  7  1  0  0  0
  6  1  1  0  0  0
 28 23  1  0  0  0
 13 17  1  0  0  0
 13 18  1  0  0  0
 21 22  1  0  0  0
 30 32  1  0  0  0
M  END
> <minimizedAffinity>
-8.48269

> <CNNscore>
0.2327815890

> <CNNaffinity>
5.2309403419

> <CNN_VS>
1.2176666260

> <CNNaffinity_variance>
0.0704062805

$$$$
[H]OC(=O)c1c([H])c([H])c([H])c(N([H])C(=O)c2c([H])c([H])c(-c3c([H])c([H])c(S(=O)(=O)N([H])[H])c([H])c3[H])c([H])c2[H])c1[H]


 32 34  0  0  0  0  0  0  0  0999 V2000
  155.4276  139.2435  185.1306 C   0  0  0  0  0  0  0  0  0  0  0  0
  156.1728  138.5906  186.0910 C   0  0  0  0  0  0  0  0  0  0  0  0
  155.5590  137.9269  187.1325 C   0  0  0  0  0  0  0  0  0  0  0  0
  154.1824  137.8762  187.2754 C   0  0  0  0  0  0  0  0  0  0  0  0
  153.4356  138.5190  186.3304 C   0  0  0  0  0  0  0  0  0  0  0  0
  154.0577  139.1937  185.2717 C   0  0  0  0  0  0  0  0  0  0  0  0
  157.2795  141.3078  181.8982 C   0  0  0  0  0  0  0  0  0  0  0  0
  158.0530  140.5483  182.7557 C   0  0  0  0  0  0  0  0  0  0  0  0
  157.4305  139.8953  183.7862 C   0  0  0  0  0  0  0  0  0  0  0  0
  156.0730  139.9468  184.0253 C   0  0  0  0  0  0  0  0  0  0  0  0
  155.3261  140.7180  183.1458 C   0  0  0  0  0  0  0  0  0  0  0  0
  155.9189  141.3904  182.0956 C   0  0  0  0  0  0  0  0  0  0  0  0
  157.4888  141.4601  179.0985 N   0  0  0  0  0  0  0  0  0  0  0  0
  158.0556  142.1503  180.5761 S   0  0  0  0  0  0  0  0  0  0  0  0
  159.5634  142.0000  180.6672 O   0  0  0  0  0  0  0  0  0  0  0  0
  157.7052  143.6169  180.6348 O   0  0  0  0  0  0  0  0  0  0  0  0
  157.2549  140.4613  179.2917 H   0  0  0  0  0  0  0  0  0  0  0  0
  156.5645  141.9289  178.8672 H   0  0  0  0  0  0  0  0  0  0  0  0
  153.5942  137.1358  188.4262 C   0  0  0  0  0  0  0  0  0  0  0  0
  152.5086  136.5122  188.2397 O   0  0  0  0  0  0  0  0  0  0  0  0
  154.2005  137.1145  189.6795 N   0  0  0  0  0  0  0  0  0  0  0  0
  155.1083  137.6590  189.7712 H   0  0  0  0  0  0  0  0  0  0  0  0
  153.7222  136.4404  190.8039 C   0  0  0  0  0  0  0  0  0  0  0  0
  153.0753  137.0117  191.8738 C   0  0  0  0  0  0  0  0  0  0  0  0
  152.6757  136.2408  192.9415 C   0  0  0  0  0  0  0  0  0  0  0  0
  152.8936  134.8910  192.9983 C   0  0  0  0  0  0  0  0  0  0  0  0
  153.5457  134.3014  191.9229 C   0  0  0  0  0  0  0  0  0  0  0  0
  153.9430  135.0520  190.8677 C   0  0  0  0  0  0  0  0  0  0  0  0
  153.8016  132.8698  191.9330 C   0  0  0  0  0  0  0  0  0  0  0  0
  153.4780  132.0687  193.0373 O   0  0  0  0  0  0  0  0  0  0  0  0
  154.3247  132.3292  190.9330 O   0  0  0  0  0  0  0  0  0  0  0  0
  152.7169  132.2999  193.6511 H   0  0  0  0  0  0  0  0  0  0  0  0
 13 14  1  0  0  0
 14 15  2  0  0  0
 14 16  2  0  0  0
 14  7  1  0  0  0
  7  8  2  0  0  0
  8  9  1  0  0  0
  9 10  2  0  0  0
 10 11  1  0  0  0
 11 12  2  0  0  0
 10  1  1  0  0  0
  1  2  2  0  0  0
  2  3  1  0  0  0
  3  4  2  0  0  0
  4  5  1  0  0  0
  5  6  2  0  0  0
  4 19  1  0  0  0
 19 20  2  0  0  0
 19 21  1  0  0  0
 21 23  1  0  0  0
 23 24  2  0  0  0
 24 25  1  0  0  0
 25 26  2  0  0  0
 26 27  1  0  0  0
 27 28  2  0  0  0
 27 29  1  0  0  0
 29 30  1  0  0  0
 29 31  2  0  0  0
 12  7  1  0  0  0
  6  1  1  0  0  0
 28 23  1  0  0  0
 13 17  1  0  0  0
 13 18  1  0  0  0
 21 22  1  0  0  0
 30 32  1  0  0  0
M  END
> <minimizedAffinity>
-7.47091

> <CNNscore>
0.2189236879

> <CNNaffinity>
5.0389337540

> <CNN_VS>
1.1031419039

> <CNNaffinity_variance>
0.2243361473

$$$$
[H]OC(=O)[C@@]([H])(N([H])C(=O)[C@@]([H])(N([H])C(=O)[C@]([H])(N([H])C(=O)[C@]([H])(N([H])C(=O)c1c([H])c([H])c([H])c([H])c1[H])C([H])([H])c1c([H])c([H])c([H])c([H])c1[H])C([H])([H])c1c([H])c([H])c([H])c([H])c1[H])C([H])([H])c1c([H])c([H])c([H])c([H])c1[H])C([H])([H])C([H])(C([H])([H])[H])C([H])([H])[H]


 55 58  0  0  0  0  0  0  0  0999 V2000
  154.7298  138.4061  185.9036 C   0  0  0  0  0  0  0  0  0  0  0  0
  153.8878  137.7845  183.6174 N   0  0  0  0  0  0  0  0  0  0  0  0
  153.6529  137.9251  184.9593 C   0  0  0  0  0  0  0  0  0  0  0  0
  152.5149  137.6590  185.4889 O   0  0  0  0  0  0  0  0  0  0  0  0
  154.7948  138.0081  183.1496 H   0  0  0  0  0  0  0  0  0  0  0  0
  152.8109  137.2962  182.7368 C   0  0  0  0  0  0  0  0  0  0  0  0
  153.9474  134.9928  182.9129 N   0  0  0  0  0  0  0  0  0  0  0  0
  153.0246  135.8943  182.3679 C   0  0  0  0  0  0  0  0  0  0  0  0
  152.2624  135.4675  181.4232 O   0  0  0  0  0  0  0  0  0  0  0  0
  154.5945  135.2535  183.7000 H   0  0  0  0  0  0  0  0  0  0  0  0
  153.9995  133.6294  182.3474 C   0  0  0  0  0  0  0  0  0  0  0  0
  153.3998  132.7085  183.3228 C   0  0  0  0  0  0  0  0  0  0  0  0
  154.1990  131.6973  183.8767 O   0  0  0  0  0  0  0  0  0  0  0  0
  152.2130  132.7292  183.7258 O   0  0  0  0  0  0  0  0  0  0  0  0
  154.0710  130.7422  183.5713 H   0  0  0  0  0  0  0  0  0  0  0  0
  155.4965  133.3613  182.2300 C   0  0  0  0  0  0  0  0  0  0  0  0
  155.0182  133.3757  179.8646 C   0  0  0  0  0  0  0  0  0  0  0  0
  156.1039  133.6901  180.9210 C   0  0  0  0  0  0  0  0  0  0  0  0
  157.2773  132.8118  180.5445 C   0  0  0  0  0  0  0  0  0  0  0  0
  152.4193  138.2694  181.7204 C   0  0  0  0  0  0  0  0  0  0  0  0
  151.0519  138.5338  181.3783 C   0  0  0  0  0  0  0  0  0  0  0  0
  150.7183  138.6883  180.0295 C   0  0  0  0  0  0  0  0  0  0  0  0
  149.4442  138.9189  179.5921 C   0  0  0  0  0  0  0  0  0  0  0  0
  148.4114  139.0098  180.4901 C   0  0  0  0  0  0  0  0  0  0  0  0
  148.6965  138.8642  181.8382 C   0  0  0  0  0  0  0  0  0  0  0  0
  149.9835  138.6343  182.2478 C   0  0  0  0  0  0  0  0  0  0  0  0
  155.8084  138.9724  185.1195 N   0  0  0  0  0  0  0  0  0  0  0  0
  155.5925  140.1320  184.3695 C   0  0  0  0  0  0  0  0  0  0  0  0
  154.3650  140.6474  184.4523 O   0  0  0  0  0  0  0  0  0  0  0  0
  156.6933  138.4546  185.1397 H   0  0  0  0  0  0  0  0  0  0  0  0
  156.4882  140.8660  183.4972 C   0  0  0  0  0  0  0  0  0  0  0  0
  157.5153  141.5758  184.2908 N   0  0  0  0  0  0  0  0  0  0  0  0
  158.8509  141.1406  184.2812 C   0  0  0  0  0  0  0  0  0  0  0  0
  159.1561  140.1301  183.5666 O   0  0  0  0  0  0  0  0  0  0  0  0
  157.2240  142.4173  184.8662 H   0  0  0  0  0  0  0  0  0  0  0  0
  159.9209  141.7549  185.0311 C   0  0  0  0  0  0  0  0  0  0  0  0
  159.7041  142.2094  186.3148 C   0  0  0  0  0  0  0  0  0  0  0  0
  160.7536  142.8011  187.0354 C   0  0  0  0  0  0  0  0  0  0  0  0
  161.9814  142.9318  186.4828 C   0  0  0  0  0  0  0  0  0  0  0  0
  162.2051  142.4756  185.1891 C   0  0  0  0  0  0  0  0  0  0  0  0
  161.1783  141.8950  184.4801 C   0  0  0  0  0  0  0  0  0  0  0  0
  156.0734  141.5736  182.2782 C   0  0  0  0  0  0  0  0  0  0  0  0
  157.1154  142.2564  181.5244 C   0  0  0  0  0  0  0  0  0  0  0  0
  157.5968  143.5081  181.7244 C   0  0  0  0  0  0  0  0  0  0  0  0
  158.6013  144.0693  180.9467 C   0  0  0  0  0  0  0  0  0  0  0  0
  159.1550  143.3466  179.9178 C   0  0  0  0  0  0  0  0  0  0  0  0
  158.6948  142.0620  179.6758 C   0  0  0  0  0  0  0  0  0  0  0  0
  157.6991  141.5342  180.4630 C   0  0  0  0  0  0  0  0  0  0  0  0
  155.0107  137.3745  186.8867 C   0  0  0  0  0  0  0  0  0  0  0  0
  155.1911  137.7810  188.2979 C   0  0  0  0  0  0  0  0  0  0  0  0
  156.4075  137.4550  188.9077 C   0  0  0  0  0  0  0  0  0  0  0  0
  156.6986  137.8232  190.2102 C   0  0  0  0  0  0  0  0  0  0  0  0
  155.7706  138.5367  190.9523 C   0  0  0  0  0  0  0  0  0  0  0  0
  154.5771  138.8570  190.3560 C   0  0  0  0  0  0  0  0  0  0  0  0
  154.2940  138.4843  189.0505 C   0  0  0  0  0  0  0  0  0  0  0  0
 17 18  1  0  0  0
 18 19  1  0  0  0
 18 16  1  0  0  0
 16 11  1  0  0  0
 11  7  1  0  0  0
  7  8  1  0  0  0
  8  9  2  0  0  0
  8  6  1  0  0  0
  6 20  1  0  0  0
 20 21  1  0  0  0
 21 22  2  0  0  0
 22 23  1  0  0  0
 23 24  2  0  0  0
 24 25  1  0  0  0
 25 26  2  0  0  0
  6  2  1  0  0  0
  2  3  1  0  0  0
  3  4  2  0  0  0
  3  1  1  0  0  0
  1 49  1  0  0  0
 49 50  1  0  0  0
 50 51  2  0  0  0
 51 52  1  0  0  0
 52 53  2  0  0  0
 53 54  1  0  0  0
 54 55  2  0  0  0
  1 27  1  0  0  0
 27 28  1  0  0  0
 28 29  2  0  0  0
 28 31  1  0  0  0
 31 42  1  0  0  0
 42 43  1  0  0  0
 43 44  2  0  0  0
 44 45  1  0  0  0
 45 46  2  0  0  0
 46 47  1  0  0  0
 47 48  2  0  0  0
 31 32  1  0  0  0
 32 33  1  0  0  0
 33 34  2  0  0  0
 33 36  1  0  0  0
 36 37  2  0  0  0
 37 38  1  0  0  0
 38 39  2  0  0  0
 39 40  1  0  0  0
 40 41  2  0  0  0
 11 12  1  0  0  0
 12 13  1  0  0  0
 12 14  2  0  0  0
 26 21  1  0  0  0
 55 50  1  0  0  0
 48 43  1  0  0  0
 41 36  1  0  0  0
  7 10  1  0  0  0
  2  5  1  0  0  0
 27 30  1  0  0  0
 32 35  1  0  0  0
 13 15  1  0  0  0
M  END
> <minimizedAffinity>
-10.41318

> <CNNscore>
0.6181901097

> <CNNaffinity>
7.4906401634

> <CNN_VS>
4.6306395531

> <CNNaffinity_variance>
0.1785093844

$$$$
[H]OC(=O)[C@@]([H])(N([H])C(=O)[C@@]([H])(N([H])C(=O)[C@]([H])(N([H])C(=O)[C@]([H])(N([H])C(=O)c1c([H])c([H])c([H])c([H])c1[H])C([H])([H])c1c([H])c([H])c([H])c([H])c1[H])C([H])([H])c1c([H])c([H])c([H])c([H])c1[H])C([H])([H])c1c([H])c([H])c([H])c([H])c1[H])C([H])([H])C([H])(C([H])([H])[H])C([H])([H])[H]


 55 58  0  0  0  0  0  0  0  0999 V2000
  153.9903  138.4820  184.3341 C   0  0  0  0  0  0  0  0  0  0  0  0
  151.7544  137.3575  184.0940 N   0  0  0  0  0  0  0  0  0  0  0  0
  152.9318  137.7672  183.5272 C   0  0  0  0  0  0  0  0  0  0  0  0
  153.2029  137.5702  182.2887 O   0  0  0  0  0  0  0  0  0  0  0  0
  151.5074  137.4849  185.1011 H   0  0  0  0  0  0  0  0  0  0  0  0
  150.7438  136.6777  183.2632 C   0  0  0  0  0  0  0  0  0  0  0  0
  152.5164  134.8920  182.7176 N   0  0  0  0  0  0  0  0  0  0  0  0
  151.3523  135.6225  182.4485 C   0  0  0  0  0  0  0  0  0  0  0  0
  150.7232  135.3591  181.3575 O   0  0  0  0  0  0  0  0  0  0  0  0
  153.0802  135.0305  183.5946 H   0  0  0  0  0  0  0  0  0  0  0  0
  152.9534  133.8946  181.7198 C   0  0  0  0  0  0  0  0  0  0  0  0
  152.6563  132.5576  182.2521 C   0  0  0  0  0  0  0  0  0  0  0  0
  153.5911  131.9455  183.1005 O   0  0  0  0  0  0  0  0  0  0  0  0
  151.6251  131.8830  182.0221 O   0  0  0  0  0  0  0  0  0  0  0  0
  154.1576  131.1865  182.7471 H   0  0  0  0  0  0  0  0  0  0  0  0
  154.4626  134.1068  181.6575 C   0  0  0  0  0  0  0  0  0  0  0  0
  153.9647  133.3447  179.4225 C   0  0  0  0  0  0  0  0  0  0  0  0
  155.0783  133.9295  180.3233 C   0  0  0  0  0  0  0  0  0  0  0  0
  156.1880  132.9013  180.2849 C   0  0  0  0  0  0  0  0  0  0  0  0
  149.7809  137.5999  182.6668 C   0  0  0  0  0  0  0  0  0  0  0  0
  150.0445  138.3330  181.4626 C   0  0  0  0  0  0  0  0  0  0  0  0
  150.9254  139.4169  181.5193 C   0  0  0  0  0  0  0  0  0  0  0  0
  151.2646  140.1677  180.4288 C   0  0  0  0  0  0  0  0  0  0  0  0
  150.7358  139.8751  179.1974 C   0  0  0  0  0  0  0  0  0  0  0  0
  149.8566  138.8093  179.0948 C   0  0  0  0  0  0  0  0  0  0  0  0
  149.5343  138.0746  180.2054 C   0  0  0  0  0  0  0  0  0  0  0  0
  154.6839  139.4087  183.4628 N   0  0  0  0  0  0  0  0  0  0  0  0
  155.9048  139.9609  183.8605 C   0  0  0  0  0  0  0  0  0  0  0  0
  156.3525  139.5624  185.0522 O   0  0  0  0  0  0  0  0  0  0  0  0
  154.2075  139.6349  182.5833 H   0  0  0  0  0  0  0  0  0  0  0  0
  156.7659  140.9156  183.1905 C   0  0  0  0  0  0  0  0  0  0  0  0
  157.6884  141.5476  184.1590 N   0  0  0  0  0  0  0  0  0  0  0  0
  159.0701  141.3038  184.0916 C   0  0  0  0  0  0  0  0  0  0  0  0
  159.5082  140.5365  183.1728 O   0  0  0  0  0  0  0  0  0  0  0  0
  157.2868  142.1864  184.9039 H   0  0  0  0  0  0  0  0  0  0  0  0
  160.0479  141.8595  184.9970 C   0  0  0  0  0  0  0  0  0  0  0  0
  161.3659  141.9859  184.6115 C   0  0  0  0  0  0  0  0  0  0  0  0
  162.3065  142.5316  185.4993 C   0  0  0  0  0  0  0  0  0  0  0  0
  161.9340  142.9368  186.7349 C   0  0  0  0  0  0  0  0  0  0  0  0
  160.6068  142.8113  187.1285 C   0  0  0  0  0  0  0  0  0  0  0  0
  159.6823  142.2768  186.2605 C   0  0  0  0  0  0  0  0  0  0  0  0
  156.3407  141.8008  182.0977 C   0  0  0  0  0  0  0  0  0  0  0  0
  157.3901  142.3787  181.2700 C   0  0  0  0  0  0  0  0  0  0  0  0
  157.9593  141.8438  180.1617 C   0  0  0  0  0  0  0  0  0  0  0  0
  158.9575  142.4816  179.4366 C   0  0  0  0  0  0  0  0  0  0  0  0
  159.4113  143.7155  179.8356 C   0  0  0  0  0  0  0  0  0  0  0  0
  158.8587  144.3019  180.9631 C   0  0  0  0  0  0  0  0  0  0  0  0
  157.8721  143.6454  181.6598 C   0  0  0  0  0  0  0  0  0  0  0  0
  154.7439  137.5149  185.1127 C   0  0  0  0  0  0  0  0  0  0  0  0
  154.3583  137.2978  186.5247 C   0  0  0  0  0  0  0  0  0  0  0  0
  153.9386  138.4164  187.2530 C   0  0  0  0  0  0  0  0  0  0  0  0
  153.5161  138.3209  188.5680 C   0  0  0  0  0  0  0  0  0  0  0  0
  153.5008  137.0890  189.2031 C   0  0  0  0  0  0  0  0  0  0  0  0
  153.9123  135.9911  188.4904 C   0  0  0  0  0  0  0  0  0  0  0  0
  154.3338  136.0960  187.1733 C   0  0  0  0  0  0  0  0  0  0  0  0
 17 18  1  0  0  0
 18 19  1  0  0  0
 18 16  1  0  0  0
 16 11  1  0  0  0
 11  7  1  0  0  0
  7  8  1  0  0  0
  8  9  2  0  0  0
  8  6  1  0  0  0
  6 20  1  0  0  0
 20 21  1  0  0  0
 21 22  2  0  0  0
 22 23  1  0  0  0
 23 24  2  0  0  0
 24 25  1  0  0  0
 25 26  2  0  0  0
  6  2  1  0  0  0
  2  3  1  0  0  0
  3  4  2  0  0  0
  3  1  1  0  0  0
  1 49  1  0  0  0
 49 50  1  0  0  0
 50 51  2  0  0  0
 51 52  1  0  0  0
 52 53  2  0  0  0
 53 54  1  0  0  0
 54 55  2  0  0  0
  1 27  1  0  0  0
 27 28  1  0  0  0
 28 29  2  0  0  0
 28 31  1  0  0  0
 31 42  1  0  0  0
 42 43  1  0  0  0
 43 44  2  0  0  0
 44 45  1  0  0  0
 45 46  2  0  0  0
 46 47  1  0  0  0
 47 48  2  0  0  0
 31 32  1  0  0  0
 32 33  1  0  0  0
 33 34  2  0  0  0
 33 36  1  0  0  0
 36 37  2  0  0  0
 37 38  1  0  0  0
 38 39  2  0  0  0
 39 40  1  0  0  0
 40 41  2  0  0  0
 11 12  1  0  0  0
 12 13  1  0  0  0
 12 14  2  0  0  0
 26 21  1  0  0  0
 55 50  1  0  0  0
 48 43  1  0  0  0
 41 36  1  0  0  0
  7 10  1  0  0  0
  2  5  1  0  0  0
 27 30  1  0  0  0
 32 35  1  0  0  0
 13 15  1  0  0  0
M  END
> <minimizedAffinity>
-9.61548

> <CNNscore>
0.5058299899

> <CNNaffinity>
7.3572349548

> <CNN_VS>
3.7215101719

> <CNNaffinity_variance>
0.2223766595

$$$$
[H]OC(=O)[C@@]([H])(N([H])C(=O)[C@@]([H])(N([H])C(=O)[C@]([H])(N([H])C(=O)[C@]([H])(N([H])C(=O)c1c([H])c([H])c([H])c([H])c1[H])C([H])([H])c1c([H])c([H])c([H])c([H])c1[H])C([H])([H])c1c([H])c([H])c([H])c([H])c1[H])C([H])([H])c1c([H])c([H])c([H])c([H])c1[H])C([H])([H])C([H])(C([H])([H])[H])C([H])([H])[H]


 55 58  0  0  0  0  0  0  0  0999 V2000
  154.5781  138.0633  184.9705 C   0  0  0  0  0  0  0  0  0  0  0  0
  153.2594  136.1046  184.1066 N   0  0  0  0  0  0  0  0  0  0  0  0
  153.6315  137.4170  183.9861 C   0  0  0  0  0  0  0  0  0  0  0  0
  153.2020  138.1684  183.0389 O   0  0  0  0  0  0  0  0  0  0  0  0
  153.6022  135.4592  184.8533 H   0  0  0  0  0  0  0  0  0  0  0  0
  152.3203  135.5212  183.1311 C   0  0  0  0  0  0  0  0  0  0  0  0
  149.8492  136.0486  182.6373 N   0  0  0  0  0  0  0  0  0  0  0  0
  150.9312  135.8136  183.4948 C   0  0  0  0  0  0  0  0  0  0  0  0
  150.7079  135.8588  184.7611 O   0  0  0  0  0  0  0  0  0  0  0  0
  149.9400  136.0120  181.5902 H   0  0  0  0  0  0  0  0  0  0  0  0
  148.5393  136.3585  183.2453 C   0  0  0  0  0  0  0  0  0  0  0  0
  147.7212  135.1384  183.2111 C   0  0  0  0  0  0  0  0  0  0  0  0
  147.7507  134.3377  182.0595 O   0  0  0  0  0  0  0  0  0  0  0  0
  146.9754  134.7227  184.1289 O   0  0  0  0  0  0  0  0  0  0  0  0
  146.9595  134.3463  181.4303 H   0  0  0  0  0  0  0  0  0  0  0  0
  147.9573  137.4026  182.2978 C   0  0  0  0  0  0  0  0  0  0  0  0
  147.5415  139.2602  183.7812 C   0  0  0  0  0  0  0  0  0  0  0  0
  148.3684  138.8006  182.5571 C   0  0  0  0  0  0  0  0  0  0  0  0
  147.9999  139.7692  181.4543 C   0  0  0  0  0  0  0  0  0  0  0  0
  152.6990  134.1754  182.7086 C   0  0  0  0  0  0  0  0  0  0  0  0
  153.9160  133.8913  182.0048 C   0  0  0  0  0  0  0  0  0  0  0  0
  154.0194  134.2786  180.6655 C   0  0  0  0  0  0  0  0  0  0  0  0
  155.1404  134.0784  179.9098 C   0  0  0  0  0  0  0  0  0  0  0  0
  156.2421  133.4704  180.4558 C   0  0  0  0  0  0  0  0  0  0  0  0
  156.1835  133.0686  181.7805 C   0  0  0  0  0  0  0  0  0  0  0  0
  155.0460  133.2818  182.5139 C   0  0  0  0  0  0  0  0  0  0  0  0
  155.6445  138.7045  184.2285 N   0  0  0  0  0  0  0  0  0  0  0  0
  155.5946  140.0792  183.9809 C   0  0  0  0  0  0  0  0  0  0  0  0
  154.5319  140.7128  184.4798 O   0  0  0  0  0  0  0  0  0  0  0  0
  156.3886  138.0842  183.8920 H   0  0  0  0  0  0  0  0  0  0  0  0
  156.5097  140.9356  183.2522 C   0  0  0  0  0  0  0  0  0  0  0  0
  157.4645  141.5796  184.1806 N   0  0  0  0  0  0  0  0  0  0  0  0
  158.8290  141.2477  184.1442 C   0  0  0  0  0  0  0  0  0  0  0  0
  159.2234  140.3896  183.2881 O   0  0  0  0  0  0  0  0  0  0  0  0
  157.0994  142.2948  184.8730 H   0  0  0  0  0  0  0  0  0  0  0  0
  159.8347  141.8077  185.0158 C   0  0  0  0  0  0  0  0  0  0  0  0
  159.5151  142.1783  186.3050 C   0  0  0  0  0  0  0  0  0  0  0  0
  160.5028  142.7178  187.1442 C   0  0  0  0  0  0  0  0  0  0  0  0
  161.7706  142.8797  186.7013 C   0  0  0  0  0  0  0  0  0  0  0  0
  162.0978  142.5080  185.4025 C   0  0  0  0  0  0  0  0  0  0  0  0
  161.1319  141.9787  184.5773 C   0  0  0  0  0  0  0  0  0  0  0  0
  156.1374  141.7664  182.0990 C   0  0  0  0  0  0  0  0  0  0  0  0
  157.2254  142.3092  181.2978 C   0  0  0  0  0  0  0  0  0  0  0  0
  157.8615  141.7181  180.2565 C   0  0  0  0  0  0  0  0  0  0  0  0
  158.8919  142.3260  179.5511 C   0  0  0  0  0  0  0  0  0  0  0  0
  159.3095  143.5874  179.9006 C   0  0  0  0  0  0  0  0  0  0  0  0
  158.6884  144.2313  180.9590 C   0  0  0  0  0  0  0  0  0  0  0  0
  157.6713  143.6032  181.6378 C   0  0  0  0  0  0  0  0  0  0  0  0
  154.8949  137.1219  186.0302 C   0  0  0  0  0  0  0  0  0  0  0  0
  155.0617  137.6433  187.4048 C   0  0  0  0  0  0  0  0  0  0  0  0
  153.9616  138.2852  187.9840 C   0  0  0  0  0  0  0  0  0  0  0  0
  153.9937  138.7737  189.2791 C   0  0  0  0  0  0  0  0  0  0  0  0
  155.1412  138.6342  190.0439 C   0  0  0  0  0  0  0  0  0  0  0  0
  156.2210  138.0052  189.4773 C   0  0  0  0  0  0  0  0  0  0  0  0
  156.1799  137.5188  188.1793 C   0  0  0  0  0  0  0  0  0  0  0  0
 17 18  1  0  0  0
 18 19  1  0  0  0
 18 16  1  0  0  0
 16 11  1  0  0  0
 11  7  1  0  0  0
  7  8  1  0  0  0
  8  9  2  0  0  0
  8  6  1  0  0  0
  6 20  1  0  0  0
 20 21  1  0  0  0
 21 22  2  0  0  0
 22 23  1  0  0  0
 23 24  2  0  0  0
 24 25  1  0  0  0
 25 26  2  0  0  0
  6  2  1  0  0  0
  2  3  1  0  0  0
  3  4  2  0  0  0
  3  1  1  0  0  0
  1 49  1  0  0  0
 49 50  1  0  0  0
 50 51  2  0  0  0
 51 52  1  0  0  0
 52 53  2  0  0  0
 53 54  1  0  0  0
 54 55  2  0  0  0
  1 27  1  0  0  0
 27 28  1  0  0  0
 28 29  2  0  0  0
 28 31  1  0  0  0
 31 42  1  0  0  0
 42 43  1  0  0  0
 43 44  2  0  0  0
 44 45  1  0  0  0
 45 46  2  0  0  0
 46 47  1  0  0  0
 47 48  2  0  0  0
 31 32  1  0  0  0
 32 33  1  0  0  0
 33 34  2  0  0  0
 33 36  1  0  0  0
 36 37  2  0  0  0
 37 38  1  0  0  0
 38 39  2  0  0  0
 39 40  1  0  0  0
 40 41  2  0  0  0
 11 12  1  0  0  0
 12 13  1  0  0  0
 12 14  2  0  0  0
 26 21  1  0  0  0
 55 50  1  0  0  0
 48 43  1  0  0  0
 41 36  1  0  0  0
  7 10  1  0  0  0
  2  5  1  0  0  0
 27 30  1  0  0  0
 32 35  1  0  0  0
 13 15  1  0  0  0
M  END
> <minimizedAffinity>
-9.56663

> <CNNscore>
0.3678622842

> <CNNaffinity>
7.1586518288

> <CNN_VS>
2.6333980560

> <CNNaffinity_variance>
0.2099870145

$$$$
[H]OC(=O)[C@@]([H])(N([H])C(=O)[C@@]([H])(N([H])C(=O)[C@]([H])(N([H])C(=O)[C@]([H])(N([H])C(=O)c1c([H])c([H])c([H])c([H])c1[H])C([H])([H])c1c([H])c([H])c([H])c([H])c1[H])C([H])([H])c1c([H])c([H])c([H])c([H])c1[H])C([H])([H])c1c([H])c([H])c([H])c([H])c1[H])C([H])([H])C([H])(C([H])([H])[H])C([H])([H])[H]


 55 58  0  0  0  0  0  0  0  0999 V2000
  154.3349  138.8747  184.7885 C   0  0  0  0  0  0  0  0  0  0  0  0
  152.6440  137.0268  184.5708 N   0  0  0  0  0  0  0  0  0  0  0  0
  153.3008  138.0918  184.0140 C   0  0  0  0  0  0  0  0  0  0  0  0
  153.0784  138.4839  182.8127 O   0  0  0  0  0  0  0  0  0  0  0  0
  152.8116  136.6690  185.5379 H   0  0  0  0  0  0  0  0  0  0  0  0
  151.6307  136.3025  183.7818 C   0  0  0  0  0  0  0  0  0  0  0  0
  153.2924  134.4978  183.0007 N   0  0  0  0  0  0  0  0  0  0  0  0
  152.2602  135.4215  182.7945 C   0  0  0  0  0  0  0  0  0  0  0  0
  151.7923  135.5345  181.6012 O   0  0  0  0  0  0  0  0  0  0  0  0
  153.7187  134.3291  183.9473 H   0  0  0  0  0  0  0  0  0  0  0  0
  153.7883  133.7420  181.8326 C   0  0  0  0  0  0  0  0  0  0  0  0
  153.2883  132.3642  181.9360 C   0  0  0  0  0  0  0  0  0  0  0  0
  152.9117  131.6927  180.7632 O   0  0  0  0  0  0  0  0  0  0  0  0
  153.1570  131.7031  182.9929 O   0  0  0  0  0  0  0  0  0  0  0  0
  151.9300  131.5562  180.5645 H   0  0  0  0  0  0  0  0  0  0  0  0
  155.3012  133.7629  182.0247 C   0  0  0  0  0  0  0  0  0  0  0  0
  156.8870  132.0815  182.7191 C   0  0  0  0  0  0  0  0  0  0  0  0
  156.0246  132.5697  181.5311 C   0  0  0  0  0  0  0  0  0  0  0  0
  157.0163  132.8600  180.4255 C   0  0  0  0  0  0  0  0  0  0  0  0
  150.4989  137.1421  183.3978 C   0  0  0  0  0  0  0  0  0  0  0  0
  149.3322  137.3021  184.2164 C   0  0  0  0  0  0  0  0  0  0  0  0
  148.1045  137.5391  183.5912 C   0  0  0  0  0  0  0  0  0  0  0  0
  146.9290  137.6827  184.2734 C   0  0  0  0  0  0  0  0  0  0  0  0
  146.9098  137.5962  185.6422 C   0  0  0  0  0  0  0  0  0  0  0  0
  148.1046  137.3635  186.3040 C   0  0  0  0  0  0  0  0  0  0  0  0
  149.2680  137.2243  185.5939 C   0  0  0  0  0  0  0  0  0  0  0  0
  154.9751  139.8087  183.8848 N   0  0  0  0  0  0  0  0  0  0  0  0
  156.2744  140.2535  184.1452 C   0  0  0  0  0  0  0  0  0  0  0  0
  156.8430  139.7503  185.2419 O   0  0  0  0  0  0  0  0  0  0  0  0
  154.4062  140.1220  183.0912 H   0  0  0  0  0  0  0  0  0  0  0  0
  157.1086  141.1914  183.4196 C   0  0  0  0  0  0  0  0  0  0  0  0
  158.1204  141.7863  184.3201 N   0  0  0  0  0  0  0  0  0  0  0  0
  159.4755  141.4359  184.2008 C   0  0  0  0  0  0  0  0  0  0  0  0
  159.8111  140.6045  183.2946 O   0  0  0  0  0  0  0  0  0  0  0  0
  157.8033  142.4805  185.0560 H   0  0  0  0  0  0  0  0  0  0  0  0
  160.5338  141.9482  185.0387 C   0  0  0  0  0  0  0  0  0  0  0  0
  161.8401  141.9435  184.5968 C   0  0  0  0  0  0  0  0  0  0  0  0
  162.8598  142.4482  185.4191 C   0  0  0  0  0  0  0  0  0  0  0  0
  162.5752  142.9414  186.6462 C   0  0  0  0  0  0  0  0  0  0  0  0
  161.2602  142.9480  187.0964 C   0  0  0  0  0  0  0  0  0  0  0  0
  160.2583  142.4540  186.2926 C   0  0  0  0  0  0  0  0  0  0  0  0
  156.6262  142.1007  182.3712 C   0  0  0  0  0  0  0  0  0  0  0  0
  157.6205  142.6322  181.4497 C   0  0  0  0  0  0  0  0  0  0  0  0
  158.0979  142.0513  180.3215 C   0  0  0  0  0  0  0  0  0  0  0  0
  159.0495  142.6471  179.5040 C   0  0  0  0  0  0  0  0  0  0  0  0
  159.5507  143.8850  179.8267 C   0  0  0  0  0  0  0  0  0  0  0  0
  159.0921  144.5177  180.9711 C   0  0  0  0  0  0  0  0  0  0  0  0
  158.1495  143.9021  181.7601 C   0  0  0  0  0  0  0  0  0  0  0  0
  155.1410  137.9635  185.5818 C   0  0  0  0  0  0  0  0  0  0  0  0
  155.1064  138.0974  187.0550 C   0  0  0  0  0  0  0  0  0  0  0  0
  153.8948  138.4904  187.6339 C   0  0  0  0  0  0  0  0  0  0  0  0
  153.7387  138.6067  189.0047 C   0  0  0  0  0  0  0  0  0  0  0  0
  154.8029  138.3308  189.8489 C   0  0  0  0  0  0  0  0  0  0  0  0
  155.9919  137.9456  189.2828 C   0  0  0  0  0  0  0  0  0  0  0  0
  156.1391  137.8315  187.9086 C   0  0  0  0  0  0  0  0  0  0  0  0
 17 18  1  0  0  0
 18 19  1  0  0  0
 18 16  1  0  0  0
 16 11  1  0  0  0
 11  7  1  0  0  0
  7  8  1  0  0  0
  8  9  2  0  0  0
  8  6  1  0  0  0
  6 20  1  0  0  0
 20 21  1  0  0  0
 21 22  2  0  0  0
 22 23  1  0  0  0
 23 24  2  0  0  0
 24 25  1  0  0  0
 25 26  2  0  0  0
  6  2  1  0  0  0
  2  3  1  0  0  0
  3  4  2  0  0  0
  3  1  1  0  0  0
  1 49  1  0  0  0
 49 50  1  0  0  0
 50 51  2  0  0  0
 51 52  1  0  0  0
 52 53  2  0  0  0
 53 54  1  0  0  0
 54 55  2  0  0  0
  1 27  1  0  0  0
 27 28  1  0  0  0
 28 29  2  0  0  0
 28 31  1  0  0  0
 31 42  1  0  0  0
 42 43  1  0  0  0
 43 44  2  0  0  0
 44 45  1  0  0  0
 45 46  2  0  0  0
 46 47  1  0  0  0
 47 48  2  0  0  0
 31 32  1  0  0  0
 32 33  1  0  0  0
 33 34  2  0  0  0
 33 36  1  0  0  0
 36 37  2  0  0  0
 37 38  1  0  0  0
 38 39  2  0  0  0
 39 40  1  0  0  0
 40 41  2  0  0  0
 11 12  1  0  0  0
 12 13  1  0  0  0
 12 14  2  0  0  0
 26 21  1  0  0  0
 55 50  1  0  0  0
 48 43  1  0  0  0
 41 36  1  0  0  0
  7 10  1  0  0  0
  2  5  1  0  0  0
 27 30  1  0  0  0
 32 35  1  0  0  0
 13 15  1  0  0  0
M  END
> <minimizedAffinity>
-9.33371

> <CNNscore>
0.3289722502

> <CNNaffinity>
7.1537561417

> <CNN_VS>
2.3533873558

> <CNNaffinity_variance>
0.1310720295

$$$$
[H]OC(=O)[C@@]([H])(N([H])C(=O)[C@@]([H])(N([H])C(=O)[C@]([H])(N([H])C(=O)[C@]([H])(N([H])C(=O)c1c([H])c([H])c([H])c([H])c1[H])C([H])([H])c1c([H])c([H])c([H])c([H])c1[H])C([H])([H])c1c([H])c([H])c([H])c([H])c1[H])C([H])([H])c1c([H])c([H])c([H])c([H])c1[H])C([H])([H])C([H])(C([H])([H])[H])C([H])([H])[H]


 55 58  0  0  0  0  0  0  0  0999 V2000
  155.0470  138.3270  185.8674 C   0  0  0  0  0  0  0  0  0  0  0  0
  152.8265  138.2289  184.6922 N   0  0  0  0  0  0  0  0  0  0  0  0
  154.0835  137.7175  184.8761 C   0  0  0  0  0  0  0  0  0  0  0  0
  154.5133  136.7000  184.2233 O   0  0  0  0  0  0  0  0  0  0  0  0
  152.4371  139.0437  185.2175 H   0  0  0  0  0  0  0  0  0  0  0  0
  151.9264  137.6105  183.7016 C   0  0  0  0  0  0  0  0  0  0  0  0
  151.0404  135.9789  185.4853 N   0  0  0  0  0  0  0  0  0  0  0  0
  151.4178  136.3226  184.1812 C   0  0  0  0  0  0  0  0  0  0  0  0
  151.3210  135.4146  183.2747 O   0  0  0  0  0  0  0  0  0  0  0  0
  151.0704  136.6654  186.2815 H   0  0  0  0  0  0  0  0  0  0  0  0
  150.5867  134.5951  185.7322 C   0  0  0  0  0  0  0  0  0  0  0  0
  149.1354  134.6256  185.9600 C   0  0  0  0  0  0  0  0  0  0  0  0
  148.6582  134.5995  187.2790 O   0  0  0  0  0  0  0  0  0  0  0  0
  148.2493  134.6732  185.0747 O   0  0  0  0  0  0  0  0  0  0  0  0
  148.2432  133.7507  187.6385 H   0  0  0  0  0  0  0  0  0  0  0  0
  151.3087  134.2202  187.0224 C   0  0  0  0  0  0  0  0  0  0  0  0
  153.4671  134.5966  188.0341 C   0  0  0  0  0  0  0  0  0  0  0  0
  152.1453  135.2853  187.6193 C   0  0  0  0  0  0  0  0  0  0  0  0
  151.5896  135.8632  188.9028 C   0  0  0  0  0  0  0  0  0  0  0  0
  152.4106  137.7418  182.3299 C   0  0  0  0  0  0  0  0  0  0  0  0
  151.6104  138.2779  181.2673 C   0  0  0  0  0  0  0  0  0  0  0  0
  152.1153  139.3504  180.5262 C   0  0  0  0  0  0  0  0  0  0  0  0
  151.4475  139.9209  179.4791 C   0  0  0  0  0  0  0  0  0  0  0  0
  150.2165  139.4460  179.1040 C   0  0  0  0  0  0  0  0  0  0  0  0
  149.6767  138.3843  179.8119 C   0  0  0  0  0  0  0  0  0  0  0  0
  150.3688  137.8326  180.8577 C   0  0  0  0  0  0  0  0  0  0  0  0
  156.1024  138.9931  185.1316 N   0  0  0  0  0  0  0  0  0  0  0  0
  155.8077  140.1103  184.3450 C   0  0  0  0  0  0  0  0  0  0  0  0
  154.5295  140.4919  184.3481 O   0  0  0  0  0  0  0  0  0  0  0  0
  157.0348  138.5739  185.2123 H   0  0  0  0  0  0  0  0  0  0  0  0
  156.6687  140.9220  183.5073 C   0  0  0  0  0  0  0  0  0  0  0  0
  157.6846  141.6152  184.3294 N   0  0  0  0  0  0  0  0  0  0  0  0
  159.0327  141.2237  184.2773 C   0  0  0  0  0  0  0  0  0  0  0  0
  159.3587  140.2677  183.4997 O   0  0  0  0  0  0  0  0  0  0  0  0
  157.3757  142.4114  184.9577 H   0  0  0  0  0  0  0  0  0  0  0  0
  160.0938  141.8256  185.0496 C   0  0  0  0  0  0  0  0  0  0  0  0
  161.3721  141.9053  184.5385 C   0  0  0  0  0  0  0  0  0  0  0  0
  162.3945  142.4966  185.2974 C   0  0  0  0  0  0  0  0  0  0  0  0
  162.1398  142.9914  186.5303 C   0  0  0  0  0  0  0  0  0  0  0  0
  160.8531  142.9131  187.0502 C   0  0  0  0  0  0  0  0  0  0  0  0
  159.8486  142.3342  186.3087 C   0  0  0  0  0  0  0  0  0  0  0  0
  156.2160  141.6870  182.3375 C   0  0  0  0  0  0  0  0  0  0  0  0
  157.2408  142.3605  181.5523 C   0  0  0  0  0  0  0  0  0  0  0  0
  157.7849  143.5823  181.7749 C   0  0  0  0  0  0  0  0  0  0  0  0
  158.7658  144.1369  180.9632 C   0  0  0  0  0  0  0  0  0  0  0  0
  159.2288  143.4384  179.8744 C   0  0  0  0  0  0  0  0  0  0  0  0
  158.7020  142.1848  179.6071 C   0  0  0  0  0  0  0  0  0  0  0  0
  157.7319  141.6628  180.4294 C   0  0  0  0  0  0  0  0  0  0  0  0
  155.3793  137.3480  186.8875 C   0  0  0  0  0  0  0  0  0  0  0  0
  155.4560  137.7995  188.2945 C   0  0  0  0  0  0  0  0  0  0  0  0
  154.3136  138.3968  188.8385 C   0  0  0  0  0  0  0  0  0  0  0  0
  154.2612  138.8179  190.1564 C   0  0  0  0  0  0  0  0  0  0  0  0
  155.3633  138.6532  190.9807 C   0  0  0  0  0  0  0  0  0  0  0  0
  156.4845  138.0679  190.4487 C   0  0  0  0  0  0  0  0  0  0  0  0
  156.5281  137.6488  189.1275 C   0  0  0  0  0  0  0  0  0  0  0  0
 17 18  1  0  0  0
 18 19  1  0  0  0
 18 16  1  0  0  0
 16 11  1  0  0  0
 11  7  1  0  0  0
  7  8  1  0  0  0
  8  9  2  0  0  0
  8  6  1  0  0  0
  6 20  1  0  0  0
 20 21  1  0  0  0
 21 22  2  0  0  0
 22 23  1  0  0  0
 23 24  2  0  0  0
 24 25  1  0  0  0
 25 26  2  0  0  0
  6  2  1  0  0  0
  2  3  1  0  0  0
  3  4  2  0  0  0
  3  1  1  0  0  0
  1 49  1  0  0  0
 49 50  1  0  0  0
 50 51  2  0  0  0
 51 52  1  0  0  0
 52 53  2  0  0  0
 53 54  1  0  0  0
 54 55  2  0  0  0
  1 27  1  0  0  0
 27 28  1  0  0  0
 28 29  2  0  0  0
 28 31  1  0  0  0
 31 42  1  0  0  0
 42 43  1  0  0  0
 43 44  2  0  0  0
 44 45  1  0  0  0
 45 46  2  0  0  0
 46 47  1  0  0  0
 47 48  2  0  0  0
 31 32  1  0  0  0
 32 33  1  0  0  0
 33 34  2  0  0  0
 33 36  1  0  0  0
 36 37  2  0  0  0
 37 38  1  0  0  0
 38 39  2  0  0  0
 39 40  1  0  0  0
 40 41  2  0  0  0
 11 12  1  0  0  0
 12 13  1  0  0  0
 12 14  2  0  0  0
 26 21  1  0  0  0
 55 50  1  0  0  0
 48 43  1  0  0  0
 41 36  1  0  0  0
  7 10  1  0  0  0
  2  5  1  0  0  0
 27 30  1  0  0  0
 32 35  1  0  0  0
 13 15  1  0  0  0
M  END
> <minimizedAffinity>
-9.99133

> <CNNscore>
0.3172594309

> <CNNaffinity>
7.0988187790

> <CNN_VS>
2.2521672249

> <CNNaffinity_variance>
0.4072885513

$$$$
[H]OC(=O)[C@@]([H])(N([H])C(=O)[C@@]([H])(N([H])C(=O)[C@]([H])(N([H])C(=O)[C@]([H])(N([H])C(=O)c1c([H])c([H])c([H])c([H])c1[H])C([H])([H])c1c([H])c([H])c([H])c([H])c1[H])C([H])([H])c1c([H])c([H])c([H])c([H])c1[H])C([H])([H])c1c([H])c([H])c([H])c([H])c1[H])C([H])([H])C([H])(C([H])([H])[H])C([H])([H])[H]


 55 58  0  0  0  0  0  0  0  0999 V2000
  154.2469  137.9353  186.1201 C   0  0  0  0  0  0  0  0  0  0  0  0
  151.9470  137.4086  185.2513 N   0  0  0  0  0  0  0  0  0  0  0  0
  153.1859  136.9730  185.6397 C   0  0  0  0  0  0  0  0  0  0  0  0
  153.5156  135.7332  185.6185 O   0  0  0  0  0  0  0  0  0  0  0  0
  151.6381  138.4065  185.2719 H   0  0  0  0  0  0  0  0  0  0  0  0
  150.9487  136.4342  184.7742 C   0  0  0  0  0  0  0  0  0  0  0  0
  151.6346  134.8153  182.8935 N   0  0  0  0  0  0  0  0  0  0  0  0
  151.2036  136.0550  183.3819 C   0  0  0  0  0  0  0  0  0  0  0  0
  151.0043  136.9952  182.5264 O   0  0  0  0  0  0  0  0  0  0  0  0
  151.8029  133.9884  183.5212 H   0  0  0  0  0  0  0  0  0  0  0  0
  151.8562  134.6838  181.4391 C   0  0  0  0  0  0  0  0  0  0  0  0
  151.3975  133.3499  181.0274 C   0  0  0  0  0  0  0  0  0  0  0  0
  151.6268  132.9348  179.7071 O   0  0  0  0  0  0  0  0  0  0  0  0
  150.8037  132.5165  181.7514 O   0  0  0  0  0  0  0  0  0  0  0  0
  150.8545  132.9080  179.0554 H   0  0  0  0  0  0  0  0  0  0  0  0
  153.3734  134.7752  181.3114 C   0  0  0  0  0  0  0  0  0  0  0  0
  155.0148  134.0365  182.9190 C   0  0  0  0  0  0  0  0  0  0  0  0
  154.1243  133.5744  181.7412 C   0  0  0  0  0  0  0  0  0  0  0  0
  155.0937  133.0467  180.7059 C   0  0  0  0  0  0  0  0  0  0  0  0
  149.5907  136.7479  185.2110 C   0  0  0  0  0  0  0  0  0  0  0  0
  149.1299  136.5240  186.5505 C   0  0  0  0  0  0  0  0  0  0  0  0
  147.9045  137.0751  186.9366 C   0  0  0  0  0  0  0  0  0  0  0  0
  147.3616  136.9039  188.1791 C   0  0  0  0  0  0  0  0  0  0  0  0
  148.0208  136.1600  189.1244 C   0  0  0  0  0  0  0  0  0  0  0  0
  149.2401  135.5959  188.7855 C   0  0  0  0  0  0  0  0  0  0  0  0
  149.7604  135.7848  187.5322 C   0  0  0  0  0  0  0  0  0  0  0  0
  154.7146  138.7063  184.9862 N   0  0  0  0  0  0  0  0  0  0  0  0
  155.9920  139.2734  185.0062 C   0  0  0  0  0  0  0  0  0  0  0  0
  156.7064  139.0368  186.1076 O   0  0  0  0  0  0  0  0  0  0  0  0
  154.0456  138.8180  184.2170 H   0  0  0  0  0  0  0  0  0  0  0  0
  156.6693  140.0960  184.0231 C   0  0  0  0  0  0  0  0  0  0  0  0
  157.6153  141.0199  184.6864 N   0  0  0  0  0  0  0  0  0  0  0  0
  159.0002  140.7963  184.6136 C   0  0  0  0  0  0  0  0  0  0  0  0
  159.4197  139.7881  183.9560 O   0  0  0  0  0  0  0  0  0  0  0  0
  157.2282  141.8521  185.2171 H   0  0  0  0  0  0  0  0  0  0  0  0
  160.0012  141.6291  185.2375 C   0  0  0  0  0  0  0  0  0  0  0  0
  159.7566  142.2205  186.4590 C   0  0  0  0  0  0  0  0  0  0  0  0
  160.7394  143.0247  187.0574 C   0  0  0  0  0  0  0  0  0  0  0  0
  161.9295  143.2279  186.4473 C   0  0  0  0  0  0  0  0  0  0  0  0
  162.1808  142.6343  185.2158 C   0  0  0  0  0  0  0  0  0  0  0  0
  161.2194  141.8453  184.6265 C   0  0  0  0  0  0  0  0  0  0  0  0
  156.0379  140.6450  182.8154 C   0  0  0  0  0  0  0  0  0  0  0  0
  156.8822  141.4343  181.9297 C   0  0  0  0  0  0  0  0  0  0  0  0
  157.7962  140.9816  181.0364 C   0  0  0  0  0  0  0  0  0  0  0  0
  158.5529  141.8225  180.2309 C   0  0  0  0  0  0  0  0  0  0  0  0
  158.3904  143.1839  180.3193 C   0  0  0  0  0  0  0  0  0  0  0  0
  157.4671  143.6930  181.2186 C   0  0  0  0  0  0  0  0  0  0  0  0
  156.7331  142.8347  182.0025 C   0  0  0  0  0  0  0  0  0  0  0  0
  155.1984  137.2299  186.9607 C   0  0  0  0  0  0  0  0  0  0  0  0
  155.3080  137.6272  188.3818 C   0  0  0  0  0  0  0  0  0  0  0  0
  156.4550  137.2221  189.0732 C   0  0  0  0  0  0  0  0  0  0  0  0
  156.6798  137.5734  190.3934 C   0  0  0  0  0  0  0  0  0  0  0  0
  155.7527  138.3495  191.0713 C   0  0  0  0  0  0  0  0  0  0  0  0
  154.6273  138.7474  190.3948 C   0  0  0  0  0  0  0  0  0  0  0  0
  154.4104  138.3910  189.0722 C   0  0  0  0  0  0  0  0  0  0  0  0
 17 18  1  0  0  0
 18 19  1  0  0  0
 18 16  1  0  0  0
 16 11  1  0  0  0
 11  7  1  0  0  0
  7  8  1  0  0  0
  8  9  2  0  0  0
  8  6  1  0  0  0
  6 20  1  0  0  0
 20 21  1  0  0  0
 21 22  2  0  0  0
 22 23  1  0  0  0
 23 24  2  0  0  0
 24 25  1  0  0  0
 25 26  2  0  0  0
  6  2  1  0  0  0
  2  3  1  0  0  0
  3  4  2  0  0  0
  3  1  1  0  0  0
  1 49  1  0  0  0
 49 50  1  0  0  0
 50 51  2  0  0  0
 51 52  1  0  0  0
 52 53  2  0  0  0
 53 54  1  0  0  0
 54 55  2  0  0  0
  1 27  1  0  0  0
 27 28  1  0  0  0
 28 29  2  0  0  0
 28 31  1  0  0  0
 31 42  1  0  0  0
 42 43  1  0  0  0
 43 44  2  0  0  0
 44 45  1  0  0  0
 45 46  2  0  0  0
 46 47  1  0  0  0
 47 48  2  0  0  0
 31 32  1  0  0  0
 32 33  1  0  0  0
 33 34  2  0  0  0
 33 36  1  0  0  0
 36 37  2  0  0  0
 37 38  1  0  0  0
 38 39  2  0  0  0
 39 40  1  0  0  0
 40 41  2  0  0  0
 11 12  1  0  0  0
 12 13  1  0  0  0
 12 14  2  0  0  0
 26 21  1  0  0  0
 55 50  1  0  0  0
 48 43  1  0  0  0
 41 36  1  0  0  0
  7 10  1  0  0  0
  2  5  1  0  0  0
 27 30  1  0  0  0
 32 35  1  0  0  0
 13 15  1  0  0  0
M  END
> <minimizedAffinity>
-8.97904

> <CNNscore>
0.3142478764

> <CNNaffinity>
7.0581045151

> <CNN_VS>
2.2179944515

> <CNNaffinity_variance>
0.1736157089

$$$$
[H]OC(=O)[C@@]([H])(N([H])C(=O)[C@@]([H])(N([H])C(=O)[C@]([H])(N([H])C(=O)[C@]([H])(N([H])C(=O)c1c([H])c([H])c([H])c([H])c1[H])C([H])([H])c1c([H])c([H])c([H])c([H])c1[H])C([H])([H])c1c([H])c([H])c([H])c([H])c1[H])C([H])([H])c1c([H])c([H])c([H])c([H])c1[H])C([H])([H])C([H])(C([H])([H])[H])C([H])([H])[H]


 55 58  0  0  0  0  0  0  0  0999 V2000
  154.1485  138.3141  185.3408 C   0  0  0  0  0  0  0  0  0  0  0  0
  152.0339  136.9551  185.2837 N   0  0  0  0  0  0  0  0  0  0  0  0
  153.1617  137.4031  184.6489 C   0  0  0  0  0  0  0  0  0  0  0  0
  153.4440  137.0787  183.4401 O   0  0  0  0  0  0  0  0  0  0  0  0
  151.7811  137.1840  186.2712 H   0  0  0  0  0  0  0  0  0  0  0  0
  151.0911  136.0804  184.5628 C   0  0  0  0  0  0  0  0  0  0  0  0
  152.1836  134.4303  182.9159 N   0  0  0  0  0  0  0  0  0  0  0  0
  151.7279  134.8166  184.1825 C   0  0  0  0  0  0  0  0  0  0  0  0
  151.8685  133.9769  185.1472 O   0  0  0  0  0  0  0  0  0  0  0  0
  152.1246  135.0624  182.0774 H   0  0  0  0  0  0  0  0  0  0  0  0
  152.7652  133.0803  182.7719 C   0  0  0  0  0  0  0  0  0  0  0  0
  154.1516  133.2288  182.3082 C   0  0  0  0  0  0  0  0  0  0  0  0
  154.9295  132.0758  182.1248 O   0  0  0  0  0  0  0  0  0  0  0  0
  154.7331  134.3092  182.0511 O   0  0  0  0  0  0  0  0  0  0  0  0
  155.6525  131.8547  182.7959 H   0  0  0  0  0  0  0  0  0  0  0  0
  151.9130  132.4526  181.6736 C   0  0  0  0  0  0  0  0  0  0  0  0
  150.4052  133.4036  180.0469 C   0  0  0  0  0  0  0  0  0  0  0  0
  151.8983  133.1776  180.3833 C   0  0  0  0  0  0  0  0  0  0  0  0
  152.4418  132.3793  179.2181 C   0  0  0  0  0  0  0  0  0  0  0  0
  150.2646  136.8029  183.5993 C   0  0  0  0  0  0  0  0  0  0  0  0
  149.1188  137.5772  183.9792 C   0  0  0  0  0  0  0  0  0  0  0  0
  148.5059  138.3816  183.0139 C   0  0  0  0  0  0  0  0  0  0  0  0
  147.3963  139.1400  183.2620 C   0  0  0  0  0  0  0  0  0  0  0  0
  146.8238  139.1395  184.5085 C   0  0  0  0  0  0  0  0  0  0  0  0
  147.3992  138.3573  185.4969 C   0  0  0  0  0  0  0  0  0  0  0  0
  148.5119  137.6076  185.2195 C   0  0  0  0  0  0  0  0  0  0  0  0
  154.6889  139.2342  184.3609 N   0  0  0  0  0  0  0  0  0  0  0  0
  156.0111  139.6741  184.4704 C   0  0  0  0  0  0  0  0  0  0  0  0
  156.6954  139.1797  185.5032 O   0  0  0  0  0  0  0  0  0  0  0  0
  154.0369  139.5420  183.6316 H   0  0  0  0  0  0  0  0  0  0  0  0
  156.7640  140.5990  183.6460 C   0  0  0  0  0  0  0  0  0  0  0  0
  157.7254  141.3620  184.4719 N   0  0  0  0  0  0  0  0  0  0  0  0
  159.1053  141.1217  184.3653 C   0  0  0  0  0  0  0  0  0  0  0  0
  159.5070  140.2414  183.5355 O   0  0  0  0  0  0  0  0  0  0  0  0
  157.3531  142.0919  185.1447 H   0  0  0  0  0  0  0  0  0  0  0  0
  160.1198  141.8011  185.1359 C   0  0  0  0  0  0  0  0  0  0  0  0
  159.8261  142.3122  186.3825 C   0  0  0  0  0  0  0  0  0  0  0  0
  160.8222  142.9671  187.1239 C   0  0  0  0  0  0  0  0  0  0  0  0
  162.0732  143.1038  186.6277 C   0  0  0  0  0  0  0  0  0  0  0  0
  162.3743  142.5907  185.3715 C   0  0  0  0  0  0  0  0  0  0  0  0
  161.4000  141.9481  184.6423 C   0  0  0  0  0  0  0  0  0  0  0  0
  156.2066  141.3556  182.5167 C   0  0  0  0  0  0  0  0  0  0  0  0
  157.1511  142.0758  181.6743 C   0  0  0  0  0  0  0  0  0  0  0  0
  157.5632  143.3609  181.8039 C   0  0  0  0  0  0  0  0  0  0  0  0
  158.4765  143.9567  180.9438 C   0  0  0  0  0  0  0  0  0  0  0  0
  159.0069  143.2351  179.9019 C   0  0  0  0  0  0  0  0  0  0  0  0
  158.6152  141.9170  179.7299 C   0  0  0  0  0  0  0  0  0  0  0  0
  157.7091  141.3554  180.5979 C   0  0  0  0  0  0  0  0  0  0  0  0
  155.0447  137.5231  186.1658 C   0  0  0  0  0  0  0  0  0  0  0  0
  155.0925  137.8038  187.6178 C   0  0  0  0  0  0  0  0  0  0  0  0
  156.2513  137.4261  188.3052 C   0  0  0  0  0  0  0  0  0  0  0  0
  156.4196  137.6783  189.6561 C   0  0  0  0  0  0  0  0  0  0  0  0
  155.4218  138.3232  190.3700 C   0  0  0  0  0  0  0  0  0  0  0  0
  154.2848  138.6940  189.6976 C   0  0  0  0  0  0  0  0  0  0  0  0
  154.1248  138.4375  188.3441 C   0  0  0  0  0  0  0  0  0  0  0  0
 17 18  1  0  0  0
 18 19  1  0  0  0
 18 16  1  0  0  0
 16 11  1  0  0  0
 11  7  1  0  0  0
  7  8  1  0  0  0
  8  9  2  0  0  0
  8  6  1  0  0  0
  6 20  1  0  0  0
 20 21  1  0  0  0
 21 22  2  0  0  0
 22 23  1  0  0  0
 23 24  2  0  0  0
 24 25  1  0  0  0
 25 26  2  0  0  0
  6  2  1  0  0  0
  2  3  1  0  0  0
  3  4  2  0  0  0
  3  1  1  0  0  0
  1 49  1  0  0  0
 49 50  1  0  0  0
 50 51  2  0  0  0
 51 52  1  0  0  0
 52 53  2  0  0  0
 53 54  1  0  0  0
 54 55  2  0  0  0
  1 27  1  0  0  0
 27 28  1  0  0  0
 28 29  2  0  0  0
 28 31  1  0  0  0
 31 42  1  0  0  0
 42 43  1  0  0  0
 43 44  2  0  0  0
 44 45  1  0  0  0
 45 46  2  0  0  0
 46 47  1  0  0  0
 47 48  2  0  0  0
 31 32  1  0  0  0
 32 33  1  0  0  0
 33 34  2  0  0  0
 33 36  1  0  0  0
 36 37  2  0  0  0
 37 38  1  0  0  0
 38 39  2  0  0  0
 39 40  1  0  0  0
 40 41  2  0  0  0
 11 12  1  0  0  0
 12 13  1  0  0  0
 12 14  2  0  0  0
 26 21  1  0  0  0
 55 50  1  0  0  0
 48 43  1  0  0  0
 41 36  1  0  0  0
  7 10  1  0  0  0
  2  5  1  0  0  0
 27 30  1  0  0  0
 32 35  1  0  0  0
 13 15  1  0  0  0
M  END
> <minimizedAffinity>
-9.29167

> <CNNscore>
0.3104898334

> <CNNaffinity>
7.0681257248

> <CNN_VS>
2.1945812702

> <CNNaffinity_variance>
0.1208852157

$$$$
[H]OC(=O)[C@@]([H])(N([H])C(=O)[C@@]([H])(N([H])C(=O)[C@]([H])(N([H])C(=O)[C@]([H])(N([H])C(=O)c1c([H])c([H])c([H])c([H])c1[H])C([H])([H])c1c([H])c([H])c([H])c([H])c1[H])C([H])([H])c1c([H])c([H])c([H])c([H])c1[H])C([H])([H])c1c([H])c([H])c([H])c([H])c1[H])C([H])([H])C([H])(C([H])([H])[H])C([H])([H])[H]


 55 58  0  0  0  0  0  0  0  0999 V2000
  154.8247  138.4773  185.6893 C   0  0  0  0  0  0  0  0  0  0  0  0
  154.3619  136.0210  185.4167 N   0  0  0  0  0  0  0  0  0  0  0  0
  154.0403  137.3186  185.1194 C   0  0  0  0  0  0  0  0  0  0  0  0
  153.0628  137.6240  184.3465 O   0  0  0  0  0  0  0  0  0  0  0  0
  155.1603  135.7348  186.0267 H   0  0  0  0  0  0  0  0  0  0  0  0
  153.5576  134.9231  184.8498 C   0  0  0  0  0  0  0  0  0  0  0  0
  151.6020  135.4795  186.4291 N   0  0  0  0  0  0  0  0  0  0  0  0
  152.4235  134.5959  185.7181 C   0  0  0  0  0  0  0  0  0  0  0  0
  152.1782  133.3374  185.8264 O   0  0  0  0  0  0  0  0  0  0  0  0
  151.7211  136.5234  186.3820 H   0  0  0  0  0  0  0  0  0  0  0  0
  150.5340  134.9047  187.2722 C   0  0  0  0  0  0  0  0  0  0  0  0
  149.2506  135.1166  186.5886 C   0  0  0  0  0  0  0  0  0  0  0  0
  149.1386  136.1760  185.6758 O   0  0  0  0  0  0  0  0  0  0  0  0
  148.2116  134.4315  186.7384 O   0  0  0  0  0  0  0  0  0  0  0  0
  148.6219  137.0039  185.9394 H   0  0  0  0  0  0  0  0  0  0  0  0
  150.5972  135.7551  188.5368 C   0  0  0  0  0  0  0  0  0  0  0  0
  150.2266  134.1468  190.2976 C   0  0  0  0  0  0  0  0  0  0  0  0
  151.2646  135.1249  189.6979 C   0  0  0  0  0  0  0  0  0  0  0  0
  151.5880  136.0845  190.8224 C   0  0  0  0  0  0  0  0  0  0  0  0
  154.3728  133.8554  184.2763 C   0  0  0  0  0  0  0  0  0  0  0  0
  154.7191  133.7986  182.8857 C   0  0  0  0  0  0  0  0  0  0  0  0
  153.8338  134.3477  181.9535 C   0  0  0  0  0  0  0  0  0  0  0  0
  154.0761  134.3685  180.6086 C   0  0  0  0  0  0  0  0  0  0  0  0
  155.2356  133.8339  180.1073 C   0  0  0  0  0  0  0  0  0  0  0  0
  156.1418  133.2774  180.9954 C   0  0  0  0  0  0  0  0  0  0  0  0
  155.8720  133.2701  182.3386 C   0  0  0  0  0  0  0  0  0  0  0  0
  155.2688  139.3142  184.5933 N   0  0  0  0  0  0  0  0  0  0  0  0
  156.6353  139.5038  184.3684 C   0  0  0  0  0  0  0  0  0  0  0  0
  157.4484  138.8619  185.2088 O   0  0  0  0  0  0  0  0  0  0  0  0
  154.5263  139.7574  184.0419 H   0  0  0  0  0  0  0  0  0  0  0  0
  157.3205  140.3021  183.3709 C   0  0  0  0  0  0  0  0  0  0  0  0
  158.6825  140.6483  183.8331 N   0  0  0  0  0  0  0  0  0  0  0  0
  158.8708  141.6033  184.8459 C   0  0  0  0  0  0  0  0  0  0  0  0
  157.8431  142.1537  185.3615 O   0  0  0  0  0  0  0  0  0  0  0  0
  159.5120  140.1628  183.3855 H   0  0  0  0  0  0  0  0  0  0  0  0
  160.1564  142.0197  185.3543 C   0  0  0  0  0  0  0  0  0  0  0  0
  161.2845  141.9233  184.5670 C   0  0  0  0  0  0  0  0  0  0  0  0
  162.5282  142.3353  185.0711 C   0  0  0  0  0  0  0  0  0  0  0  0
  162.6342  142.8281  186.3264 C   0  0  0  0  0  0  0  0  0  0  0  0
  161.5003  142.9270  187.1241 C   0  0  0  0  0  0  0  0  0  0  0  0
  160.2796  142.5240  186.6328 C   0  0  0  0  0  0  0  0  0  0  0  0
  156.6823  141.3380  182.5473 C   0  0  0  0  0  0  0  0  0  0  0  0
  157.5275  142.0286  181.5835 C   0  0  0  0  0  0  0  0  0  0  0  0
  157.9643  141.5677  180.3855 C   0  0  0  0  0  0  0  0  0  0  0  0
  158.7695  142.3115  179.5327 C   0  0  0  0  0  0  0  0  0  0  0  0
  159.1588  143.5794  179.8913 C   0  0  0  0  0  0  0  0  0  0  0  0
  158.7364  144.0929  181.1071 C   0  0  0  0  0  0  0  0  0  0  0  0
  157.9399  143.3320  181.9297 C   0  0  0  0  0  0  0  0  0  0  0  0
  155.7847  137.9835  186.6610 C   0  0  0  0  0  0  0  0  0  0  0  0
  155.4684  138.1346  188.0985 C   0  0  0  0  0  0  0  0  0  0  0  0
  156.5161  137.9503  189.0075 C   0  0  0  0  0  0  0  0  0  0  0  0
  156.3418  138.1083  190.3719 C   0  0  0  0  0  0  0  0  0  0  0  0
  155.0990  138.4591  190.8754 C   0  0  0  0  0  0  0  0  0  0  0  0
  154.0704  138.6400  189.9855 C   0  0  0  0  0  0  0  0  0  0  0  0
  154.2542  138.4797  188.6203 C   0  0  0  0  0  0  0  0  0  0  0  0
 17 18  1  0  0  0
 18 19  1  0  0  0
 18 16  1  0  0  0
 16 11  1  0  0  0
 11  7  1  0  0  0
  7  8  1  0  0  0
  8  9  2  0  0  0
  8  6  1  0  0  0
  6 20  1  0  0  0
 20 21  1  0  0  0
 21 22  2  0  0  0
 22 23  1  0  0  0
 23 24  2  0  0  0
 24 25  1  0  0  0
 25 26  2  0  0  0
  6  2  1  0  0  0
  2  3  1  0  0  0
  3  4  2  0  0  0
  3  1  1  0  0  0
  1 49  1  0  0  0
 49 50  1  0  0  0
 50 51  2  0  0  0
 51 52  1  0  0  0
 52 53  2  0  0  0
 53 54  1  0  0  0
 54 55  2  0  0  0
  1 27  1  0  0  0
 27 28  1  0  0  0
 28 29  2  0  0  0
 28 31  1  0  0  0
 31 42  1  0  0  0
 42 43  1  0  0  0
 43 44  2  0  0  0
 44 45  1  0  0  0
 45 46  2  0  0  0
 46 47  1  0  0  0
 47 48  2  0  0  0
 31 32  1  0  0  0
 32 33  1  0  0  0
 33 34  2  0  0  0
 33 36  1  0  0  0
 36 37  2  0  0  0
 37 38  1  0  0  0
 38 39  2  0  0  0
 39 40  1  0  0  0
 40 41  2  0  0  0
 11 12  1  0  0  0
 12 13  1  0  0  0
 12 14  2  0  0  0
 26 21  1  0  0  0
 55 50  1  0  0  0
 48 43  1  0  0  0
 41 36  1  0  0  0
  7 10  1  0  0  0
  2  5  1  0  0  0
 27 30  1  0  0  0
 32 35  1  0  0  0
 13 15  1  0  0  0
M  END
> <minimizedAffinity>
-8.90491

> <CNNscore>
0.2971012294

> <CNNaffinity>
7.0170011520

> <CNN_VS>
2.0847597122

> <CNNaffinity_variance>
0.3504638076

$$$$
[H]OC(=O)[C@@]([H])(N([H])C(=O)[C@@]([H])(N([H])C(=O)[C@]([H])(N([H])C(=O)[C@]([H])(N([H])C(=O)c1c([H])c([H])c([H])c([H])c1[H])C([H])([H])c1c([H])c([H])c([H])c([H])c1[H])C([H])([H])c1c([H])c([H])c([H])c([H])c1[H])C([H])([H])c1c([H])c([H])c([H])c([H])c1[H])C([H])([H])C([H])(C([H])([H])[H])C([H])([H])[H]


 55 58  0  0  0  0  0  0  0  0999 V2000
  154.8764  138.2385  185.8998 C   0  0  0  0  0  0  0  0  0  0  0  0
  154.3255  137.3107  183.6287 N   0  0  0  0  0  0  0  0  0  0  0  0
  153.9277  137.6138  184.9037 C   0  0  0  0  0  0  0  0  0  0  0  0
  152.7366  137.3871  185.3235 O   0  0  0  0  0  0  0  0  0  0  0  0
  155.2802  137.4971  183.2475 H   0  0  0  0  0  0  0  0  0  0  0  0
  153.3690  136.6870  182.6962 C   0  0  0  0  0  0  0  0  0  0  0  0
  150.8708  137.2885  182.5371 N   0  0  0  0  0  0  0  0  0  0  0  0
  152.2367  137.5771  182.4266 C   0  0  0  0  0  0  0  0  0  0  0  0
  152.5658  138.7589  182.0382 O   0  0  0  0  0  0  0  0  0  0  0  0
  150.5155  136.3545  182.8651 H   0  0  0  0  0  0  0  0  0  0  0  0
  149.9081  138.3483  182.1740 C   0  0  0  0  0  0  0  0  0  0  0  0
  148.7915  138.2953  183.1278 C   0  0  0  0  0  0  0  0  0  0  0  0
  147.8847  139.3651  183.1658 O   0  0  0  0  0  0  0  0  0  0  0  0
  148.5546  137.3682  183.9375 O   0  0  0  0  0  0  0  0  0  0  0  0
  147.9222  140.0186  183.9362 H   0  0  0  0  0  0  0  0  0  0  0  0
  149.4311  137.9218  180.7894 C   0  0  0  0  0  0  0  0  0  0  0  0
  148.6551  138.3622  178.5471 C   0  0  0  0  0  0  0  0  0  0  0  0
  149.2979  139.0108  179.7960 C   0  0  0  0  0  0  0  0  0  0  0  0
  150.6173  139.5685  179.3077 C   0  0  0  0  0  0  0  0  0  0  0  0
  153.1378  135.2724  182.9769 C   0  0  0  0  0  0  0  0  0  0  0  0
  154.2010  134.3198  183.1153 C   0  0  0  0  0  0  0  0  0  0  0  0
  154.8844  133.9095  181.9668 C   0  0  0  0  0  0  0  0  0  0  0  0
  155.9269  133.0260  181.9879 C   0  0  0  0  0  0  0  0  0  0  0  0
  156.3558  132.4920  183.1764 C   0  0  0  0  0  0  0  0  0  0  0  0
  155.7062  132.8698  184.3404 C   0  0  0  0  0  0  0  0  0  0  0  0
  154.6635  133.7571  184.2888 C   0  0  0  0  0  0  0  0  0  0  0  0
  155.9401  138.8975  185.1696 N   0  0  0  0  0  0  0  0  0  0  0  0
  155.6564  140.0144  184.3785 C   0  0  0  0  0  0  0  0  0  0  0  0
  154.3801  140.4025  184.3722 O   0  0  0  0  0  0  0  0  0  0  0  0
  156.8698  138.4738  185.2574 H   0  0  0  0  0  0  0  0  0  0  0  0
  156.5271  140.8198  183.5447 C   0  0  0  0  0  0  0  0  0  0  0  0
  157.5293  141.5243  184.3740 N   0  0  0  0  0  0  0  0  0  0  0  0
  158.8866  141.1684  184.3084 C   0  0  0  0  0  0  0  0  0  0  0  0
  159.2327  140.2348  183.5124 O   0  0  0  0  0  0  0  0  0  0  0  0
  157.2036  142.3011  185.0178 H   0  0  0  0  0  0  0  0  0  0  0  0
  159.9362  141.7836  185.0859 C   0  0  0  0  0  0  0  0  0  0  0  0
  161.2049  141.9212  184.5633 C   0  0  0  0  0  0  0  0  0  0  0  0
  162.2159  142.5249  185.3276 C   0  0  0  0  0  0  0  0  0  0  0  0
  161.9596  142.9754  186.5771 C   0  0  0  0  0  0  0  0  0  0  0  0
  160.6825  142.8387  187.1086 C   0  0  0  0  0  0  0  0  0  0  0  0
  159.6892  142.2475  186.3619 C   0  0  0  0  0  0  0  0  0  0  0  0
  156.0890  141.5715  182.3608 C   0  0  0  0  0  0  0  0  0  0  0  0
  157.1205  142.2587  181.5964 C   0  0  0  0  0  0  0  0  0  0  0  0
  157.5905  143.5164  181.7842 C   0  0  0  0  0  0  0  0  0  0  0  0
  158.5855  144.0815  180.9971 C   0  0  0  0  0  0  0  0  0  0  0  0
  159.1410  143.3562  179.9709 C   0  0  0  0  0  0  0  0  0  0  0  0
  158.6922  142.0654  179.7411 C   0  0  0  0  0  0  0  0  0  0  0  0
  157.7057  141.5339  180.5375 C   0  0  0  0  0  0  0  0  0  0  0  0
  155.1972  137.2736  186.9369 C   0  0  0  0  0  0  0  0  0  0  0  0
  155.3776  137.7652  188.3207 C   0  0  0  0  0  0  0  0  0  0  0  0
  154.2788  138.3813  188.9298 C   0  0  0  0  0  0  0  0  0  0  0  0
  154.3238  138.8403  190.2352 C   0  0  0  0  0  0  0  0  0  0  0  0
  155.4835  138.6963  190.9806 C   0  0  0  0  0  0  0  0  0  0  0  0
  156.5620  138.0926  190.3848 C   0  0  0  0  0  0  0  0  0  0  0  0
  156.5079  137.6355  189.0766 C   0  0  0  0  0  0  0  0  0  0  0  0
 17 18  1  0  0  0
 18 19  1  0  0  0
 18 16  1  0  0  0
 16 11  1  0  0  0
 11  7  1  0  0  0
  7  8  1  0  0  0
  8  9  2  0  0  0
  8  6  1  0  0  0
  6 20  1  0  0  0
 20 21  1  0  0  0
 21 22  2  0  0  0
 22 23  1  0  0  0
 23 24  2  0  0  0
 24 25  1  0  0  0
 25 26  2  0  0  0
  6  2  1  0  0  0
  2  3  1  0  0  0
  3  4  2  0  0  0
  3  1  1  0  0  0
  1 49  1  0  0  0
 49 50  1  0  0  0
 50 51  2  0  0  0
 51 52  1  0  0  0
 52 53  2  0  0  0
 53 54  1  0  0  0
 54 55  2  0  0  0
  1 27  1  0  0  0
 27 28  1  0  0  0
 28 29  2  0  0  0
 28 31  1  0  0  0
 31 42  1  0  0  0
 42 43  1  0  0  0
 43 44  2  0  0  0
 44 45  1  0  0  0
 45 46  2  0  0  0
 46 47  1  0  0  0
 47 48  2  0  0  0
 31 32  1  0  0  0
 32 33  1  0  0  0
 33 34  2  0  0  0
 33 36  1  0  0  0
 36 37  2  0  0  0
 37 38  1  0  0  0
 38 39  2  0  0  0
 39 40  1  0  0  0
 40 41  2  0  0  0
 11 12  1  0  0  0
 12 13  1  0  0  0
 12 14  2  0  0  0
 26 21  1  0  0  0
 55 50  1  0  0  0
 48 43  1  0  0  0
 41 36  1  0  0  0
  7 10  1  0  0  0
  2  5  1  0  0  0
 27 30  1  0  0  0
 32 35  1  0  0  0
 13 15  1  0  0  0
M  END
> <minimizedAffinity>
-10.29666

> <CNNscore>
0.2300852239

> <CNNaffinity>
7.0333108902

> <CNN_VS>
1.6182608604

> <CNNaffinity_variance>
0.4354186654

$$$$
[H]c1c([H])c([H])c2c([H])c(C(=O)N3C([H])([H])C4([H])C([H])([H])N([H])C([H])([H])C([H])(C3([H])[H])C4([H])[H])oc2c1[H]


 21 24  0  0  0  0  0  0  0  0999 V2000
  151.5424  139.8442  179.1852 O   0  0  0  0  0  0  0  0  0  0  0  0
  151.2979  139.6260  180.4459 C   0  0  0  0  0  0  0  0  0  0  0  0
  150.0645  139.0270  180.7550 N   0  0  0  0  0  0  0  0  0  0  0  0
  149.2091  138.7208  179.6074 C   0  0  0  0  0  0  0  0  0  0  0  0
  147.7556  138.7766  179.8654 C   0  0  0  0  0  0  0  0  0  0  0  0
  147.0502  137.4573  179.6157 C   0  0  0  0  0  0  0  0  0  0  0  0
  147.3468  136.4565  180.5818 N   0  0  0  0  0  0  0  0  0  0  0  0
  148.2949  136.7803  181.5876 C   0  0  0  0  0  0  0  0  0  0  0  0
  148.2618  138.1654  182.1205 C   0  0  0  0  0  0  0  0  0  0  0  0
  147.4245  139.1341  181.3111 C   0  0  0  0  0  0  0  0  0  0  0  0
  149.6882  138.7430  182.0950 C   0  0  0  0  0  0  0  0  0  0  0  0
  146.5823  135.8348  180.8499 H   0  0  0  0  0  0  0  0  0  0  0  0
  152.3659  140.0502  181.3218 C   0  0  0  0  0  0  0  0  0  0  0  0
  153.1490  139.2835  182.1285 C   0  0  0  0  0  0  0  0  0  0  0  0
  154.0270  140.1876  182.7645 C   0  0  0  0  0  0  0  0  0  0  0  0
  155.0299  140.0172  183.6741 C   0  0  0  0  0  0  0  0  0  0  0  0
  155.7605  141.0950  184.1537 C   0  0  0  0  0  0  0  0  0  0  0  0
  155.4455  142.3567  183.6839 C   0  0  0  0  0  0  0  0  0  0  0  0
  154.4391  142.5410  182.7690 C   0  0  0  0  0  0  0  0  0  0  0  0
  153.7227  141.4420  182.3053 C   0  0  0  0  0  0  0  0  0  0  0  0
  152.7424  141.3357  181.4576 O   0  0  0  0  0  0  0  0  0  0  0  0
  1  2  2  0  0  0
  2  3  1  0  0  0
  3  4  1  0  0  0
  4  5  1  0  0  0
  5  6  1  0  0  0
  6  7  1  0  0  0
  7  8  1  0  0  0
  8  9  1  0  0  0
  9 10  1  0  0  0
  9 11  1  0  0  0
  2 13  1  0  0  0
 13 14  2  0  0  0
 14 15  1  0  0  0
 15 16  2  0  0  0
 16 17  1  0  0  0
 17 18  2  0  0  0
 18 19  1  0  0  0
 19 20  2  0  0  0
 20 21  1  0  0  0
 11  3  1  0  0  0
 21 13  1  0  0  0
 10  5  1  0  0  0
 20 15  1  0  0  0
  7 12  1  0  0  0
M  END
> <minimizedAffinity>
-6.51267

> <CNNscore>
0.6203625202

> <CNNaffinity>
4.7972803116

> <CNN_VS>
2.9760529995

> <CNNaffinity_variance>
0.2541017532

$$$$
[H]c1c([H])c([H])c2c([H])c(C(=O)N3C([H])([H])C4([H])C([H])([H])N([H])C([H])([H])C([H])(C3([H])[H])C4([H])[H])oc2c1[H]


 21 24  0  0  0  0  0  0  0  0999 V2000
  150.6780  135.0837  192.5159 O   0  0  0  0  0  0  0  0  0  0  0  0
  151.0806  135.3930  191.3163 C   0  0  0  0  0  0  0  0  0  0  0  0
  150.1556  135.2115  190.2739 N   0  0  0  0  0  0  0  0  0  0  0  0
  148.8463  134.6965  190.6775 C   0  0  0  0  0  0  0  0  0  0  0  0
  148.1538  133.8636  189.6731 C   0  0  0  0  0  0  0  0  0  0  0  0
  146.8120  134.4279  189.2469 C   0  0  0  0  0  0  0  0  0  0  0  0
  146.9107  135.5984  188.4449 N   0  0  0  0  0  0  0  0  0  0  0  0
  148.2094  136.1221  188.2109 C   0  0  0  0  0  0  0  0  0  0  0  0
  149.3034  135.1392  188.0099 C   0  0  0  0  0  0  0  0  0  0  0  0
  148.9482  133.7137  188.3794 C   0  0  0  0  0  0  0  0  0  0  0  0
  150.4832  135.5130  188.9249 C   0  0  0  0  0  0  0  0  0  0  0  0
  146.2290  135.6986  187.6913 H   0  0  0  0  0  0  0  0  0  0  0  0
  152.4406  135.8791  191.2725 C   0  0  0  0  0  0  0  0  0  0  0  0
  153.5783  135.2352  191.6505 C   0  0  0  0  0  0  0  0  0  0  0  0
  154.6243  136.1504  191.4038 C   0  0  0  0  0  0  0  0  0  0  0  0
  155.9758  136.0790  191.5794 C   0  0  0  0  0  0  0  0  0  0  0  0
  156.8038  137.1428  191.2503 C   0  0  0  0  0  0  0  0  0  0  0  0
  156.2220  138.2867  190.7358 C   0  0  0  0  0  0  0  0  0  0  0  0
  154.8641  138.3706  190.5544 C   0  0  0  0  0  0  0  0  0  0  0  0
  154.0578  137.2885  190.8932 C   0  0  0  0  0  0  0  0  0  0  0  0
  152.7722  137.1050  190.8253 O   0  0  0  0  0  0  0  0  0  0  0  0
  1  2  2  0  0  0
  2  3  1  0  0  0
  3  4  1  0  0  0
  4  5  1  0  0  0
  5  6  1  0  0  0
  6  7  1  0  0  0
  7  8  1  0  0  0
  8  9  1  0  0  0
  9 10  1  0  0  0
  9 11  1  0  0  0
  2 13  1  0  0  0
 13 14  2  0  0  0
 14 15  1  0  0  0
 15 16  2  0  0  0
 16 17  1  0  0  0
 17 18  2  0  0  0
 18 19  1  0  0  0
 19 20  2  0  0  0
 20 21  1  0  0  0
 11  3  1  0  0  0
 21 13  1  0  0  0
 10  5  1  0  0  0
 20 15  1  0  0  0
  7 12  1  0  0  0
M  END
> <minimizedAffinity>
-4.82386

> <CNNscore>
0.5914953947

> <CNNaffinity>
4.3435773849

> <CNN_VS>
2.5692059994

> <CNNaffinity_variance>
0.0552976541

$$$$
[H]c1c([H])c([H])c2c([H])c(C(=O)N3C([H])([H])C4([H])C([H])([H])N([H])C([H])([H])C([H])(C3([H])[H])C4([H])[H])oc2c1[H]


 21 24  0  0  0  0  0  0  0  0999 V2000
  150.7683  134.7546  189.3858 O   0  0  0  0  0  0  0  0  0  0  0  0
  151.0966  135.7739  188.6441 C   0  0  0  0  0  0  0  0  0  0  0  0
  150.1618  136.1760  187.6747 N   0  0  0  0  0  0  0  0  0  0  0  0
  148.9276  135.3906  187.6274 C   0  0  0  0  0  0  0  0  0  0  0  0
  148.2932  135.2832  186.2977 C   0  0  0  0  0  0  0  0  0  0  0  0
  146.8864  135.8486  186.2558 C   0  0  0  0  0  0  0  0  0  0  0  0
  146.8357  137.2673  186.3443 N   0  0  0  0  0  0  0  0  0  0  0  0
  148.0640  137.9544  186.5303 C   0  0  0  0  0  0  0  0  0  0  0  0
  149.2477  137.4203  185.8111 C   0  0  0  0  0  0  0  0  0  0  0  0
  149.0558  136.0408  185.2153 C   0  0  0  0  0  0  0  0  0  0  0  0
  150.4114  137.2731  186.8076 C   0  0  0  0  0  0  0  0  0  0  0  0
  146.1228  137.7379  185.7848 H   0  0  0  0  0  0  0  0  0  0  0  0
  152.3962  136.3211  188.9596 C   0  0  0  0  0  0  0  0  0  0  0  0
  153.5268  136.2974  188.2028 C   0  0  0  0  0  0  0  0  0  0  0  0
  154.5041  136.9659  188.9715 C   0  0  0  0  0  0  0  0  0  0  0  0
  155.8186  137.2553  188.7463 C   0  0  0  0  0  0  0  0  0  0  0  0
  156.5781  137.9398  189.6845 C   0  0  0  0  0  0  0  0  0  0  0  0
  155.9662  138.3251  190.8629 C   0  0  0  0  0  0  0  0  0  0  0  0
  154.6448  138.0400  191.1010 C   0  0  0  0  0  0  0  0  0  0  0  0
  153.9071  137.3521  190.1425 C   0  0  0  0  0  0  0  0  0  0  0  0
  152.6672  136.9617  190.1124 O   0  0  0  0  0  0  0  0  0  0  0  0
  1  2  2  0  0  0
  2  3  1  0  0  0
  3  4  1  0  0  0
  4  5  1  0  0  0
  5  6  1  0  0  0
  6  7  1  0  0  0
  7  8  1  0  0  0
  8  9  1  0  0  0
  9 10  1  0  0  0
  9 11  1  0  0  0
  2 13  1  0  0  0
 13 14  2  0  0  0
 14 15  1  0  0  0
 15 16  2  0  0  0
 16 17  1  0  0  0
 17 18  2  0  0  0
 18 19  1  0  0  0
 19 20  2  0  0  0
 20 21  1  0  0  0
 11  3  1  0  0  0
 21 13  1  0  0  0
 10  5  1  0  0  0
 20 15  1  0  0  0
  7 12  1  0  0  0
M  END
> <minimizedAffinity>
-4.88466

> <CNNscore>
0.5425534248

> <CNNaffinity>
4.3845963478

> <CNN_VS>
2.3788778782

> <CNNaffinity_variance>
0.0094902497

$$$$
[H]c1c([H])c([H])c2c([H])c(C(=O)N3C([H])([H])C4([H])C([H])([H])N([H])C([H])([H])C([H])(C3([H])[H])C4([H])[H])oc2c1[H]


 21 24  0  0  0  0  0  0  0  0999 V2000
  153.4468  138.0284  184.8771 O   0  0  0  0  0  0  0  0  0  0  0  0
  152.8706  137.5568  185.9459 C   0  0  0  0  0  0  0  0  0  0  0  0
  151.5939  136.9936  185.7781 N   0  0  0  0  0  0  0  0  0  0  0  0
  151.0751  137.0080  184.4095 C   0  0  0  0  0  0  0  0  0  0  0  0
  149.6064  137.1087  184.2876 C   0  0  0  0  0  0  0  0  0  0  0  0
  148.9813  135.9298  183.5666 C   0  0  0  0  0  0  0  0  0  0  0  0
  148.9980  134.7229  184.3191 N   0  0  0  0  0  0  0  0  0  0  0  0
  149.6441  134.7501  185.5829 C   0  0  0  0  0  0  0  0  0  0  0  0
  149.4825  135.9833  186.3931 C   0  0  0  0  0  0  0  0  0  0  0  0
  148.9027  137.1629  185.6401 C   0  0  0  0  0  0  0  0  0  0  0  0
  150.8688  136.4500  186.8720 C   0  0  0  0  0  0  0  0  0  0  0  0
  148.1836  134.1134  184.2292 H   0  0  0  0  0  0  0  0  0  0  0  0
  153.6682  137.7018  187.1420 C   0  0  0  0  0  0  0  0  0  0  0  0
  153.4270  138.4889  188.2255 C   0  0  0  0  0  0  0  0  0  0  0  0
  154.5087  138.2578  189.1025 C   0  0  0  0  0  0  0  0  0  0  0  0
  154.8219  138.7536  190.3348 C   0  0  0  0  0  0  0  0  0  0  0  0
  155.9717  138.3557  191.0021 C   0  0  0  0  0  0  0  0  0  0  0  0
  156.7995  137.4371  190.3836 C   0  0  0  0  0  0  0  0  0  0  0  0
  156.4953  136.9312  189.1445 C   0  0  0  0  0  0  0  0  0  0  0  0
  155.3357  137.3480  188.4982 C   0  0  0  0  0  0  0  0  0  0  0  0
  154.8204  137.0356  187.3460 O   0  0  0  0  0  0  0  0  0  0  0  0
  1  2  2  0  0  0
  2  3  1  0  0  0
  3  4  1  0  0  0
  4  5  1  0  0  0
  5  6  1  0  0  0
  6  7  1  0  0  0
  7  8  1  0  0  0
  8  9  1  0  0  0
  9 10  1  0  0  0
  9 11  1  0  0  0
  2 13  1  0  0  0
 13 14  2  0  0  0
 14 15  1  0  0  0
 15 16  2  0  0  0
 16 17  1  0  0  0
 17 18  2  0  0  0
 18 19  1  0  0  0
 19 20  2  0  0  0
 20 21  1  0  0  0
 11  3  1  0  0  0
 21 13  1  0  0  0
 10  5  1  0  0  0
 20 15  1  0  0  0
  7 12  1  0  0  0
M  END
> <minimizedAffinity>
-5.37494

> <CNNscore>
0.5181469321

> <CNNaffinity>
4.2905960083

> <CNN_VS>
2.2231590748

> <CNNaffinity_variance>
0.0729648694

$$$$
[H]c1c([H])c([H])c2c([H])c(C(=O)N3C([H])([H])C4([H])C([H])([H])N([H])C([H])([H])C([H])(C3([H])[H])C4([H])[H])oc2c1[H]


 21 24  0  0  0  0  0  0  0  0999 V2000
  152.4353  139.1182  179.9329 O   0  0  0  0  0  0  0  0  0  0  0  0
  151.8313  138.6804  181.0008 C   0  0  0  0  0  0  0  0  0  0  0  0
  150.4731  138.3457  180.8651 N   0  0  0  0  0  0  0  0  0  0  0  0
  149.9102  138.5318  179.5268 C   0  0  0  0  0  0  0  0  0  0  0  0
  148.4751  138.8793  179.4836 C   0  0  0  0  0  0  0  0  0  0  0  0
  147.6344  137.8669  178.7294 C   0  0  0  0  0  0  0  0  0  0  0  0
  147.4797  136.6282  179.4112 N   0  0  0  0  0  0  0  0  0  0  0  0
  148.1709  136.4688  180.6409 C   0  0  0  0  0  0  0  0  0  0  0  0
  148.2489  137.6579  181.5262 C   0  0  0  0  0  0  0  0  0  0  0  0
  147.8443  138.9619  180.8702 C   0  0  0  0  0  0  0  0  0  0  0  0
  149.7114  137.8597  181.9612 C   0  0  0  0  0  0  0  0  0  0  0  0
  146.5723  136.1673  179.3276 H   0  0  0  0  0  0  0  0  0  0  0  0
  152.6886  138.6164  182.1621 C   0  0  0  0  0  0  0  0  0  0  0  0
  153.5260  139.5741  182.6452 C   0  0  0  0  0  0  0  0  0  0  0  0
  154.1239  139.0038  183.7897 C   0  0  0  0  0  0  0  0  0  0  0  0
  155.0395  139.4740  184.6859 C   0  0  0  0  0  0  0  0  0  0  0  0
  155.4741  138.6959  185.7495 C   0  0  0  0  0  0  0  0  0  0  0  0
  154.9529  137.4220  185.8810 C   0  0  0  0  0  0  0  0  0  0  0  0
  154.0314  136.9379  184.9863 C   0  0  0  0  0  0  0  0  0  0  0  0
  153.6136  137.7401  183.9290 C   0  0  0  0  0  0  0  0  0  0  0  0
  152.7713  137.5349  182.9598 O   0  0  0  0  0  0  0  0  0  0  0  0
  1  2  2  0  0  0
  2  3  1  0  0  0
  3  4  1  0  0  0
  4  5  1  0  0  0
  5  6  1  0  0  0
  6  7  1  0  0  0
  7  8  1  0  0  0
  8  9  1  0  0  0
  9 10  1  0  0  0
  9 11  1  0  0  0
  2 13  1  0  0  0
 13 14  2  0  0  0
 14 15  1  0  0  0
 15 16  2  0  0  0
 16 17  1  0  0  0
 17 18  2  0  0  0
 18 19  1  0  0  0
 19 20  2  0  0  0
 20 21  1  0  0  0
 11  3  1  0  0  0
 21 13  1  0  0  0
 10  5  1  0  0  0
 20 15  1  0  0  0
  7 12  1  0  0  0
M  END
> <minimizedAffinity>
-5.61637

> <CNNscore>
0.4116013348

> <CNNaffinity>
4.4168982506

> <CNN_VS>
1.8180012703

> <CNNaffinity_variance>
0.1185136884

$$$$
[H]c1c([H])c([H])c2c([H])c(C(=O)N3C([H])([H])C4([H])C([H])([H])N([H])C([H])([H])C([H])(C3([H])[H])C4([H])[H])oc2c1[H]


 21 24  0  0  0  0  0  0  0  0999 V2000
  156.1425  140.2241  182.9081 O   0  0  0  0  0  0  0  0  0  0  0  0
  156.6007  139.9221  184.0895 C   0  0  0  0  0  0  0  0  0  0  0  0
  155.8094  139.0645  184.8728 N   0  0  0  0  0  0  0  0  0  0  0  0
  154.5627  138.6160  184.2507 C   0  0  0  0  0  0  0  0  0  0  0  0
  153.4467  138.3522  185.1820 C   0  0  0  0  0  0  0  0  0  0  0  0
  152.9486  136.9204  185.1323 C   0  0  0  0  0  0  0  0  0  0  0  0
  153.8538  135.9784  185.6949 N   0  0  0  0  0  0  0  0  0  0  0  0
  155.1055  136.4681  186.1519 C   0  0  0  0  0  0  0  0  0  0  0  0
  155.1059  137.7980  186.8114 C   0  0  0  0  0  0  0  0  0  0  0  0
  153.8250  138.5884  186.6409 C   0  0  0  0  0  0  0  0  0  0  0  0
  156.2063  138.6678  186.1778 C   0  0  0  0  0  0  0  0  0  0  0  0
  153.4442  135.2002  186.2139 H   0  0  0  0  0  0  0  0  0  0  0  0
  157.8723  140.5392  184.3893 C   0  0  0  0  0  0  0  0  0  0  0  0
  159.0108  140.5285  183.6440 C   0  0  0  0  0  0  0  0  0  0  0  0
  159.9506  141.2741  184.3879 C   0  0  0  0  0  0  0  0  0  0  0  0
  161.2538  141.6090  184.1601 C   0  0  0  0  0  0  0  0  0  0  0  0
  161.9736  142.3693  185.0708 C   0  0  0  0  0  0  0  0  0  0  0  0
  161.3336  142.7832  186.2244 C   0  0  0  0  0  0  0  0  0  0  0  0
  160.0232  142.4529  186.4648 C   0  0  0  0  0  0  0  0  0  0  0  0
  159.3256  141.6892  185.5341 C   0  0  0  0  0  0  0  0  0  0  0  0
  158.1038  141.2447  185.5124 O   0  0  0  0  0  0  0  0  0  0  0  0
  1  2  2  0  0  0
  2  3  1  0  0  0
  3  4  1  0  0  0
  4  5  1  0  0  0
  5  6  1  0  0  0
  6  7  1  0  0  0
  7  8  1  0  0  0
  8  9  1  0  0  0
  9 10  1  0  0  0
  9 11  1  0  0  0
  2 13  1  0  0  0
 13 14  2  0  0  0
 14 15  1  0  0  0
 15 16  2  0  0  0
 16 17  1  0  0  0
 17 18  2  0  0  0
 18 19  1  0  0  0
 19 20  2  0  0  0
 20 21  1  0  0  0
 11  3  1  0  0  0
 21 13  1  0  0  0
 10  5  1  0  0  0
 20 15  1  0  0  0
  7 12  1  0  0  0
M  END
> <minimizedAffinity>
-7.43338

> <CNNscore>
0.4015878439

> <CNNaffinity>
5.1631102562

> <CNN_VS>
2.0734422207

> <CNNaffinity_variance>
0.1052433625

$$$$
[H]c1c([H])c([H])c2c([H])c(C(=O)N3C([H])([H])C4([H])C([H])([H])N([H])C([H])([H])C([H])(C3([H])[H])C4([H])[H])oc2c1[H]


 21 24  0  0  0  0  0  0  0  0999 V2000
  154.1975  139.3126  184.7381 O   0  0  0  0  0  0  0  0  0  0  0  0
  153.7041  138.3359  185.4449 C   0  0  0  0  0  0  0  0  0  0  0  0
  152.7968  137.4821  184.7945 N   0  0  0  0  0  0  0  0  0  0  0  0
  152.5249  137.8037  183.3927 C   0  0  0  0  0  0  0  0  0  0  0  0
  151.1730  137.4536  182.9110 C   0  0  0  0  0  0  0  0  0  0  0  0
  151.1827  136.4664  181.7595 C   0  0  0  0  0  0  0  0  0  0  0  0
  151.5654  135.1494  182.1363 N   0  0  0  0  0  0  0  0  0  0  0  0
  151.9517  134.9427  183.4867 C   0  0  0  0  0  0  0  0  0  0  0  0
  151.1948  135.6885  184.5232 C   0  0  0  0  0  0  0  0  0  0  0  0
  150.3131  136.7973  183.9867 C   0  0  0  0  0  0  0  0  0  0  0  0
  152.1935  136.3846  185.4649 C   0  0  0  0  0  0  0  0  0  0  0  0
  151.0835  134.3791  181.6702 H   0  0  0  0  0  0  0  0  0  0  0  0
  154.1909  138.3059  186.8050 C   0  0  0  0  0  0  0  0  0  0  0  0
  153.5370  138.6675  187.9422 C   0  0  0  0  0  0  0  0  0  0  0  0
  154.4581  138.4458  188.9887 C   0  0  0  0  0  0  0  0  0  0  0  0
  154.3818  138.6203  190.3400 C   0  0  0  0  0  0  0  0  0  0  0  0
  155.4538  138.3200  191.1684 C   0  0  0  0  0  0  0  0  0  0  0  0
  156.6109  137.8355  190.5873 C   0  0  0  0  0  0  0  0  0  0  0  0
  156.7000  137.6555  189.2295 C   0  0  0  0  0  0  0  0  0  0  0  0
  155.6094  137.9650  188.4227 C   0  0  0  0  0  0  0  0  0  0  0  0
  155.4281  137.8914  187.1372 O   0  0  0  0  0  0  0  0  0  0  0  0
  1  2  2  0  0  0
  2  3  1  0  0  0
  3  4  1  0  0  0
  4  5  1  0  0  0
  5  6  1  0  0  0
  6  7  1  0  0  0
  7  8  1  0  0  0
  8  9  1  0  0  0
  9 10  1  0  0  0
  9 11  1  0  0  0
  2 13  1  0  0  0
 13 14  2  0  0  0
 14 15  1  0  0  0
 15 16  2  0  0  0
 16 17  1  0  0  0
 17 18  2  0  0  0
 18 19  1  0  0  0
 19 20  2  0  0  0
 20 21  1  0  0  0
 11  3  1  0  0  0
 21 13  1  0  0  0
 10  5  1  0  0  0
 20 15  1  0  0  0
  7 12  1  0  0  0
M  END
> <minimizedAffinity>
-5.94394

> <CNNscore>
0.3793876767

> <CNNaffinity>
4.3193397522

> <CNN_VS>
1.6387042999

> <CNNaffinity_variance>
0.0546117723

$$$$
[H]c1c([H])c([H])c2c([H])c(C(=O)N3C([H])([H])C4([H])C([H])([H])N([H])C([H])([H])C([H])(C3([H])[H])C4([H])[H])oc2c1[H]


 21 24  0  0  0  0  0  0  0  0999 V2000
  153.8891  139.3111  183.9270 O   0  0  0  0  0  0  0  0  0  0  0  0
  154.8994  139.1495  184.7333 C   0  0  0  0  0  0  0  0  0  0  0  0
  154.6439  138.4688  185.9361 N   0  0  0  0  0  0  0  0  0  0  0  0
  153.2626  138.0232  186.1255 C   0  0  0  0  0  0  0  0  0  0  0  0
  152.7977  137.9722  187.5267 C   0  0  0  0  0  0  0  0  0  0  0  0
  152.3685  136.5857  187.9671 C   0  0  0  0  0  0  0  0  0  0  0  0
  153.4485  135.6733  188.1225 N   0  0  0  0  0  0  0  0  0  0  0  0
  154.7476  136.1356  187.7851 C   0  0  0  0  0  0  0  0  0  0  0  0
  155.0705  137.5426  188.1310 C   0  0  0  0  0  0  0  0  0  0  0  0
  153.8757  138.3871  188.5233 C   0  0  0  0  0  0  0  0  0  0  0  0
  155.6675  138.2354  186.8931 C   0  0  0  0  0  0  0  0  0  0  0  0
  153.3805  135.0070  188.8933 H   0  0  0  0  0  0  0  0  0  0  0  0
  156.1318  139.7139  184.2331 C   0  0  0  0  0  0  0  0  0  0  0  0
  157.3397  139.7854  184.8557 C   0  0  0  0  0  0  0  0  0  0  0  0
  158.1965  140.4264  183.9349 C   0  0  0  0  0  0  0  0  0  0  0  0
  159.5145  140.7760  183.9875 C   0  0  0  0  0  0  0  0  0  0  0  0
  160.1355  141.4129  182.9224 C   0  0  0  0  0  0  0  0  0  0  0  0
  159.3807  141.6871  181.7970 C   0  0  0  0  0  0  0  0  0  0  0  0
  158.0542  141.3404  181.7321 C   0  0  0  0  0  0  0  0  0  0  0  0
  157.4572  140.7026  182.8150 C   0  0  0  0  0  0  0  0  0  0  0  0
  156.2458  140.2741  183.0141 O   0  0  0  0  0  0  0  0  0  0  0  0
  1  2  2  0  0  0
  2  3  1  0  0  0
  3  4  1  0  0  0
  4  5  1  0  0  0
  5  6  1  0  0  0
  6  7  1  0  0  0
  7  8  1  0  0  0
  8  9  1  0  0  0
  9 10  1  0  0  0
  9 11  1  0  0  0
  2 13  1  0  0  0
 13 14  2  0  0  0
 14 15  1  0  0  0
 15 16  2  0  0  0
 16 17  1  0  0  0
 17 18  2  0  0  0
 18 19  1  0  0  0
 19 20  2  0  0  0
 20 21  1  0  0  0
 11  3  1  0  0  0
 21 13  1  0  0  0
 10  5  1  0  0  0
 20 15  1  0  0  0
  7 12  1  0  0  0
M  END
> <minimizedAffinity>
-6.97037

> <CNNscore>
0.3671208918

> <CNNaffinity>
4.7917318344

> <CNN_VS>
1.7591449022

> <CNNaffinity_variance>
0.0782100409

$$$$
[H]c1c([H])c([H])c2c([H])c(C(=O)N3C([H])([H])C4([H])C([H])([H])N([H])C([H])([H])C([H])(C3([H])[H])C4([H])[H])oc2c1[H]


 21 24  0  0  0  0  0  0  0  0999 V2000
  153.1957  139.5362  182.5383 O   0  0  0  0  0  0  0  0  0  0  0  0
  154.1981  139.6852  183.3568 C   0  0  0  0  0  0  0  0  0  0  0  0
  154.1827  138.9005  184.5227 N   0  0  0  0  0  0  0  0  0  0  0  0
  153.0320  138.0070  184.6642 C   0  0  0  0  0  0  0  0  0  0  0  0
  152.6062  137.7342  186.0522 C   0  0  0  0  0  0  0  0  0  0  0  0
  152.6682  136.2644  186.4216 C   0  0  0  0  0  0  0  0  0  0  0  0
  153.9921  135.7627  186.5578 N   0  0  0  0  0  0  0  0  0  0  0  0
  155.0604  136.6514  186.2675 C   0  0  0  0  0  0  0  0  0  0  0  0
  154.8882  138.0663  186.6822 C   0  0  0  0  0  0  0  0  0  0  0  0
  153.4771  138.4388  187.0877 C   0  0  0  0  0  0  0  0  0  0  0  0
  155.2213  138.9792  185.4886 C   0  0  0  0  0  0  0  0  0  0  0  0
  154.1500  135.0757  187.2966 H   0  0  0  0  0  0  0  0  0  0  0  0
  155.1698  140.6554  182.9070 C   0  0  0  0  0  0  0  0  0  0  0  0
  155.0667  142.0122  182.9040 C   0  0  0  0  0  0  0  0  0  0  0  0
  156.2856  142.4776  182.3653 C   0  0  0  0  0  0  0  0  0  0  0  0
  156.7677  143.7296  182.1151 C   0  0  0  0  0  0  0  0  0  0  0  0
  158.0284  143.9219  181.5680 C   0  0  0  0  0  0  0  0  0  0  0  0
  158.7912  142.8053  181.2800 C   0  0  0  0  0  0  0  0  0  0  0  0
  158.3175  141.5409  181.5272 C   0  0  0  0  0  0  0  0  0  0  0  0
  157.0495  141.3777  182.0763 C   0  0  0  0  0  0  0  0  0  0  0  0
  156.3719  140.3172  182.4037 O   0  0  0  0  0  0  0  0  0  0  0  0
  1  2  2  0  0  0
  2  3  1  0  0  0
  3  4  1  0  0  0
  4  5  1  0  0  0
  5  6  1  0  0  0
  6  7  1  0  0  0
  7  8  1  0  0  0
  8  9  1  0  0  0
  9 10  1  0  0  0
  9 11  1  0  0  0
  2 13  1  0  0  0
 13 14  2  0  0  0
 14 15  1  0  0  0
 15 16  2  0  0  0
 16 17  1  0  0  0
 17 18  2  0  0  0
 18 19  1  0  0  0
 19 20  2  0  0  0
 20 21  1  0  0  0
 11  3  1  0  0  0
 21 13  1  0  0  0
 10  5  1  0  0  0
 20 15  1  0  0  0
  7 12  1  0  0  0
M  END
> <minimizedAffinity>
-6.57266

> <CNNscore>
0.3638327122

> <CNNaffinity>
4.9275479317

> <CNN_VS>
1.7928031683

> <CNNaffinity_variance>
0.1178161353

$$$$
[H]Oc1c([H])c(N2C([H])([H])C([H])([H])N([H])C([H])([H])C2([H])[H])nc2c([H])c(OC([H])([H])[H])c(-c3oc([H])nc3[H])c([H])c12


 26 29  0  0  0  0  0  0  0  0999 V2000
  153.5755  138.4175  192.3167 C   0  0  0  0  0  0  0  0  0  0  0  0
  153.8516  137.1149  191.9226 C   0  0  0  0  0  0  0  0  0  0  0  0
  154.8716  136.8439  191.0448 C   0  0  0  0  0  0  0  0  0  0  0  0
  155.1581  135.5845  190.6478 N   0  0  0  0  0  0  0  0  0  0  0  0
  156.1461  135.2917  189.7937 C   0  0  0  0  0  0  0  0  0  0  0  0
  156.9077  136.3236  189.2954 C   0  0  0  0  0  0  0  0  0  0  0  0
  156.6920  137.6500  189.6425 C   0  0  0  0  0  0  0  0  0  0  0  0
  157.4545  138.6639  189.1412 O   0  0  0  0  0  0  0  0  0  0  0  0
  155.6492  137.8842  190.5344 C   0  0  0  0  0  0  0  0  0  0  0  0
  155.3377  139.1653  190.9550 C   0  0  0  0  0  0  0  0  0  0  0  0
  154.3216  139.4733  191.8342 C   0  0  0  0  0  0  0  0  0  0  0  0
  157.3481  139.6257  189.3516 H   0  0  0  0  0  0  0  0  0  0  0  0
  156.4407  133.9665  189.3815 N   0  0  0  0  0  0  0  0  0  0  0  0
  157.2891  133.6898  188.2432 C   0  0  0  0  0  0  0  0  0  0  0  0
  157.5847  132.2055  188.1435 C   0  0  0  0  0  0  0  0  0  0  0  0
  157.9917  131.7512  189.4470 N   0  0  0  0  0  0  0  0  0  0  0  0
  156.9194  131.7875  190.3941 C   0  0  0  0  0  0  0  0  0  0  0  0
  155.8862  132.8484  190.1075 C   0  0  0  0  0  0  0  0  0  0  0  0
  158.8046  132.3442  189.7365 H   0  0  0  0  0  0  0  0  0  0  0  0
  154.0341  140.8410  192.2460 C   0  0  0  0  0  0  0  0  0  0  0  0
  152.9637  141.6068  191.8347 C   0  0  0  0  0  0  0  0  0  0  0  0
  153.0507  142.8060  192.4350 N   0  0  0  0  0  0  0  0  0  0  0  0
  154.1484  142.7894  193.2022 C   0  0  0  0  0  0  0  0  0  0  0  0
  154.6997  141.6137  193.0628 O   0  0  0  0  0  0  0  0  0  0  0  0
  151.7751  137.6795  193.7998 C   0  0  0  0  0  0  0  0  0  0  0  0
  152.5473  138.7143  193.2045 O   0  0  0  0  0  0  0  0  0  0  0  0
 25 26  1  0  0  0
 26  1  1  0  0  0
  1  2  2  0  0  0
  2  3  1  0  0  0
  3  4  2  0  0  0
  4  5  1  0  0  0
  5  6  2  0  0  0
  6  7  1  0  0  0
  7  8  1  0  0  0
  7  9  2  0  0  0
  9 10  1  0  0  0
 10 11  2  0  0  0
 11 20  1  0  0  0
 20 21  2  0  0  0
 21 22  1  0  0  0
 22 23  2  0  0  0
 23 24  1  0  0  0
  5 13  1  0  0  0
 13 14  1  0  0  0
 14 15  1  0  0  0
 15 16  1  0  0  0
 16 17  1  0  0  0
 17 18  1  0  0  0
 11  1  1  0  0  0
 24 20  1  0  0  0
 18 13  1  0  0  0
  9  3  1  0  0  0
  8 12  1  0  0  0
 16 19  1  0  0  0
M  END
> <minimizedAffinity>
4.81604

> <CNNscore>
0.6009080410

> <CNNaffinity>
5.4973449707

> <CNN_VS>
3.3033988476

> <CNNaffinity_variance>
0.8097994924

$$$$
[H]Oc1c([H])c(N2C([H])([H])C([H])([H])N([H])C([H])([H])C2([H])[H])nc2c([H])c(OC([H])([H])[H])c(-c3oc([H])nc3[H])c([H])c12


 26 29  0  0  0  0  0  0  0  0999 V2000
  154.8575  134.7361  190.7837 C   0  0  0  0  0  0  0  0  0  0  0  0
  153.6357  135.3055  190.4499 C   0  0  0  0  0  0  0  0  0  0  0  0
  152.8154  134.7207  189.5173 C   0  0  0  0  0  0  0  0  0  0  0  0
  151.6227  135.2569  189.1772 N   0  0  0  0  0  0  0  0  0  0  0  0
  150.8035  134.7083  188.2719 C   0  0  0  0  0  0  0  0  0  0  0  0
  151.1949  133.5412  187.6572 C   0  0  0  0  0  0  0  0  0  0  0  0
  152.4006  132.9137  187.9384 C   0  0  0  0  0  0  0  0  0  0  0  0
  152.7768  131.7565  187.3219 O   0  0  0  0  0  0  0  0  0  0  0  0
  153.2042  133.5368  188.8890 C   0  0  0  0  0  0  0  0  0  0  0  0
  154.4294  133.0061  189.2531 C   0  0  0  0  0  0  0  0  0  0  0  0
  155.2774  133.5661  190.1846 C   0  0  0  0  0  0  0  0  0  0  0  0
  153.6216  131.2650  187.4809 H   0  0  0  0  0  0  0  0  0  0  0  0
  149.5525  135.2775  187.9201 N   0  0  0  0  0  0  0  0  0  0  0  0
  149.1779  135.5103  186.5425 C   0  0  0  0  0  0  0  0  0  0  0  0
  147.7286  135.9473  186.4479 C   0  0  0  0  0  0  0  0  0  0  0  0
  146.9443  135.0395  187.2429 N   0  0  0  0  0  0  0  0  0  0  0  0
  147.2137  135.1714  188.6423 C   0  0  0  0  0  0  0  0  0  0  0  0
  148.6127  135.6416  188.9539 C   0  0  0  0  0  0  0  0  0  0  0  0
  147.1383  134.0750  186.8849 H   0  0  0  0  0  0  0  0  0  0  0  0
  156.5588  132.9666  190.5329 C   0  0  0  0  0  0  0  0  0  0  0  0
  157.7951  133.3602  190.0661 C   0  0  0  0  0  0  0  0  0  0  0  0
  158.7253  132.5626  190.6182 N   0  0  0  0  0  0  0  0  0  0  0  0
  158.0855  131.6925  191.4102 C   0  0  0  0  0  0  0  0  0  0  0  0
  156.8104  131.9639  191.3320 O   0  0  0  0  0  0  0  0  0  0  0  0
  156.2340  136.6161  191.5296 C   0  0  0  0  0  0  0  0  0  0  0  0
  155.7035  135.3116  191.7253 O   0  0  0  0  0  0  0  0  0  0  0  0
 25 26  1  0  0  0
 26  1  1  0  0  0
  1  2  2  0  0  0
  2  3  1  0  0  0
  3  4  2  0  0  0
  4  5  1  0  0  0
  5  6  2  0  0  0
  6  7  1  0  0  0
  7  8  1  0  0  0
  7  9  2  0  0  0
  9 10  1  0  0  0
 10 11  2  0  0  0
 11 20  1  0  0  0
 20 21  2  0  0  0
 21 22  1  0  0  0
 22 23  2  0  0  0
 23 24  1  0  0  0
  5 13  1  0  0  0
 13 14  1  0  0  0
 14 15  1  0  0  0
 15 16  1  0  0  0
 16 17  1  0  0  0
 17 18  1  0  0  0
 11  1  1  0  0  0
 24 20  1  0  0  0
 18 13  1  0  0  0
  9  3  1  0  0  0
  8 12  1  0  0  0
 16 19  1  0  0  0
M  END
> <minimizedAffinity>
-2.56004

> <CNNscore>
0.5478169918

> <CNNaffinity>
5.2105932236

> <CNN_VS>
2.8544514179

> <CNNaffinity_variance>
1.1801017523

$$$$
[H]Oc1c([H])c(N2C([H])([H])C([H])([H])N([H])C([H])([H])C2([H])[H])nc2c([H])c(OC([H])([H])[H])c(-c3oc([H])nc3[H])c([H])c12


 26 29  0  0  0  0  0  0  0  0999 V2000
  158.6891  140.6892  183.3220 C   0  0  0  0  0  0  0  0  0  0  0  0
  158.2608  139.9371  184.4079 C   0  0  0  0  0  0  0  0  0  0  0  0
  156.9309  139.6460  184.5847 C   0  0  0  0  0  0  0  0  0  0  0  0
  156.4917  138.9160  185.6335 N   0  0  0  0  0  0  0  0  0  0  0  0
  155.2019  138.6175  185.8303 C   0  0  0  0  0  0  0  0  0  0  0  0
  154.2776  139.0762  184.9201 C   0  0  0  0  0  0  0  0  0  0  0  0
  154.6295  139.8330  183.8110 C   0  0  0  0  0  0  0  0  0  0  0  0
  153.7031  140.2817  182.9160 O   0  0  0  0  0  0  0  0  0  0  0  0
  155.9865  140.1071  183.6665 C   0  0  0  0  0  0  0  0  0  0  0  0
  156.4594  140.8524  182.6006 C   0  0  0  0  0  0  0  0  0  0  0  0
  157.7862  141.1632  182.3924 C   0  0  0  0  0  0  0  0  0  0  0  0
  153.8938  140.8235  182.1092 H   0  0  0  0  0  0  0  0  0  0  0  0
  154.7485  137.8504  186.9343 N   0  0  0  0  0  0  0  0  0  0  0  0
  155.2517  136.5206  187.2005 C   0  0  0  0  0  0  0  0  0  0  0  0
  154.7408  136.0117  188.5348 C   0  0  0  0  0  0  0  0  0  0  0  0
  154.9529  137.0487  189.5098 N   0  0  0  0  0  0  0  0  0  0  0  0
  154.1213  138.1903  189.2782 C   0  0  0  0  0  0  0  0  0  0  0  0
  153.7560  138.3965  187.8294 C   0  0  0  0  0  0  0  0  0  0  0  0
  155.9732  137.2831  189.4885 H   0  0  0  0  0  0  0  0  0  0  0  0
  158.2328  141.9525  181.2522 C   0  0  0  0  0  0  0  0  0  0  0  0
  158.1336  141.5932  179.9247 C   0  0  0  0  0  0  0  0  0  0  0  0
  158.6555  142.5841  179.1817 N   0  0  0  0  0  0  0  0  0  0  0  0
  159.0703  143.5387  180.0246 C   0  0  0  0  0  0  0  0  0  0  0  0
  158.8032  143.1280  181.2353 O   0  0  0  0  0  0  0  0  0  0  0  0
  160.7653  141.7242  184.0992 C   0  0  0  0  0  0  0  0  0  0  0  0
  160.0309  140.9956  183.1238 O   0  0  0  0  0  0  0  0  0  0  0  0
 25 26  1  0  0  0
 26  1  1  0  0  0
  1  2  2  0  0  0
  2  3  1  0  0  0
  3  4  2  0  0  0
  4  5  1  0  0  0
  5  6  2  0  0  0
  6  7  1  0  0  0
  7  8  1  0  0  0
  7  9  2  0  0  0
  9 10  1  0  0  0
 10 11  2  0  0  0
 11 20  1  0  0  0
 20 21  2  0  0  0
 21 22  1  0  0  0
 22 23  2  0  0  0
 23 24  1  0  0  0
  5 13  1  0  0  0
 13 14  1  0  0  0
 14 15  1  0  0  0
 15 16  1  0  0  0
 16 17  1  0  0  0
 17 18  1  0  0  0
 11  1  1  0  0  0
 24 20  1  0  0  0
 18 13  1  0  0  0
  9  3  1  0  0  0
  8 12  1  0  0  0
 16 19  1  0  0  0
M  END
> <minimizedAffinity>
-7.61039

> <CNNscore>
0.5271050930

> <CNNaffinity>
5.9687428474

> <CNN_VS>
3.1461546421

> <CNNaffinity_variance>
0.0226317383

$$$$
[H]Oc1c([H])c(N2C([H])([H])C([H])([H])N([H])C([H])([H])C2([H])[H])nc2c([H])c(OC([H])([H])[H])c(-c3oc([H])nc3[H])c([H])c12


 26 29  0  0  0  0  0  0  0  0999 V2000
  154.7539  145.4746  179.9929 C   0  0  0  0  0  0  0  0  0  0  0  0
  155.3014  144.8940  181.1293 C   0  0  0  0  0  0  0  0  0  0  0  0
  156.3671  144.0334  181.0390 C   0  0  0  0  0  0  0  0  0  0  0  0
  156.9158  143.4571  182.1310 N   0  0  0  0  0  0  0  0  0  0  0  0
  157.9545  142.6149  182.0721 C   0  0  0  0  0  0  0  0  0  0  0  0
  158.4900  142.3215  180.8391 C   0  0  0  0  0  0  0  0  0  0  0  0
  157.9971  142.8624  179.6597 C   0  0  0  0  0  0  0  0  0  0  0  0
  158.5372  142.5632  178.4434 O   0  0  0  0  0  0  0  0  0  0  0  0
  156.9167  143.7301  179.7925 C   0  0  0  0  0  0  0  0  0  0  0  0
  156.3386  144.3319  178.6885 C   0  0  0  0  0  0  0  0  0  0  0  0
  155.2690  145.1999  178.7426 C   0  0  0  0  0  0  0  0  0  0  0  0
  158.2292  142.9170  177.5713 H   0  0  0  0  0  0  0  0  0  0  0  0
  158.5251  142.0137  183.2235 N   0  0  0  0  0  0  0  0  0  0  0  0
  159.4057  142.7419  184.1102 C   0  0  0  0  0  0  0  0  0  0  0  0
  159.7155  141.9232  185.3488 C   0  0  0  0  0  0  0  0  0  0  0  0
  158.4703  141.4148  185.8609 N   0  0  0  0  0  0  0  0  0  0  0  0
  157.8812  140.4434  184.9905 C   0  0  0  0  0  0  0  0  0  0  0  0
  158.2294  140.6354  183.5355 C   0  0  0  0  0  0  0  0  0  0  0  0
  157.8472  142.2406  186.0226 H   0  0  0  0  0  0  0  0  0  0  0  0
  154.6965  145.8076  177.5487 C   0  0  0  0  0  0  0  0  0  0  0  0
  154.9660  147.0724  177.0702 C   0  0  0  0  0  0  0  0  0  0  0  0
  154.2440  147.2607  175.9524 N   0  0  0  0  0  0  0  0  0  0  0  0
  153.5409  146.1411  175.7383 C   0  0  0  0  0  0  0  0  0  0  0  0
  153.8357  145.3094  176.7012 O   0  0  0  0  0  0  0  0  0  0  0  0
  152.4899  146.1064  179.3140 C   0  0  0  0  0  0  0  0  0  0  0  0
  153.6747  146.3488  180.0617 O   0  0  0  0  0  0  0  0  0  0  0  0
 25 26  1  0  0  0
 26  1  1  0  0  0
  1  2  2  0  0  0
  2  3  1  0  0  0
  3  4  2  0  0  0
  4  5  1  0  0  0
  5  6  2  0  0  0
  6  7  1  0  0  0
  7  8  1  0  0  0
  7  9  2  0  0  0
  9 10  1  0  0  0
 10 11  2  0  0  0
 11 20  1  0  0  0
 20 21  2  0  0  0
 21 22  1  0  0  0
 22 23  2  0  0  0
 23 24  1  0  0  0
  5 13  1  0  0  0
 13 14  1  0  0  0
 14 15  1  0  0  0
 15 16  1  0  0  0
 16 17  1  0  0  0
 17 18  1  0  0  0
 11  1  1  0  0  0
 24 20  1  0  0  0
 18 13  1  0  0  0
  9  3  1  0  0  0
  8 12  1  0  0  0
 16 19  1  0  0  0
M  END
> <minimizedAffinity>
28.52353

> <CNNscore>
0.5113002062

> <CNNaffinity>
5.9144487381

> <CNN_VS>
3.0240588188

> <CNNaffinity_variance>
0.5642080307

$$$$
[H]Oc1c([H])c(N2C([H])([H])C([H])([H])N([H])C([H])([H])C2([H])[H])nc2c([H])c(OC([H])([H])[H])c(-c3oc([H])nc3[H])c([H])c12


 26 29  0  0  0  0  0  0  0  0999 V2000
  158.6022  140.6649  183.3231 C   0  0  0  0  0  0  0  0  0  0  0  0
  158.1381  139.9309  184.4067 C   0  0  0  0  0  0  0  0  0  0  0  0
  156.7977  139.6830  184.5695 C   0  0  0  0  0  0  0  0  0  0  0  0
  156.3238  138.9715  185.6158 N   0  0  0  0  0  0  0  0  0  0  0  0
  155.0229  138.7149  185.7991 C   0  0  0  0  0  0  0  0  0  0  0  0
  154.1240  139.1994  184.8771 C   0  0  0  0  0  0  0  0  0  0  0  0
  154.5121  139.9404  183.7694 C   0  0  0  0  0  0  0  0  0  0  0  0
  153.6106  140.4151  182.8625 O   0  0  0  0  0  0  0  0  0  0  0  0
  155.8788  140.1705  183.6392 C   0  0  0  0  0  0  0  0  0  0  0  0
  156.3871  140.8964  182.5761 C   0  0  0  0  0  0  0  0  0  0  0  0
  157.7253  141.1639  182.3818 C   0  0  0  0  0  0  0  0  0  0  0  0
  153.8274  140.9474  182.0561 H   0  0  0  0  0  0  0  0  0  0  0  0
  154.5331  137.9669  186.9006 N   0  0  0  0  0  0  0  0  0  0  0  0
  153.2030  138.1688  187.4319 C   0  0  0  0  0  0  0  0  0  0  0  0
  152.8770  137.1164  188.4743 C   0  0  0  0  0  0  0  0  0  0  0  0
  153.2237  135.8326  187.9243 N   0  0  0  0  0  0  0  0  0  0  0  0
  154.6369  135.6753  187.7612 C   0  0  0  0  0  0  0  0  0  0  0  0
  155.3725  136.9703  187.5225 C   0  0  0  0  0  0  0  0  0  0  0  0
  152.7013  135.7362  187.0221 H   0  0  0  0  0  0  0  0  0  0  0  0
  158.2096  141.9343  181.2440 C   0  0  0  0  0  0  0  0  0  0  0  0
  158.0892  141.5865  179.9151 C   0  0  0  0  0  0  0  0  0  0  0  0
  158.6598  142.5525  179.1753 N   0  0  0  0  0  0  0  0  0  0  0  0
  159.1250  143.4806  180.0214 C   0  0  0  0  0  0  0  0  0  0  0  0
  158.8397  143.0789  181.2309 O   0  0  0  0  0  0  0  0  0  0  0  0
  160.7064  141.6180  184.1293 C   0  0  0  0  0  0  0  0  0  0  0  0
  159.9553  140.9275  183.1390 O   0  0  0  0  0  0  0  0  0  0  0  0
 25 26  1  0  0  0
 26  1  1  0  0  0
  1  2  2  0  0  0
  2  3  1  0  0  0
  3  4  2  0  0  0
  4  5  1  0  0  0
  5  6  2  0  0  0
  6  7  1  0  0  0
  7  8  1  0  0  0
  7  9  2  0  0  0
  9 10  1  0  0  0
 10 11  2  0  0  0
 11 20  1  0  0  0
 20 21  2  0  0  0
 21 22  1  0  0  0
 22 23  2  0  0  0
 23 24  1  0  0  0
  5 13  1  0  0  0
 13 14  1  0  0  0
 14 15  1  0  0  0
 15 16  1  0  0  0
 16 17  1  0  0  0
 17 18  1  0  0  0
 11  1  1  0  0  0
 24 20  1  0  0  0
 18 13  1  0  0  0
  9  3  1  0  0  0
  8 12  1  0  0  0
 16 19  1  0  0  0
M  END
> <minimizedAffinity>
-7.43989

> <CNNscore>
0.4858390391

> <CNNaffinity>
5.8175821304

> <CNN_VS>
2.8264086246

> <CNNaffinity_variance>
0.0348784439

$$$$
[H]Oc1c([H])c(N2C([H])([H])C([H])([H])N([H])C([H])([H])C2([H])[H])nc2c([H])c(OC([H])([H])[H])c(-c3oc([H])nc3[H])c([H])c12


 26 29  0  0  0  0  0  0  0  0999 V2000
  153.0347  136.8703  191.7852 C   0  0  0  0  0  0  0  0  0  0  0  0
  153.5640  135.8293  191.0339 C   0  0  0  0  0  0  0  0  0  0  0  0
  154.7867  135.9507  190.4218 C   0  0  0  0  0  0  0  0  0  0  0  0
  155.3209  134.9510  189.6863 N   0  0  0  0  0  0  0  0  0  0  0  0
  156.5102  135.0423  189.0790 C   0  0  0  0  0  0  0  0  0  0  0  0
  157.2240  136.2112  189.2098 C   0  0  0  0  0  0  0  0  0  0  0  0
  156.7607  137.2943  189.9438 C   0  0  0  0  0  0  0  0  0  0  0  0
  157.4784  138.4479  190.0658 O   0  0  0  0  0  0  0  0  0  0  0  0
  155.5176  137.1327  190.5492 C   0  0  0  0  0  0  0  0  0  0  0  0
  154.9508  138.1425  191.3070 C   0  0  0  0  0  0  0  0  0  0  0  0
  153.7267  138.0547  191.9348 C   0  0  0  0  0  0  0  0  0  0  0  0
  157.2001  139.2508  190.5743 H   0  0  0  0  0  0  0  0  0  0  0  0
  157.0645  133.9880  188.3082 N   0  0  0  0  0  0  0  0  0  0  0  0
  158.0193  134.2338  187.2499 C   0  0  0  0  0  0  0  0  0  0  0  0
  158.5834  132.9280  186.7234 C   0  0  0  0  0  0  0  0  0  0  0  0
  158.9823  132.1346  187.8559 N   0  0  0  0  0  0  0  0  0  0  0  0
  157.8632  131.6945  188.6318 C   0  0  0  0  0  0  0  0  0  0  0  0
  156.6759  132.6230  188.5736 C   0  0  0  0  0  0  0  0  0  0  0  0
  159.6549  132.7132  188.4118 H   0  0  0  0  0  0  0  0  0  0  0  0
  153.1738  139.1486  192.7225 C   0  0  0  0  0  0  0  0  0  0  0  0
  153.5149  140.4805  192.6176 C   0  0  0  0  0  0  0  0  0  0  0  0
  152.7875  141.1715  193.5118 N   0  0  0  0  0  0  0  0  0  0  0  0
  152.0113  140.2927  194.1590 C   0  0  0  0  0  0  0  0  0  0  0  0
  152.2690  139.1117  193.6645 O   0  0  0  0  0  0  0  0  0  0  0  0
  151.2048  135.4995  192.6558 C   0  0  0  0  0  0  0  0  0  0  0  0
  151.7984  136.7685  192.4135 O   0  0  0  0  0  0  0  0  0  0  0  0
 25 26  1  0  0  0
 26  1  1  0  0  0
  1  2  2  0  0  0
  2  3  1  0  0  0
  3  4  2  0  0  0
  4  5  1  0  0  0
  5  6  2  0  0  0
  6  7  1  0  0  0
  7  8  1  0  0  0
  7  9  2  0  0  0
  9 10  1  0  0  0
 10 11  2  0  0  0
 11 20  1  0  0  0
 20 21  2  0  0  0
 21 22  1  0  0  0
 22 23  2  0  0  0
 23 24  1  0  0  0
  5 13  1  0  0  0
 13 14  1  0  0  0
 14 15  1  0  0  0
 15 16  1  0  0  0
 16 17  1  0  0  0
 17 18  1  0  0  0
 11  1  1  0  0  0
 24 20  1  0  0  0
 18 13  1  0  0  0
  9  3  1  0  0  0
  8 12  1  0  0  0
 16 19  1  0  0  0
M  END
> <minimizedAffinity>
0.75504

> <CNNscore>
0.4833999574

> <CNNaffinity>
5.1742525101

> <CNN_VS>
2.5012333393

> <CNNaffinity_variance>
0.4681105614

$$$$
[H]Oc1c([H])c(N2C([H])([H])C([H])([H])N([H])C([H])([H])C2([H])[H])nc2c([H])c(OC([H])([H])[H])c(-c3oc([H])nc3[H])c([H])c12


 26 29  0  0  0  0  0  0  0  0999 V2000
  153.3859  139.5035  182.8844 C   0  0  0  0  0  0  0  0  0  0  0  0
  152.4339  138.5052  182.7258 C   0  0  0  0  0  0  0  0  0  0  0  0
  151.5894  138.5002  181.6435 C   0  0  0  0  0  0  0  0  0  0  0  0
  150.6559  137.5391  181.4689 N   0  0  0  0  0  0  0  0  0  0  0  0
  149.8201  137.5098  180.4238 C   0  0  0  0  0  0  0  0  0  0  0  0
  149.9160  138.5072  179.4809 C   0  0  0  0  0  0  0  0  0  0  0  0
  150.8416  139.5376  179.5711 C   0  0  0  0  0  0  0  0  0  0  0  0
  150.9263  140.5206  178.6292 O   0  0  0  0  0  0  0  0  0  0  0  0
  151.6796  139.5079  180.6822 C   0  0  0  0  0  0  0  0  0  0  0  0
  152.6429  140.4813  180.8818 C   0  0  0  0  0  0  0  0  0  0  0  0
  153.5064  140.5170  181.9557 C   0  0  0  0  0  0  0  0  0  0  0  0
  151.5639  141.2783  178.6401 H   0  0  0  0  0  0  0  0  0  0  0  0
  148.8424  136.4970  180.2475 N   0  0  0  0  0  0  0  0  0  0  0  0
  147.5787  136.7587  179.5942 C   0  0  0  0  0  0  0  0  0  0  0  0
  146.8115  135.4687  179.3754 C   0  0  0  0  0  0  0  0  0  0  0  0
  147.7167  134.5139  178.7923 N   0  0  0  0  0  0  0  0  0  0  0  0
  148.7421  134.1098  179.7052 C   0  0  0  0  0  0  0  0  0  0  0  0
  149.0985  135.1598  180.7279 C   0  0  0  0  0  0  0  0  0  0  0  0
  148.1019  134.9509  177.9222 H   0  0  0  0  0  0  0  0  0  0  0  0
  154.5044  141.5657  182.1197 C   0  0  0  0  0  0  0  0  0  0  0  0
  154.2853  142.8233  182.6409 C   0  0  0  0  0  0  0  0  0  0  0  0
  155.4504  143.4930  182.6245 N   0  0  0  0  0  0  0  0  0  0  0  0
  156.3742  142.6736  182.1059 C   0  0  0  0  0  0  0  0  0  0  0  0
  155.7764  141.5479  181.8213 O   0  0  0  0  0  0  0  0  0  0  0  0
  154.2386  138.4843  184.9386 C   0  0  0  0  0  0  0  0  0  0  0  0
  154.2511  139.5276  183.9728 O   0  0  0  0  0  0  0  0  0  0  0  0
 25 26  1  0  0  0
 26  1  1  0  0  0
  1  2  2  0  0  0
  2  3  1  0  0  0
  3  4  2  0  0  0
  4  5  1  0  0  0
  5  6  2  0  0  0
  6  7  1  0  0  0
  7  8  1  0  0  0
  7  9  2  0  0  0
  9 10  1  0  0  0
 10 11  2  0  0  0
 11 20  1  0  0  0
 20 21  2  0  0  0
 21 22  1  0  0  0
 22 23  2  0  0  0
 23 24  1  0  0  0
  5 13  1  0  0  0
 13 14  1  0  0  0
 14 15  1  0  0  0
 15 16  1  0  0  0
 16 17  1  0  0  0
 17 18  1  0  0  0
 11  1  1  0  0  0
 24 20  1  0  0  0
 18 13  1  0  0  0
  9  3  1  0  0  0
  8 12  1  0  0  0
 16 19  1  0  0  0
M  END
> <minimizedAffinity>
-6.60623

> <CNNscore>
0.4133926928

> <CNNaffinity>
5.0894412994

> <CNN_VS>
2.1039378643

> <CNNaffinity_variance>
0.1364197731

$$$$
[H]Oc1c([H])c(N2C([H])([H])C([H])([H])N([H])C([H])([H])C2([H])[H])nc2c([H])c(OC([H])([H])[H])c(-c3oc([H])nc3[H])c([H])c12


 26 29  0  0  0  0  0  0  0  0999 V2000
  153.7099  140.1648  182.9631 C   0  0  0  0  0  0  0  0  0  0  0  0
  154.4928  139.9417  184.0881 C   0  0  0  0  0  0  0  0  0  0  0  0
  154.4125  138.7594  184.7811 C   0  0  0  0  0  0  0  0  0  0  0  0
  155.1646  138.5207  185.8780 N   0  0  0  0  0  0  0  0  0  0  0  0
  155.1066  137.3778  186.5723 C   0  0  0  0  0  0  0  0  0  0  0  0
  154.2388  136.3978  186.1486 C   0  0  0  0  0  0  0  0  0  0  0  0
  153.4250  136.5478  185.0342 C   0  0  0  0  0  0  0  0  0  0  0  0
  152.5687  135.5682  184.6246 O   0  0  0  0  0  0  0  0  0  0  0  0
  153.5351  137.7598  184.3585 C   0  0  0  0  0  0  0  0  0  0  0  0
  152.7752  138.0265  183.2330 C   0  0  0  0  0  0  0  0  0  0  0  0
  152.8303  139.2012  182.5137 C   0  0  0  0  0  0  0  0  0  0  0  0
  151.9659  135.6180  183.8405 H   0  0  0  0  0  0  0  0  0  0  0  0
  155.8997  137.1347  187.7233 N   0  0  0  0  0  0  0  0  0  0  0  0
  155.8828  138.0219  188.8656 C   0  0  0  0  0  0  0  0  0  0  0  0
  156.6719  137.4281  190.0168 C   0  0  0  0  0  0  0  0  0  0  0  0
  156.2449  136.0639  190.1834 N   0  0  0  0  0  0  0  0  0  0  0  0
  156.6350  135.2346  189.0841 C   0  0  0  0  0  0  0  0  0  0  0  0
  156.7549  135.9726  187.7741 C   0  0  0  0  0  0  0  0  0  0  0  0
  155.2076  136.0842  190.3239 H   0  0  0  0  0  0  0  0  0  0  0  0
  152.0077  139.4326  181.3337 C   0  0  0  0  0  0  0  0  0  0  0  0
  152.4619  139.5691  180.0390 C   0  0  0  0  0  0  0  0  0  0  0  0
  151.3995  139.7695  179.2407 N   0  0  0  0  0  0  0  0  0  0  0  0
  150.3088  139.7583  180.0178 C   0  0  0  0  0  0  0  0  0  0  0  0
  150.7100  139.5571  181.2443 O   0  0  0  0  0  0  0  0  0  0  0  0
  154.9140  142.2010  182.3391 C   0  0  0  0  0  0  0  0  0  0  0  0
  153.7753  141.3546  182.2465 O   0  0  0  0  0  0  0  0  0  0  0  0
 25 26  1  0  0  0
 26  1  1  0  0  0
  1  2  2  0  0  0
  2  3  1  0  0  0
  3  4  2  0  0  0
  4  5  1  0  0  0
  5  6  2  0  0  0
  6  7  1  0  0  0
  7  8  1  0  0  0
  7  9  2  0  0  0
  9 10  1  0  0  0
 10 11  2  0  0  0
 11 20  1  0  0  0
 20 21  2  0  0  0
 21 22  1  0  0  0
 22 23  2  0  0  0
 23 24  1  0  0  0
  5 13  1  0  0  0
 13 14  1  0  0  0
 14 15  1  0  0  0
 15 16  1  0  0  0
 16 17  1  0  0  0
 17 18  1  0  0  0
 11  1  1  0  0  0
 24 20  1  0  0  0
 18 13  1  0  0  0
  9  3  1  0  0  0
  8 12  1  0  0  0
 16 19  1  0  0  0
M  END
> <minimizedAffinity>
-6.06510

> <CNNscore>
0.3628285825

> <CNNaffinity>
5.0469474792

> <CNN_VS>
1.8311767578

> <CNNaffinity_variance>
0.0388050713

$$$$
[H]Oc1c([H])c(N2C([H])([H])C([H])([H])N([H])C([H])([H])C2([H])[H])nc2c([H])c(OC([H])([H])[H])c(-c3oc([H])nc3[H])c([H])c12


 26 29  0  0  0  0  0  0  0  0999 V2000
  154.6862  137.8006  185.3528 C   0  0  0  0  0  0  0  0  0  0  0  0
  154.3178  137.3074  184.1080 C   0  0  0  0  0  0  0  0  0  0  0  0
  153.8169  136.0365  183.9721 C   0  0  0  0  0  0  0  0  0  0  0  0
  153.4521  135.5360  182.7712 N   0  0  0  0  0  0  0  0  0  0  0  0
  152.9613  134.3013  182.6098 C   0  0  0  0  0  0  0  0  0  0  0  0
  152.8212  133.5022  183.7210 C   0  0  0  0  0  0  0  0  0  0  0  0
  153.1675  133.9250  184.9969 C   0  0  0  0  0  0  0  0  0  0  0  0
  153.0236  133.1227  186.0906 O   0  0  0  0  0  0  0  0  0  0  0  0
  153.6713  135.2190  185.0938 C   0  0  0  0  0  0  0  0  0  0  0  0
  154.0513  135.7527  186.3128 C   0  0  0  0  0  0  0  0  0  0  0  0
  154.5574  137.0232  186.4856 C   0  0  0  0  0  0  0  0  0  0  0  0
  153.2527  133.3686  187.0221 H   0  0  0  0  0  0  0  0  0  0  0  0
  152.5804  133.7829  181.3452 N   0  0  0  0  0  0  0  0  0  0  0  0
  153.5552  133.4483  180.3302 C   0  0  0  0  0  0  0  0  0  0  0  0
  152.8917  132.7457  179.1612 C   0  0  0  0  0  0  0  0  0  0  0  0
  152.0510  131.7064  179.6943 N   0  0  0  0  0  0  0  0  0  0  0  0
  150.9301  132.2301  180.4137 C   0  0  0  0  0  0  0  0  0  0  0  0
  151.1834  133.5766  181.0445 C   0  0  0  0  0  0  0  0  0  0  0  0
  152.6603  131.0957  180.2877 H   0  0  0  0  0  0  0  0  0  0  0  0
  154.9431  137.5381  187.7927 C   0  0  0  0  0  0  0  0  0  0  0  0
  154.1089  138.1472  188.7061 C   0  0  0  0  0  0  0  0  0  0  0  0
  154.8387  138.4792  189.7847 N   0  0  0  0  0  0  0  0  0  0  0  0
  156.0976  138.0869  189.5505 C   0  0  0  0  0  0  0  0  0  0  0  0
  156.1173  137.5371  188.3661 O   0  0  0  0  0  0  0  0  0  0  0  0
  156.3551  139.5036  184.8052 C   0  0  0  0  0  0  0  0  0  0  0  0
  155.1954  139.0845  185.5130 O   0  0  0  0  0  0  0  0  0  0  0  0
 25 26  1  0  0  0
 26  1  1  0  0  0
  1  2  2  0  0  0
  2  3  1  0  0  0
  3  4  2  0  0  0
  4  5  1  0  0  0
  5  6  2  0  0  0
  6  7  1  0  0  0
  7  8  1  0  0  0
  7  9  2  0  0  0
  9 10  1  0  0  0
 10 11  2  0  0  0
 11 20  1  0  0  0
 20 21  2  0  0  0
 21 22  1  0  0  0
 22 23  2  0  0  0
 23 24  1  0  0  0
  5 13  1  0  0  0
 13 14  1  0  0  0
 14 15  1  0  0  0
 15 16  1  0  0  0
 16 17  1  0  0  0
 17 18  1  0  0  0
 11  1  1  0  0  0
 24 20  1  0  0  0
 18 13  1  0  0  0
  9  3  1  0  0  0
  8 12  1  0  0  0
 16 19  1  0  0  0
M  END
> <minimizedAffinity>
-3.57041

> <CNNscore>
0.3089525104

> <CNNaffinity>
4.5866179466

> <CNN_VS>
1.4170471430

> <CNNaffinity_variance>
0.0873752236

$$$$
[H]c1c([H])c(C(=O)N([H])C2([H])C([H])([H])C2([H])[H])c([H])c(C([H])([H])N2C([H])([H])C([H])([H])N(c3nc([H])c4c([H])c([H])c(-c5c(C#N)nn([H])c5[H])c([H])c4c3[H])C([H])([H])C2([H])[H])c1[H]


 38 43  0  0  0  0  0  0  0  0999 V2000
  154.7614  137.4032  189.1992 N   0  0  0  0  0  0  0  0  0  0  0  0
  155.8658  137.3269  188.3157 C   0  0  0  0  0  0  0  0  0  0  0  0
  155.5065  137.0703  186.8764 C   0  0  0  0  0  0  0  0  0  0  0  0
  154.2697  137.6541  186.4810 N   0  0  0  0  0  0  0  0  0  0  0  0
  153.1546  137.4651  187.4231 C   0  0  0  0  0  0  0  0  0  0  0  0
  153.6097  138.0722  188.7230 C   0  0  0  0  0  0  0  0  0  0  0  0
  154.0507  138.3758  185.2859 C   0  0  0  0  0  0  0  0  0  0  0  0
  153.0763  138.0676  184.3882 C   0  0  0  0  0  0  0  0  0  0  0  0
  152.9128  138.8073  183.2380 C   0  0  0  0  0  0  0  0  0  0  0  0
  151.8993  138.4568  182.3418 C   0  0  0  0  0  0  0  0  0  0  0  0
  151.7035  139.1727  181.1792 C   0  0  0  0  0  0  0  0  0  0  0  0
  152.5589  140.2451  180.9546 C   0  0  0  0  0  0  0  0  0  0  0  0
  153.5625  140.6013  181.8302 C   0  0  0  0  0  0  0  0  0  0  0  0
  153.7472  139.8757  182.9909 C   0  0  0  0  0  0  0  0  0  0  0  0
  154.7343  140.1880  183.9003 C   0  0  0  0  0  0  0  0  0  0  0  0
  154.8403  139.4288  184.9993 N   0  0  0  0  0  0  0  0  0  0  0  0
  150.6516  138.8114  180.2481 C   0  0  0  0  0  0  0  0  0  0  0  0
  149.7982  137.7364  180.3343 C   0  0  0  0  0  0  0  0  0  0  0  0
  148.9685  137.7731  179.2540 N   0  0  0  0  0  0  0  0  0  0  0  0
  149.2634  138.8181  178.4999 N   0  0  0  0  0  0  0  0  0  0  0  0
  150.3020  139.4749  179.0960 C   0  0  0  0  0  0  0  0  0  0  0  0
  148.7656  139.0585  177.6171 H   0  0  0  0  0  0  0  0  0  0  0  0
  149.7402  136.7255  181.3486 C   0  0  0  0  0  0  0  0  0  0  0  0
  149.6783  135.9018  182.1563 N   0  0  0  0  0  0  0  0  0  0  0  0
  154.5610  136.3057  190.0751 C   0  0  0  0  0  0  0  0  0  0  0  0
  153.3739  136.5174  190.9636 C   0  0  0  0  0  0  0  0  0  0  0  0
  152.1826  135.8961  190.6861 C   0  0  0  0  0  0  0  0  0  0  0  0
  151.0586  136.0839  191.4988 C   0  0  0  0  0  0  0  0  0  0  0  0
  151.1586  136.9084  192.5947 C   0  0  0  0  0  0  0  0  0  0  0  0
  152.3730  137.5340  192.8666 C   0  0  0  0  0  0  0  0  0  0  0  0
  153.4703  137.3436  192.0631 C   0  0  0  0  0  0  0  0  0  0  0  0
  149.8118  135.3923  191.1503 C   0  0  0  0  0  0  0  0  0  0  0  0
  149.3265  134.2889  191.8549 N   0  0  0  0  0  0  0  0  0  0  0  0
  149.1266  135.8068  190.1590 O   0  0  0  0  0  0  0  0  0  0  0  0
  149.8545  133.9173  192.6714 H   0  0  0  0  0  0  0  0  0  0  0  0
  148.0989  133.5911  191.5298 C   0  0  0  0  0  0  0  0  0  0  0  0
  147.3603  133.1097  192.7997 C   0  0  0  0  0  0  0  0  0  0  0  0
  147.9053  132.1654  191.7896 C   0  0  0  0  0  0  0  0  0  0  0  0
 25  1  1  0  0  0
  1  2  1  0  0  0
  2  3  1  0  0  0
  3  4  1  0  0  0
  4  7  1  0  0  0
  7  8  2  0  0  0
  8  9  1  0  0  0
  9 10  2  0  0  0
 10 11  1  0  0  0
 11 17  1  0  0  0
 17 18  1  0  0  0
 18 23  1  0  0  0
 23 24  3  0  0  0
 18 19  2  0  0  0
 19 20  1  0  0  0
 20 21  1  0  0  0
 11 12  2  0  0  0
 12 13  1  0  0  0
 13 14  2  0  0  0
 14 15  1  0  0  0
 15 16  2  0  0  0
  4  5  1  0  0  0
  5  6  1  0  0  0
 25 26  1  0  0  0
 26 27  2  0  0  0
 27 28  1  0  0  0
 28 32  1  0  0  0
 32 33  1  0  0  0
 33 36  1  0  0  0
 36 37  1  0  0  0
 37 38  1  0  0  0
 32 34  2  0  0  0
 28 29  2  0  0  0
 29 30  1  0  0  0
 30 31  2  0  0  0
  6  1  1  0  0  0
 31 26  1  0  0  0
 16  7  1  0  0  0
 38 36  1  0  0  0
 14  9  1  0  0  0
 21 17  2  0  0  0
 20 22  1  0  0  0
 33 35  1  0  0  0
M  END
> <minimizedAffinity>
-7.67859

> <CNNscore>
0.3748620749

> <CNNaffinity>
5.7200808525

> <CNN_VS>
2.1442413330

> <CNNaffinity_variance>
0.0875676498

$$$$
[H]c1c([H])c(C(=O)N([H])C2([H])C([H])([H])C2([H])[H])c([H])c(C([H])([H])N2C([H])([H])C([H])([H])N(c3nc([H])c4c([H])c([H])c(-c5c(C#N)nn([H])c5[H])c([H])c4c3[H])C([H])([H])C2([H])[H])c1[H]


 38 43  0  0  0  0  0  0  0  0999 V2000
  149.8782  139.6256  180.0314 N   0  0  0  0  0  0  0  0  0  0  0  0
  149.7667  139.3403  181.4142 C   0  0  0  0  0  0  0  0  0  0  0  0
  151.0087  138.7670  182.0429 C   0  0  0  0  0  0  0  0  0  0  0  0
  152.2183  139.2575  181.4742 N   0  0  0  0  0  0  0  0  0  0  0  0
  152.2514  139.2978  180.0033 C   0  0  0  0  0  0  0  0  0  0  0  0
  151.1032  140.1798  179.5921 C   0  0  0  0  0  0  0  0  0  0  0  0
  153.3483  139.6910  182.2036 C   0  0  0  0  0  0  0  0  0  0  0  0
  154.1892  140.6713  181.7767 C   0  0  0  0  0  0  0  0  0  0  0  0
  155.2776  141.0495  182.5311 C   0  0  0  0  0  0  0  0  0  0  0  0
  156.1166  142.0612  182.0559 C   0  0  0  0  0  0  0  0  0  0  0  0
  157.2164  142.4683  182.7819 C   0  0  0  0  0  0  0  0  0  0  0  0
  157.4380  141.8243  183.9938 C   0  0  0  0  0  0  0  0  0  0  0  0
  156.6184  140.8251  184.4740 C   0  0  0  0  0  0  0  0  0  0  0  0
  155.5202  140.4274  183.7365 C   0  0  0  0  0  0  0  0  0  0  0  0
  154.6684  139.4344  184.1691 C   0  0  0  0  0  0  0  0  0  0  0  0
  153.6280  139.1135  183.3880 N   0  0  0  0  0  0  0  0  0  0  0  0
  158.0881  143.5187  182.2911 C   0  0  0  0  0  0  0  0  0  0  0  0
  158.5755  143.6651  181.0135 C   0  0  0  0  0  0  0  0  0  0  0  0
  159.3531  144.7838  180.9880 N   0  0  0  0  0  0  0  0  0  0  0  0
  159.3733  145.3408  182.1868 N   0  0  0  0  0  0  0  0  0  0  0  0
  158.5972  144.5747  183.0090 C   0  0  0  0  0  0  0  0  0  0  0  0
  159.9010  146.2090  182.4168 H   0  0  0  0  0  0  0  0  0  0  0  0
  158.3459  142.8290  179.8723 C   0  0  0  0  0  0  0  0  0  0  0  0
  158.1437  142.1486  178.9608 N   0  0  0  0  0  0  0  0  0  0  0  0
  149.1993  138.7576  179.1384 C   0  0  0  0  0  0  0  0  0  0  0  0
  148.3029  137.8049  179.8681 C   0  0  0  0  0  0  0  0  0  0  0  0
  148.7063  136.5138  180.0977 C   0  0  0  0  0  0  0  0  0  0  0  0
  147.8831  135.6046  180.7720 C   0  0  0  0  0  0  0  0  0  0  0  0
  146.6480  136.0211  181.2097 C   0  0  0  0  0  0  0  0  0  0  0  0
  146.2491  137.3340  180.9709 C   0  0  0  0  0  0  0  0  0  0  0  0
  147.0638  138.2189  180.3082 C   0  0  0  0  0  0  0  0  0  0  0  0
  148.3699  134.2367  180.9873 C   0  0  0  0  0  0  0  0  0  0  0  0
  148.3962  133.6226  182.2410 N   0  0  0  0  0  0  0  0  0  0  0  0
  148.7925  133.5627  179.9916 O   0  0  0  0  0  0  0  0  0  0  0  0
  148.0604  134.1369  183.0814 H   0  0  0  0  0  0  0  0  0  0  0  0
  148.8713  132.2743  182.4773 C   0  0  0  0  0  0  0  0  0  0  0  0
  149.2261  132.0444  183.9643 C   0  0  0  0  0  0  0  0  0  0  0  0
  150.2442  131.9779  182.8836 C   0  0  0  0  0  0  0  0  0  0  0  0
 25  1  1  0  0  0
  1  2  1  0  0  0
  2  3  1  0  0  0
  3  4  1  0  0  0
  4  7  1  0  0  0
  7  8  2  0  0  0
  8  9  1  0  0  0
  9 10  2  0  0  0
 10 11  1  0  0  0
 11 17  1  0  0  0
 17 18  1  0  0  0
 18 23  1  0  0  0
 23 24  3  0  0  0
 18 19  2  0  0  0
 19 20  1  0  0  0
 20 21  1  0  0  0
 11 12  2  0  0  0
 12 13  1  0  0  0
 13 14  2  0  0  0
 14 15  1  0  0  0
 15 16  2  0  0  0
  4  5  1  0  0  0
  5  6  1  0  0  0
 25 26  1  0  0  0
 26 27  2  0  0  0
 27 28  1  0  0  0
 28 32  1  0  0  0
 32 33  1  0  0  0
 33 36  1  0  0  0
 36 37  1  0  0  0
 37 38  1  0  0  0
 32 34  2  0  0  0
 28 29  2  0  0  0
 29 30  1  0  0  0
 30 31  2  0  0  0
  6  1  1  0  0  0
 31 26  1  0  0  0
 16  7  1  0  0  0
 38 36  1  0  0  0
 14  9  1  0  0  0
 21 17  2  0  0  0
 20 22  1  0  0  0
 33 35  1  0  0  0
M  END
> <minimizedAffinity>
-7.09158

> <CNNscore>
0.3035217226

> <CNNaffinity>
6.3672523499

> <CNN_VS>
1.9325994253

> <CNNaffinity_variance>
0.0353369191

$$$$
[H]c1c([H])c(C(=O)N([H])C2([H])C([H])([H])C2([H])[H])c([H])c(C([H])([H])N2C([H])([H])C([H])([H])N(c3nc([H])c4c([H])c([H])c(-c5c(C#N)nn([H])c5[H])c([H])c4c3[H])C([H])([H])C2([H])[H])c1[H]


 38 43  0  0  0  0  0  0  0  0999 V2000
  152.8365  137.3364  183.8442 N   0  0  0  0  0  0  0  0  0  0  0  0
  152.7323  138.0414  182.6203 C   0  0  0  0  0  0  0  0  0  0  0  0
  153.1404  139.4890  182.6886 C   0  0  0  0  0  0  0  0  0  0  0  0
  154.1915  139.7456  183.6140 N   0  0  0  0  0  0  0  0  0  0  0  0
  154.0456  139.0982  184.9278 C   0  0  0  0  0  0  0  0  0  0  0  0
  153.9639  137.6212  184.6495 C   0  0  0  0  0  0  0  0  0  0  0  0
  155.3237  140.5529  183.3627 C   0  0  0  0  0  0  0  0  0  0  0  0
  156.3132  140.7659  184.2715 C   0  0  0  0  0  0  0  0  0  0  0  0
  157.3925  141.5663  183.9695 C   0  0  0  0  0  0  0  0  0  0  0  0
  158.3873  141.7590  184.9320 C   0  0  0  0  0  0  0  0  0  0  0  0
  159.4837  142.5532  184.6679 C   0  0  0  0  0  0  0  0  0  0  0  0
  159.5404  143.1410  183.4095 C   0  0  0  0  0  0  0  0  0  0  0  0
  158.5660  142.9592  182.4512 C   0  0  0  0  0  0  0  0  0  0  0  0
  157.4735  142.1611  182.7292 C   0  0  0  0  0  0  0  0  0  0  0  0
  156.4712  141.9453  181.8084 C   0  0  0  0  0  0  0  0  0  0  0  0
  155.4486  141.1562  182.1648 N   0  0  0  0  0  0  0  0  0  0  0  0
  160.5179  142.7539  185.6649 C   0  0  0  0  0  0  0  0  0  0  0  0
  161.8615  142.4919  185.5333 C   0  0  0  0  0  0  0  0  0  0  0  0
  162.4697  142.8250  186.7063 N   0  0  0  0  0  0  0  0  0  0  0  0
  161.5707  143.2815  187.5613 N   0  0  0  0  0  0  0  0  0  0  0  0
  160.3559  143.2464  186.9380 C   0  0  0  0  0  0  0  0  0  0  0  0
  161.7947  143.6001  188.5274 H   0  0  0  0  0  0  0  0  0  0  0  0
  162.5581  141.9644  184.3971 C   0  0  0  0  0  0  0  0  0  0  0  0
  163.1283  141.5573  183.4787 N   0  0  0  0  0  0  0  0  0  0  0  0
  151.6246  137.0199  184.5098 C   0  0  0  0  0  0  0  0  0  0  0  0
  151.8518  136.0823  185.6555 C   0  0  0  0  0  0  0  0  0  0  0  0
  152.1773  136.5712  186.8954 C   0  0  0  0  0  0  0  0  0  0  0  0
  152.4000  135.7137  187.9790 C   0  0  0  0  0  0  0  0  0  0  0  0
  152.2883  134.3564  187.7890 C   0  0  0  0  0  0  0  0  0  0  0  0
  151.9575  133.8715  186.5259 C   0  0  0  0  0  0  0  0  0  0  0  0
  151.7410  134.7208  185.4687 C   0  0  0  0  0  0  0  0  0  0  0  0
  152.7455  136.2963  189.2811 C   0  0  0  0  0  0  0  0  0  0  0  0
  154.0284  136.7439  189.6027 N   0  0  0  0  0  0  0  0  0  0  0  0
  151.8418  136.4064  190.1730 O   0  0  0  0  0  0  0  0  0  0  0  0
  154.7965  136.6728  188.9038 H   0  0  0  0  0  0  0  0  0  0  0  0
  154.3923  137.3225  190.8802 C   0  0  0  0  0  0  0  0  0  0  0  0
  154.8984  138.7752  190.7276 C   0  0  0  0  0  0  0  0  0  0  0  0
  155.7678  137.6777  191.2262 C   0  0  0  0  0  0  0  0  0  0  0  0
 25  1  1  0  0  0
  1  2  1  0  0  0
  2  3  1  0  0  0
  3  4  1  0  0  0
  4  7  1  0  0  0
  7  8  2  0  0  0
  8  9  1  0  0  0
  9 10  2  0  0  0
 10 11  1  0  0  0
 11 17  1  0  0  0
 17 18  1  0  0  0
 18 23  1  0  0  0
 23 24  3  0  0  0
 18 19  2  0  0  0
 19 20  1  0  0  0
 20 21  1  0  0  0
 11 12  2  0  0  0
 12 13  1  0  0  0
 13 14  2  0  0  0
 14 15  1  0  0  0
 15 16  2  0  0  0
  4  5  1  0  0  0
  5  6  1  0  0  0
 25 26  1  0  0  0
 26 27  2  0  0  0
 27 28  1  0  0  0
 28 32  1  0  0  0
 32 33  1  0  0  0
 33 36  1  0  0  0
 36 37  1  0  0  0
 37 38  1  0  0  0
 32 34  2  0  0  0
 28 29  2  0  0  0
 29 30  1  0  0  0
 30 31  2  0  0  0
  6  1  1  0  0  0
 31 26  1  0  0  0
 16  7  1  0  0  0
 38 36  1  0  0  0
 14  9  1  0  0  0
 21 17  2  0  0  0
 20 22  1  0  0  0
 33 35  1  0  0  0
M  END
> <minimizedAffinity>
-8.42307

> <CNNscore>
0.2878014147

> <CNNaffinity>
6.6875481606

> <CNN_VS>
1.9246858358

> <CNNaffinity_variance>
0.1177803725

$$$$
[H]c1c([H])c(C(=O)N([H])C2([H])C([H])([H])C2([H])[H])c([H])c(C([H])([H])N2C([H])([H])C([H])([H])N(c3nc([H])c4c([H])c([H])c(-c5c(C#N)nn([H])c5[H])c([H])c4c3[H])C([H])([H])C2([H])[H])c1[H]


 38 43  0  0  0  0  0  0  0  0999 V2000
  154.0817  136.8867  189.9074 N   0  0  0  0  0  0  0  0  0  0  0  0
  155.2494  137.5144  189.4090 C   0  0  0  0  0  0  0  0  0  0  0  0
  155.5031  137.3013  187.9404 C   0  0  0  0  0  0  0  0  0  0  0  0
  154.3154  137.2018  187.1617 N   0  0  0  0  0  0  0  0  0  0  0  0
  153.2650  136.3371  187.7232 C   0  0  0  0  0  0  0  0  0  0  0  0
  152.9388  136.9141  189.0745 C   0  0  0  0  0  0  0  0  0  0  0  0
  154.0883  137.8545  185.9290 C   0  0  0  0  0  0  0  0  0  0  0  0
  154.8107  138.9239  185.4992 C   0  0  0  0  0  0  0  0  0  0  0  0
  154.5407  139.5207  184.2877 C   0  0  0  0  0  0  0  0  0  0  0  0
  155.3069  140.6175  183.8835 C   0  0  0  0  0  0  0  0  0  0  0  0
  155.0676  141.2424  182.6774 C   0  0  0  0  0  0  0  0  0  0  0  0
  154.0370  140.7263  181.9003 C   0  0  0  0  0  0  0  0  0  0  0  0
  153.2737  139.6453  182.2872 C   0  0  0  0  0  0  0  0  0  0  0  0
  153.5245  139.0290  183.4976 C   0  0  0  0  0  0  0  0  0  0  0  0
  152.7926  137.9455  183.9330 C   0  0  0  0  0  0  0  0  0  0  0  0
  153.1059  137.4111  185.1211 N   0  0  0  0  0  0  0  0  0  0  0  0
  155.8621  142.3802  182.2554 C   0  0  0  0  0  0  0  0  0  0  0  0
  157.1035  142.3538  181.6640 C   0  0  0  0  0  0  0  0  0  0  0  0
  157.4846  143.6416  181.4334 N   0  0  0  0  0  0  0  0  0  0  0  0
  156.5415  144.4680  181.8520 N   0  0  0  0  0  0  0  0  0  0  0  0
  155.5280  143.7092  182.3643 C   0  0  0  0  0  0  0  0  0  0  0  0
  156.6035  145.5055  181.7831 H   0  0  0  0  0  0  0  0  0  0  0  0
  157.9037  141.2140  181.3255 C   0  0  0  0  0  0  0  0  0  0  0  0
  158.5639  140.3076  181.0479 N   0  0  0  0  0  0  0  0  0  0  0  0
  154.2651  135.7409  190.7230 C   0  0  0  0  0  0  0  0  0  0  0  0
  153.4201  135.8007  191.9583 C   0  0  0  0  0  0  0  0  0  0  0  0
  153.1785  134.6635  192.6867 C   0  0  0  0  0  0  0  0  0  0  0  0
  152.3870  134.6945  193.8408 C   0  0  0  0  0  0  0  0  0  0  0  0
  151.8451  135.8916  194.2456 C   0  0  0  0  0  0  0  0  0  0  0  0
  152.0971  137.0396  193.4982 C   0  0  0  0  0  0  0  0  0  0  0  0
  152.8748  136.9991  192.3671 C   0  0  0  0  0  0  0  0  0  0  0  0
  152.1641  133.4449  194.5778 C   0  0  0  0  0  0  0  0  0  0  0  0
  152.3338  132.1809  194.0095 N   0  0  0  0  0  0  0  0  0  0  0  0
  151.7976  133.4987  195.7973 O   0  0  0  0  0  0  0  0  0  0  0  0
  152.6323  132.0908  193.0163 H   0  0  0  0  0  0  0  0  0  0  0  0
  152.1204  130.9347  194.7173 C   0  0  0  0  0  0  0  0  0  0  0  0
  153.3327  129.9850  194.5831 C   0  0  0  0  0  0  0  0  0  0  0  0
  151.9930  129.6478  194.0350 C   0  0  0  0  0  0  0  0  0  0  0  0
 25  1  1  0  0  0
  1  2  1  0  0  0
  2  3  1  0  0  0
  3  4  1  0  0  0
  4  7  1  0  0  0
  7  8  2  0  0  0
  8  9  1  0  0  0
  9 10  2  0  0  0
 10 11  1  0  0  0
 11 17  1  0  0  0
 17 18  1  0  0  0
 18 23  1  0  0  0
 23 24  3  0  0  0
 18 19  2  0  0  0
 19 20  1  0  0  0
 20 21  1  0  0  0
 11 12  2  0  0  0
 12 13  1  0  0  0
 13 14  2  0  0  0
 14 15  1  0  0  0
 15 16  2  0  0  0
  4  5  1  0  0  0
  5  6  1  0  0  0
 25 26  1  0  0  0
 26 27  2  0  0  0
 27 28  1  0  0  0
 28 32  1  0  0  0
 32 33  1  0  0  0
 33 36  1  0  0  0
 36 37  1  0  0  0
 37 38  1  0  0  0
 32 34  2  0  0  0
 28 29  2  0  0  0
 29 30  1  0  0  0
 30 31  2  0  0  0
  6  1  1  0  0  0
 31 26  1  0  0  0
 16  7  1  0  0  0
 38 36  1  0  0  0
 14  9  1  0  0  0
 21 17  2  0  0  0
 20 22  1  0  0  0
 33 35  1  0  0  0
M  END
> <minimizedAffinity>
-7.93577

> <CNNscore>
0.2801089287

> <CNNaffinity>
5.8565325737

> <CNN_VS>
1.6404670477

> <CNNaffinity_variance>
0.0304824598

$$$$
[H]c1c([H])c(C(=O)N([H])C2([H])C([H])([H])C2([H])[H])c([H])c(C([H])([H])N2C([H])([H])C([H])([H])N(c3nc([H])c4c([H])c([H])c(-c5c(C#N)nn([H])c5[H])c([H])c4c3[H])C([H])([H])C2([H])[H])c1[H]


 38 43  0  0  0  0  0  0  0  0999 V2000
  152.9686  136.4943  184.7301 N   0  0  0  0  0  0  0  0  0  0  0  0
  152.8950  136.8090  183.3511 C   0  0  0  0  0  0  0  0  0  0  0  0
  152.9151  138.2813  183.0374 C   0  0  0  0  0  0  0  0  0  0  0  0
  153.7038  139.0494  183.9402 N   0  0  0  0  0  0  0  0  0  0  0  0
  153.5096  138.7399  185.3660 C   0  0  0  0  0  0  0  0  0  0  0  0
  153.8428  137.2799  185.5170 C   0  0  0  0  0  0  0  0  0  0  0  0
  154.6262  140.0539  183.5699 C   0  0  0  0  0  0  0  0  0  0  0  0
  155.9421  140.0312  183.9135 C   0  0  0  0  0  0  0  0  0  0  0  0
  156.7935  141.0417  183.5251 C   0  0  0  0  0  0  0  0  0  0  0  0
  158.1386  140.9798  183.8994 C   0  0  0  0  0  0  0  0  0  0  0  0
  159.0227  141.9720  183.5299 C   0  0  0  0  0  0  0  0  0  0  0  0
  158.5063  143.0197  182.7762 C   0  0  0  0  0  0  0  0  0  0  0  0
  157.1818  143.0928  182.4004 C   0  0  0  0  0  0  0  0  0  0  0  0
  156.3075  142.0920  182.7772 C   0  0  0  0  0  0  0  0  0  0  0  0
  154.9744  142.1151  182.4290 C   0  0  0  0  0  0  0  0  0  0  0  0
  154.1996  141.1015  182.8385 N   0  0  0  0  0  0  0  0  0  0  0  0
  160.4194  141.9095  183.9164 C   0  0  0  0  0  0  0  0  0  0  0  0
  160.9527  142.1865  185.1534 C   0  0  0  0  0  0  0  0  0  0  0  0
  162.3008  142.0022  185.0786 N   0  0  0  0  0  0  0  0  0  0  0  0
  162.6325  141.6240  183.8560 N   0  0  0  0  0  0  0  0  0  0  0  0
  161.4838  141.5600  183.1199 C   0  0  0  0  0  0  0  0  0  0  0  0
  163.6085  141.4218  183.5535 H   0  0  0  0  0  0  0  0  0  0  0  0
  160.2705  142.5987  186.3446 C   0  0  0  0  0  0  0  0  0  0  0  0
  159.7375  142.9278  187.3152 N   0  0  0  0  0  0  0  0  0  0  0  0
  151.7807  136.0260  185.3476 C   0  0  0  0  0  0  0  0  0  0  0  0
  152.0670  135.3419  186.6490 C   0  0  0  0  0  0  0  0  0  0  0  0
  151.4812  135.7861  187.8073 C   0  0  0  0  0  0  0  0  0  0  0  0
  151.7387  135.1662  189.0356 C   0  0  0  0  0  0  0  0  0  0  0  0
  152.5961  134.0919  189.0735 C   0  0  0  0  0  0  0  0  0  0  0  0
  153.1851  133.6498  187.8912 C   0  0  0  0  0  0  0  0  0  0  0  0
  152.9264  134.2647  186.6908 C   0  0  0  0  0  0  0  0  0  0  0  0
  151.0824  135.6871  190.2407 C   0  0  0  0  0  0  0  0  0  0  0  0
  151.7844  136.1232  191.3661 N   0  0  0  0  0  0  0  0  0  0  0  0
  149.8101  135.7514  190.2778 O   0  0  0  0  0  0  0  0  0  0  0  0
  152.8247  136.0883  191.3785 H   0  0  0  0  0  0  0  0  0  0  0  0
  151.1584  136.6414  192.5657 C   0  0  0  0  0  0  0  0  0  0  0  0
  152.0505  137.6892  193.2703 C   0  0  0  0  0  0  0  0  0  0  0  0
  151.6889  136.3952  193.9058 C   0  0  0  0  0  0  0  0  0  0  0  0
 25  1  1  0  0  0
  1  2  1  0  0  0
  2  3  1  0  0  0
  3  4  1  0  0  0
  4  7  1  0  0  0
  7  8  2  0  0  0
  8  9  1  0  0  0
  9 10  2  0  0  0
 10 11  1  0  0  0
 11 17  1  0  0  0
 17 18  1  0  0  0
 18 23  1  0  0  0
 23 24  3  0  0  0
 18 19  2  0  0  0
 19 20  1  0  0  0
 20 21  1  0  0  0
 11 12  2  0  0  0
 12 13  1  0  0  0
 13 14  2  0  0  0
 14 15  1  0  0  0
 15 16  2  0  0  0
  4  5  1  0  0  0
  5  6  1  0  0  0
 25 26  1  0  0  0
 26 27  2  0  0  0
 27 28  1  0  0  0
 28 32  1  0  0  0
 32 33  1  0  0  0
 33 36  1  0  0  0
 36 37  1  0  0  0
 37 38  1  0  0  0
 32 34  2  0  0  0
 28 29  2  0  0  0
 29 30  1  0  0  0
 30 31  2  0  0  0
  6  1  1  0  0  0
 31 26  1  0  0  0
 16  7  1  0  0  0
 38 36  1  0  0  0
 14  9  1  0  0  0
 21 17  2  0  0  0
 20 22  1  0  0  0
 33 35  1  0  0  0
M  END
> <minimizedAffinity>
-7.28935

> <CNNscore>
0.2516825199

> <CNNaffinity>
6.3456392288

> <CNN_VS>
1.5970864296

> <CNNaffinity_variance>
0.0115227131

$$$$
[H]c1c([H])c(C(=O)N([H])C2([H])C([H])([H])C2([H])[H])c([H])c(C([H])([H])N2C([H])([H])C([H])([H])N(c3nc([H])c4c([H])c([H])c(-c5c(C#N)nn([H])c5[H])c([H])c4c3[H])C([H])([H])C2([H])[H])c1[H]


 38 43  0  0  0  0  0  0  0  0999 V2000
  155.3618  135.8130  189.3965 N   0  0  0  0  0  0  0  0  0  0  0  0
  155.5472  137.1873  189.6843 C   0  0  0  0  0  0  0  0  0  0  0  0
  156.2113  137.9780  188.5887 C   0  0  0  0  0  0  0  0  0  0  0  0
  155.8907  137.5235  187.2781 N   0  0  0  0  0  0  0  0  0  0  0  0
  155.9454  136.0651  187.0866 C   0  0  0  0  0  0  0  0  0  0  0  0
  154.9716  135.4854  188.0770 C   0  0  0  0  0  0  0  0  0  0  0  0
  155.5375  138.3514  186.1887 C   0  0  0  0  0  0  0  0  0  0  0  0
  156.4402  138.8674  185.3117 C   0  0  0  0  0  0  0  0  0  0  0  0
  156.0357  139.6715  184.2693 C   0  0  0  0  0  0  0  0  0  0  0  0
  156.9957  140.1813  183.3908 C   0  0  0  0  0  0  0  0  0  0  0  0
  156.6306  140.9900  182.3348 C   0  0  0  0  0  0  0  0  0  0  0  0
  155.2746  141.2639  182.1976 C   0  0  0  0  0  0  0  0  0  0  0  0
  154.3176  140.7676  183.0570 C   0  0  0  0  0  0  0  0  0  0  0  0
  154.6974  139.9587  184.1103 C   0  0  0  0  0  0  0  0  0  0  0  0
  153.7828  139.4359  184.9987 C   0  0  0  0  0  0  0  0  0  0  0  0
  154.2416  138.6611  185.9909 N   0  0  0  0  0  0  0  0  0  0  0  0
  157.6251  141.5195  181.4211 C   0  0  0  0  0  0  0  0  0  0  0  0
  158.7655  142.2158  181.7464 C   0  0  0  0  0  0  0  0  0  0  0  0
  159.4128  142.5234  180.5874 N   0  0  0  0  0  0  0  0  0  0  0  0
  158.7312  142.0527  179.5570 N   0  0  0  0  0  0  0  0  0  0  0  0
  157.6213  141.4276  180.0496 C   0  0  0  0  0  0  0  0  0  0  0  0
  159.0264  142.1627  178.5641 H   0  0  0  0  0  0  0  0  0  0  0  0
  159.2432  142.5835  183.0467 C   0  0  0  0  0  0  0  0  0  0  0  0
  159.6127  142.8700  184.1030 N   0  0  0  0  0  0  0  0  0  0  0  0
  156.2050  134.8945  190.0727 C   0  0  0  0  0  0  0  0  0  0  0  0
  157.3031  134.3953  189.1848 C   0  0  0  0  0  0  0  0  0  0  0  0
  157.1651  133.2052  188.5164 C   0  0  0  0  0  0  0  0  0  0  0  0
  158.1804  132.7163  187.6861 C   0  0  0  0  0  0  0  0  0  0  0  0
  159.3351  133.4489  187.5428 C   0  0  0  0  0  0  0  0  0  0  0  0
  159.4641  134.6557  188.2263 C   0  0  0  0  0  0  0  0  0  0  0  0
  158.4624  135.1271  189.0389 C   0  0  0  0  0  0  0  0  0  0  0  0
  157.9745  131.4364  186.9976 C   0  0  0  0  0  0  0  0  0  0  0  0
  158.1166  131.2787  185.6176 N   0  0  0  0  0  0  0  0  0  0  0  0
  157.6499  130.4090  187.6782 O   0  0  0  0  0  0  0  0  0  0  0  0
  158.3807  132.0918  185.0237 H   0  0  0  0  0  0  0  0  0  0  0  0
  157.9192  130.0260  184.9168 C   0  0  0  0  0  0  0  0  0  0  0  0
  157.6702  130.2473  183.4072 C   0  0  0  0  0  0  0  0  0  0  0  0
  156.6451  129.6530  184.3044 C   0  0  0  0  0  0  0  0  0  0  0  0
 25  1  1  0  0  0
  1  2  1  0  0  0
  2  3  1  0  0  0
  3  4  1  0  0  0
  4  7  1  0  0  0
  7  8  2  0  0  0
  8  9  1  0  0  0
  9 10  2  0  0  0
 10 11  1  0  0  0
 11 17  1  0  0  0
 17 18  1  0  0  0
 18 23  1  0  0  0
 23 24  3  0  0  0
 18 19  2  0  0  0
 19 20  1  0  0  0
 20 21  1  0  0  0
 11 12  2  0  0  0
 12 13  1  0  0  0
 13 14  2  0  0  0
 14 15  1  0  0  0
 15 16  2  0  0  0
  4  5  1  0  0  0
  5  6  1  0  0  0
 25 26  1  0  0  0
 26 27  2  0  0  0
 27 28  1  0  0  0
 28 32  1  0  0  0
 32 33  1  0  0  0
 33 36  1  0  0  0
 36 37  1  0  0  0
 37 38  1  0  0  0
 32 34  2  0  0  0
 28 29  2  0  0  0
 29 30  1  0  0  0
 30 31  2  0  0  0
  6  1  1  0  0  0
 31 26  1  0  0  0
 16  7  1  0  0  0
 38 36  1  0  0  0
 14  9  1  0  0  0
 21 17  2  0  0  0
 20 22  1  0  0  0
 33 35  1  0  0  0
M  END
> <minimizedAffinity>
-7.23992

> <CNNscore>
0.2444542199

> <CNNaffinity>
6.3928232193

> <CNN_VS>
1.5627526045

> <CNNaffinity_variance>
0.0285574701

$$$$
[H]c1c([H])c(C(=O)N([H])C2([H])C([H])([H])C2([H])[H])c([H])c(C([H])([H])N2C([H])([H])C([H])([H])N(c3nc([H])c4c([H])c([H])c(-c5c(C#N)nn([H])c5[H])c([H])c4c3[H])C([H])([H])C2([H])[H])c1[H]


 38 43  0  0  0  0  0  0  0  0999 V2000
  154.4980  136.8425  189.7275 N   0  0  0  0  0  0  0  0  0  0  0  0
  155.5877  136.6613  188.8411 C   0  0  0  0  0  0  0  0  0  0  0  0
  155.2006  136.3825  187.4132 C   0  0  0  0  0  0  0  0  0  0  0  0
  154.0036  137.0365  187.0052 N   0  0  0  0  0  0  0  0  0  0  0  0
  152.8855  136.9558  187.9592 C   0  0  0  0  0  0  0  0  0  0  0  0
  153.3912  137.5729  189.2355 C   0  0  0  0  0  0  0  0  0  0  0  0
  153.8252  137.7315  185.7878 C   0  0  0  0  0  0  0  0  0  0  0  0
  154.5769  138.8021  185.4151 C   0  0  0  0  0  0  0  0  0  0  0  0
  154.3542  139.4413  184.2157 C   0  0  0  0  0  0  0  0  0  0  0  0
  155.1493  140.5377  183.8708 C   0  0  0  0  0  0  0  0  0  0  0  0
  154.9574  141.2043  182.6786 C   0  0  0  0  0  0  0  0  0  0  0  0
  153.9439  140.7300  181.8539 C   0  0  0  0  0  0  0  0  0  0  0  0
  153.1525  139.6498  182.1821 C   0  0  0  0  0  0  0  0  0  0  0  0
  153.3558  138.9914  183.3792 C   0  0  0  0  0  0  0  0  0  0  0  0
  152.5942  137.9068  183.7567 C   0  0  0  0  0  0  0  0  0  0  0  0
  152.8619  137.3300  184.9361 N   0  0  0  0  0  0  0  0  0  0  0  0
  155.7821  142.3419  182.3181 C   0  0  0  0  0  0  0  0  0  0  0  0
  157.0571  142.3145  181.8033 C   0  0  0  0  0  0  0  0  0  0  0  0
  157.4582  143.6024  181.6102 N   0  0  0  0  0  0  0  0  0  0  0  0
  156.4955  144.4298  181.9795 N   0  0  0  0  0  0  0  0  0  0  0  0
  155.4488  143.6716  182.4208 C   0  0  0  0  0  0  0  0  0  0  0  0
  156.5670  145.4676  181.9256 H   0  0  0  0  0  0  0  0  0  0  0  0
  157.8706  141.1736  181.5019 C   0  0  0  0  0  0  0  0  0  0  0  0
  158.5398  140.2604  181.2725 N   0  0  0  0  0  0  0  0  0  0  0  0
  154.2297  135.7911  190.6409 C   0  0  0  0  0  0  0  0  0  0  0  0
  152.9656  136.0336  191.4070 C   0  0  0  0  0  0  0  0  0  0  0  0
  151.8152  135.3650  191.0727 C   0  0  0  0  0  0  0  0  0  0  0  0
  150.6211  135.5800  191.7705 C   0  0  0  0  0  0  0  0  0  0  0  0
  150.6092  136.4801  192.8099 C   0  0  0  0  0  0  0  0  0  0  0  0
  151.7830  137.1531  193.1403 C   0  0  0  0  0  0  0  0  0  0  0  0
  152.9498  136.9355  192.4495 C   0  0  0  0  0  0  0  0  0  0  0  0
  149.4229  134.8351  191.3659 C   0  0  0  0  0  0  0  0  0  0  0  0
  148.9083  133.7603  192.0936 N   0  0  0  0  0  0  0  0  0  0  0  0
  148.8102  135.1733  190.3008 O   0  0  0  0  0  0  0  0  0  0  0  0
  149.3774  133.4508  192.9698 H   0  0  0  0  0  0  0  0  0  0  0  0
  147.7275  133.0112  191.7142 C   0  0  0  0  0  0  0  0  0  0  0  0
  146.6390  133.0639  192.8106 C   0  0  0  0  0  0  0  0  0  0  0  0
  147.3029  131.7965  192.4084 C   0  0  0  0  0  0  0  0  0  0  0  0
 25  1  1  0  0  0
  1  2  1  0  0  0
  2  3  1  0  0  0
  3  4  1  0  0  0
  4  7  1  0  0  0
  7  8  2  0  0  0
  8  9  1  0  0  0
  9 10  2  0  0  0
 10 11  1  0  0  0
 11 17  1  0  0  0
 17 18  1  0  0  0
 18 23  1  0  0  0
 23 24  3  0  0  0
 18 19  2  0  0  0
 19 20  1  0  0  0
 20 21  1  0  0  0
 11 12  2  0  0  0
 12 13  1  0  0  0
 13 14  2  0  0  0
 14 15  1  0  0  0
 15 16  2  0  0  0
  4  5  1  0  0  0
  5  6  1  0  0  0
 25 26  1  0  0  0
 26 27  2  0  0  0
 27 28  1  0  0  0
 28 32  1  0  0  0
 32 33  1  0  0  0
 33 36  1  0  0  0
 36 37  1  0  0  0
 37 38  1  0  0  0
 32 34  2  0  0  0
 28 29  2  0  0  0
 29 30  1  0  0  0
 30 31  2  0  0  0
  6  1  1  0  0  0
 31 26  1  0  0  0
 16  7  1  0  0  0
 38 36  1  0  0  0
 14  9  1  0  0  0
 21 17  2  0  0  0
 20 22  1  0  0  0
 33 35  1  0  0  0
M  END
> <minimizedAffinity>
-8.20466

> <CNNscore>
0.2225765288

> <CNNaffinity>
5.9271674156

> <CNN_VS>
1.3192483187

> <CNNaffinity_variance>
0.0596815646

$$$$
[H]c1c([H])c(C(=O)N([H])C2([H])C([H])([H])C2([H])[H])c([H])c(C([H])([H])N2C([H])([H])C([H])([H])N(c3nc([H])c4c([H])c([H])c(-c5c(C#N)nn([H])c5[H])c([H])c4c3[H])C([H])([H])C2([H])[H])c1[H]


 38 43  0  0  0  0  0  0  0  0999 V2000
  155.5784  135.6043  188.2390 N   0  0  0  0  0  0  0  0  0  0  0  0
  154.1746  135.6632  188.0608 C   0  0  0  0  0  0  0  0  0  0  0  0
  153.6574  136.9824  187.5521 C   0  0  0  0  0  0  0  0  0  0  0  0
  154.5534  137.6474  186.6678 N   0  0  0  0  0  0  0  0  0  0  0  0
  155.9594  137.6788  187.1024 C   0  0  0  0  0  0  0  0  0  0  0  0
  156.3726  136.2396  187.2558 C   0  0  0  0  0  0  0  0  0  0  0  0
  154.1936  138.2580  185.4452 C   0  0  0  0  0  0  0  0  0  0  0  0
  153.1170  137.8817  184.7040 C   0  0  0  0  0  0  0  0  0  0  0  0
  152.8177  138.5135  183.5174 C   0  0  0  0  0  0  0  0  0  0  0  0
  151.7023  138.0959  182.7864 C   0  0  0  0  0  0  0  0  0  0  0  0
  151.3694  138.7034  181.5936 C   0  0  0  0  0  0  0  0  0  0  0  0
  152.1945  139.7381  181.1682 C   0  0  0  0  0  0  0  0  0  0  0  0
  153.2976  140.1597  181.8796 C   0  0  0  0  0  0  0  0  0  0  0  0
  153.6192  139.5424  183.0726 C   0  0  0  0  0  0  0  0  0  0  0  0
  154.7099  139.9238  183.8236 C   0  0  0  0  0  0  0  0  0  0  0  0
  154.9459  139.2685  184.9682 N   0  0  0  0  0  0  0  0  0  0  0  0
  150.2116  138.2722  180.8336 C   0  0  0  0  0  0  0  0  0  0  0  0
  149.7555  136.9848  180.6723 C   0  0  0  0  0  0  0  0  0  0  0  0
  148.6436  137.0303  179.8860 N   0  0  0  0  0  0  0  0  0  0  0  0
  148.3853  138.2826  179.5501 N   0  0  0  0  0  0  0  0  0  0  0  0
  149.3429  139.0682  180.1256 C   0  0  0  0  0  0  0  0  0  0  0  0
  147.5833  138.5715  178.9515 H   0  0  0  0  0  0  0  0  0  0  0  0
  150.3037  135.7732  181.2066 C   0  0  0  0  0  0  0  0  0  0  0  0
  150.7301  134.7862  181.6293 N   0  0  0  0  0  0  0  0  0  0  0  0
  156.0590  135.6197  189.5733 C   0  0  0  0  0  0  0  0  0  0  0  0
  155.3382  136.6327  190.4087 C   0  0  0  0  0  0  0  0  0  0  0  0
  154.2380  136.2675  191.1424 C   0  0  0  0  0  0  0  0  0  0  0  0
  153.5452  137.1982  191.9253 C   0  0  0  0  0  0  0  0  0  0  0  0
  153.9823  138.5015  191.9545 C   0  0  0  0  0  0  0  0  0  0  0  0
  155.1003  138.8609  191.2056 C   0  0  0  0  0  0  0  0  0  0  0  0
  155.7734  137.9405  190.4402 C   0  0  0  0  0  0  0  0  0  0  0  0
  152.3749  136.7474  192.6879 C   0  0  0  0  0  0  0  0  0  0  0  0
  152.4634  135.9056  193.7984 N   0  0  0  0  0  0  0  0  0  0  0  0
  151.2139  137.1344  192.3324 O   0  0  0  0  0  0  0  0  0  0  0  0
  153.3921  135.5658  194.1232 H   0  0  0  0  0  0  0  0  0  0  0  0
  151.3229  135.4485  194.5663 C   0  0  0  0  0  0  0  0  0  0  0  0
  151.5813  134.0659  195.2078 C   0  0  0  0  0  0  0  0  0  0  0  0
  150.5258  134.2838  194.1843 C   0  0  0  0  0  0  0  0  0  0  0  0
 25  1  1  0  0  0
  1  2  1  0  0  0
  2  3  1  0  0  0
  3  4  1  0  0  0
  4  7  1  0  0  0
  7  8  2  0  0  0
  8  9  1  0  0  0
  9 10  2  0  0  0
 10 11  1  0  0  0
 11 17  1  0  0  0
 17 18  1  0  0  0
 18 23  1  0  0  0
 23 24  3  0  0  0
 18 19  2  0  0  0
 19 20  1  0  0  0
 20 21  1  0  0  0
 11 12  2  0  0  0
 12 13  1  0  0  0
 13 14  2  0  0  0
 14 15  1  0  0  0
 15 16  2  0  0  0
  4  5  1  0  0  0
  5  6  1  0  0  0
 25 26  1  0  0  0
 26 27  2  0  0  0
 27 28  1  0  0  0
 28 32  1  0  0  0
 32 33  1  0  0  0
 33 36  1  0  0  0
 36 37  1  0  0  0
 37 38  1  0  0  0
 32 34  2  0  0  0
 28 29  2  0  0  0
 29 30  1  0  0  0
 30 31  2  0  0  0
  6  1  1  0  0  0
 31 26  1  0  0  0
 16  7  1  0  0  0
 38 36  1  0  0  0
 14  9  1  0  0  0
 21 17  2  0  0  0
 20 22  1  0  0  0
 33 35  1  0  0  0
M  END
> <minimizedAffinity>
-7.32498

> <CNNscore>
0.2010914683

> <CNNaffinity>
5.6444272995

> <CNN_VS>
1.1350461245

> <CNNaffinity_variance>
0.0960112661

$$$$
[H]c1c([H])c(C(=O)N([H])C2([H])C([H])([H])C2([H])[H])c([H])c(C([H])([H])N2C([H])([H])C([H])([H])N(c3nc([H])c4c([H])c([H])c(-c5c(C#N)nn([H])c5[H])c([H])c4c3[H])C([H])([H])C2([H])[H])c1[H]


 38 43  0  0  0  0  0  0  0  0999 V2000
  154.6826  138.3896  186.6889 N   0  0  0  0  0  0  0  0  0  0  0  0
  153.2845  138.2835  186.8891 C   0  0  0  0  0  0  0  0  0  0  0  0
  152.8517  137.0945  187.7048 C   0  0  0  0  0  0  0  0  0  0  0  0
  153.7836  136.7218  188.7146 N   0  0  0  0  0  0  0  0  0  0  0  0
  155.1915  136.6788  188.2871 C   0  0  0  0  0  0  0  0  0  0  0  0
  155.5102  138.0627  187.7884 C   0  0  0  0  0  0  0  0  0  0  0  0
  153.4566  136.4008  190.0514 C   0  0  0  0  0  0  0  0  0  0  0  0
  153.1931  135.1368  190.4792 C   0  0  0  0  0  0  0  0  0  0  0  0
  152.8770  134.8858  191.7960 C   0  0  0  0  0  0  0  0  0  0  0  0
  152.6131  133.5725  192.1942 C   0  0  0  0  0  0  0  0  0  0  0  0
  152.2930  133.2803  193.5037 C   0  0  0  0  0  0  0  0  0  0  0  0
  152.2490  134.3507  194.3895 C   0  0  0  0  0  0  0  0  0  0  0  0
  152.5071  135.6507  194.0098 C   0  0  0  0  0  0  0  0  0  0  0  0
  152.8265  135.9289  192.6951 C   0  0  0  0  0  0  0  0  0  0  0  0
  153.0935  137.2094  192.2617 C   0  0  0  0  0  0  0  0  0  0  0  0
  153.3945  137.3859  190.9680 N   0  0  0  0  0  0  0  0  0  0  0  0
  152.0197  131.9178  193.9194 C   0  0  0  0  0  0  0  0  0  0  0  0
  150.8026  131.2775  193.9208 C   0  0  0  0  0  0  0  0  0  0  0  0
  150.9963  130.0116  194.3865 N   0  0  0  0  0  0  0  0  0  0  0  0
  152.2740  129.8327  194.6749 N   0  0  0  0  0  0  0  0  0  0  0  0
  152.9260  130.9994  194.3934 C   0  0  0  0  0  0  0  0  0  0  0  0
  152.6680  128.9435  195.0478 H   0  0  0  0  0  0  0  0  0  0  0  0
  149.5264  131.7912  193.5188 C   0  0  0  0  0  0  0  0  0  0  0  0
  148.5035  132.2039  193.1754 N   0  0  0  0  0  0  0  0  0  0  0  0
  155.1720  138.0852  185.3929 C   0  0  0  0  0  0  0  0  0  0  0  0
  154.4909  138.9028  184.3388 C   0  0  0  0  0  0  0  0  0  0  0  0
  153.4042  138.4007  183.6687 C   0  0  0  0  0  0  0  0  0  0  0  0
  152.7556  139.1442  182.6759 C   0  0  0  0  0  0  0  0  0  0  0  0
  153.2228  140.4013  182.3724 C   0  0  0  0  0  0  0  0  0  0  0  0
  154.3268  140.9008  183.0591 C   0  0  0  0  0  0  0  0  0  0  0  0
  154.9566  140.1636  184.0316 C   0  0  0  0  0  0  0  0  0  0  0  0
  151.5983  138.5530  181.9937 C   0  0  0  0  0  0  0  0  0  0  0  0
  151.2811  138.8146  180.6593 N   0  0  0  0  0  0  0  0  0  0  0  0
  150.8355  137.7599  182.6365 O   0  0  0  0  0  0  0  0  0  0  0  0
  151.8773  139.4565  180.0972 H   0  0  0  0  0  0  0  0  0  0  0  0
  150.1451  138.2425  179.9654 C   0  0  0  0  0  0  0  0  0  0  0  0
  149.6240  139.1787  178.8510 C   0  0  0  0  0  0  0  0  0  0  0  0
  148.8024  138.8170  180.0356 C   0  0  0  0  0  0  0  0  0  0  0  0
 25  1  1  0  0  0
  1  2  1  0  0  0
  2  3  1  0  0  0
  3  4  1  0  0  0
  4  7  1  0  0  0
  7  8  2  0  0  0
  8  9  1  0  0  0
  9 10  2  0  0  0
 10 11  1  0  0  0
 11 17  1  0  0  0
 17 18  1  0  0  0
 18 23  1  0  0  0
 23 24  3  0  0  0
 18 19  2  0  0  0
 19 20  1  0  0  0
 20 21  1  0  0  0
 11 12  2  0  0  0
 12 13  1  0  0  0
 13 14  2  0  0  0
 14 15  1  0  0  0
 15 16  2  0  0  0
  4  5  1  0  0  0
  5  6  1  0  0  0
 25 26  1  0  0  0
 26 27  2  0  0  0
 27 28  1  0  0  0
 28 32  1  0  0  0
 32 33  1  0  0  0
 33 36  1  0  0  0
 36 37  1  0  0  0
 37 38  1  0  0  0
 32 34  2  0  0  0
 28 29  2  0  0  0
 29 30  1  0  0  0
 30 31  2  0  0  0
  6  1  1  0  0  0
 31 26  1  0  0  0
 16  7  1  0  0  0
 38 36  1  0  0  0
 14  9  1  0  0  0
 21 17  2  0  0  0
 20 22  1  0  0  0
 33 35  1  0  0  0
M  END
> <minimizedAffinity>
-6.60645

> <CNNscore>
0.1970755011

> <CNNaffinity>
5.5957565308

> <CNN_VS>
1.1027865410

> <CNNaffinity_variance>
0.0541876070

$$$$
[H]OC(=O)[C@]1([H])O[C@@]([H])(n2c([H])nc3c(N([H])[H])nc([H])nc32)[C@]([H])(O[H])[C@]1([H])O[H]


 25 27  0  0  0  0  0  0  0  0999 V2000
  158.3998  142.5240  181.8963 C   0  0  0  0  0  0  0  0  0  0  0  0
  159.0125  141.4716  182.5473 O   0  0  0  0  0  0  0  0  0  0  0  0
  158.2899  141.1817  183.6799 C   0  0  0  0  0  0  0  0  0  0  0  0
  156.9430  141.8405  183.5586 C   0  0  0  0  0  0  0  0  0  0  0  0
  155.9026  140.9784  183.9007 O   0  0  0  0  0  0  0  0  0  0  0  0
  156.9200  142.1588  182.0755 C   0  0  0  0  0  0  0  0  0  0  0  0
  156.6469  140.9827  181.3804 O   0  0  0  0  0  0  0  0  0  0  0  0
  155.1867  141.5573  184.2984 H   0  0  0  0  0  0  0  0  0  0  0  0
  156.5877  140.2011  181.9881 H   0  0  0  0  0  0  0  0  0  0  0  0
  159.0260  141.6623  184.8378 N   0  0  0  0  0  0  0  0  0  0  0  0
  158.5821  142.0158  186.0381 C   0  0  0  0  0  0  0  0  0  0  0  0
  159.6482  142.3955  186.7812 N   0  0  0  0  0  0  0  0  0  0  0  0
  160.7675  142.2796  186.0432 C   0  0  0  0  0  0  0  0  0  0  0  0
  162.0936  142.5228  186.2921 C   0  0  0  0  0  0  0  0  0  0  0  0
  162.4932  143.0077  187.5815 N   0  0  0  0  0  0  0  0  0  0  0  0
  162.9867  142.3040  185.3304 N   0  0  0  0  0  0  0  0  0  0  0  0
  162.5928  141.8491  184.1272 C   0  0  0  0  0  0  0  0  0  0  0  0
  161.3089  141.6099  183.8757 N   0  0  0  0  0  0  0  0  0  0  0  0
  160.3715  141.8137  184.8089 C   0  0  0  0  0  0  0  0  0  0  0  0
  163.2066  143.7578  187.6816 H   0  0  0  0  0  0  0  0  0  0  0  0
  162.0215  142.5579  188.3951 H   0  0  0  0  0  0  0  0  0  0  0  0
  158.7141  141.4592  179.7117 O   0  0  0  0  0  0  0  0  0  0  0  0
  158.7768  142.6192  180.4831 C   0  0  0  0  0  0  0  0  0  0  0  0
  159.1535  143.6914  179.9301 O   0  0  0  0  0  0  0  0  0  0  0  0
  157.7957  141.0297  179.5191 H   0  0  0  0  0  0  0  0  0  0  0  0
 22 23  1  0  0  0
 23 24  2  0  0  0
 23  1  1  0  0  0
  1  2  1  0  0  0
  2  3  1  0  0  0
  3  4  1  0  0  0
  4  5  1  0  0  0
  4  6  1  0  0  0
  6  7  1  0  0  0
  3 10  1  0  0  0
 10 11  1  0  0  0
 11 12  2  0  0  0
 12 13  1  0  0  0
 13 14  2  0  0  0
 14 15  1  0  0  0
 14 16  1  0  0  0
 16 17  2  0  0  0
 17 18  1  0  0  0
 18 19  2  0  0  0
  6  1  1  0  0  0
 19 10  1  0  0  0
 19 13  1  0  0  0
 22 25  1  0  0  0
  5  8  1  0  0  0
  7  9  1  0  0  0
 15 20  1  0  0  0
 15 21  1  0  0  0
M  END
> <minimizedAffinity>
-7.66175

> <CNNscore>
0.4472302496

> <CNNaffinity>
4.9789457321

> <CNN_VS>
2.2267351151

> <CNNaffinity_variance>
0.4670616984

$$$$
[H]OC(=O)[C@]1([H])O[C@@]([H])(n2c([H])nc3c(N([H])[H])nc([H])nc32)[C@]([H])(O[H])[C@]1([H])O[H]


 25 27  0  0  0  0  0  0  0  0999 V2000
  156.5653  142.0922  183.2579 C   0  0  0  0  0  0  0  0  0  0  0  0
  157.8460  142.5761  183.0778 O   0  0  0  0  0  0  0  0  0  0  0  0
  158.7362  141.5831  183.4102 C   0  0  0  0  0  0  0  0  0  0  0  0
  157.9882  140.2789  183.4571 C   0  0  0  0  0  0  0  0  0  0  0  0
  158.6633  139.2604  182.7864 O   0  0  0  0  0  0  0  0  0  0  0  0
  156.7147  140.6603  182.7263 C   0  0  0  0  0  0  0  0  0  0  0  0
  156.9899  140.7008  181.3611 O   0  0  0  0  0  0  0  0  0  0  0  0
  158.4356  138.4138  183.2735 H   0  0  0  0  0  0  0  0  0  0  0  0
  157.9495  140.5338  181.1738 H   0  0  0  0  0  0  0  0  0  0  0  0
  159.3395  141.9084  184.6923 N   0  0  0  0  0  0  0  0  0  0  0  0
  158.7638  142.1396  185.8661 C   0  0  0  0  0  0  0  0  0  0  0  0
  159.7417  142.4006  186.7653 N   0  0  0  0  0  0  0  0  0  0  0  0
  160.9378  142.3329  186.1524 C   0  0  0  0  0  0  0  0  0  0  0  0
  162.2296  142.5054  186.5781 C   0  0  0  0  0  0  0  0  0  0  0  0
  162.4833  142.8308  187.9518 N   0  0  0  0  0  0  0  0  0  0  0  0
  163.2256  142.3674  185.7067 N   0  0  0  0  0  0  0  0  0  0  0  0
  162.9679  142.0620  184.4222 C   0  0  0  0  0  0  0  0  0  0  0  0
  161.7184  141.8925  183.9992 N   0  0  0  0  0  0  0  0  0  0  0  0
  160.6815  142.0201  184.8356 C   0  0  0  0  0  0  0  0  0  0  0  0
  163.1933  143.5425  188.2184 H   0  0  0  0  0  0  0  0  0  0  0  0
  161.9111  142.3080  188.6490 H   0  0  0  0  0  0  0  0  0  0  0  0
  155.8711  144.1592  182.1396 O   0  0  0  0  0  0  0  0  0  0  0  0
  155.5568  142.8535  182.5151 C   0  0  0  0  0  0  0  0  0  0  0  0
  154.4239  142.3914  182.1989 O   0  0  0  0  0  0  0  0  0  0  0  0
  156.6175  144.3192  181.4452 H   0  0  0  0  0  0  0  0  0  0  0  0
 22 23  1  0  0  0
 23 24  2  0  0  0
 23  1  1  0  0  0
  1  2  1  0  0  0
  2  3  1  0  0  0
  3  4  1  0  0  0
  4  5  1  0  0  0
  4  6  1  0  0  0
  6  7  1  0  0  0
  3 10  1  0  0  0
 10 11  1  0  0  0
 11 12  2  0  0  0
 12 13  1  0  0  0
 13 14  2  0  0  0
 14 15  1  0  0  0
 14 16  1  0  0  0
 16 17  2  0  0  0
 17 18  1  0  0  0
 18 19  2  0  0  0
  6  1  1  0  0  0
 19 10  1  0  0  0
 19 13  1  0  0  0
 22 25  1  0  0  0
  5  8  1  0  0  0
  7  9  1  0  0  0
 15 20  1  0  0  0
 15 21  1  0  0  0
M  END
> <minimizedAffinity>
-7.08738

> <CNNscore>
0.4263231158

> <CNNaffinity>
4.7212171555

> <CNN_VS>
2.0127639771

> <CNNaffinity_variance>
0.4017175734

$$$$
[H]OC(=O)[C@]1([H])O[C@@]([H])(n2c([H])nc3c(N([H])[H])nc([H])nc32)[C@]([H])(O[H])[C@]1([H])O[H]


 25 27  0  0  0  0  0  0  0  0999 V2000
  154.3709  141.1801  182.0556 C   0  0  0  0  0  0  0  0  0  0  0  0
  153.0100  141.3269  182.2374 O   0  0  0  0  0  0  0  0  0  0  0  0
  152.4460  140.0765  182.3236 C   0  0  0  0  0  0  0  0  0  0  0  0
  153.5461  139.0819  182.5750 C   0  0  0  0  0  0  0  0  0  0  0  0
  153.2238  138.1864  183.5934 O   0  0  0  0  0  0  0  0  0  0  0  0
  154.6691  140.0087  183.0012 C   0  0  0  0  0  0  0  0  0  0  0  0
  154.4335  140.4047  184.3159 O   0  0  0  0  0  0  0  0  0  0  0  0
  153.6788  137.3251  183.3550 H   0  0  0  0  0  0  0  0  0  0  0  0
  153.5726  140.0507  184.6585 H   0  0  0  0  0  0  0  0  0  0  0  0
  151.7369  139.7989  181.0852 N   0  0  0  0  0  0  0  0  0  0  0  0
  152.1031  140.0254  179.8293 C   0  0  0  0  0  0  0  0  0  0  0  0
  151.1064  139.5944  179.0208 N   0  0  0  0  0  0  0  0  0  0  0  0
  150.1091  139.0947  179.7735 C   0  0  0  0  0  0  0  0  0  0  0  0
  148.8911  138.5375  179.4804 C   0  0  0  0  0  0  0  0  0  0  0  0
  148.4848  138.4074  178.1109 N   0  0  0  0  0  0  0  0  0  0  0  0
  148.1075  138.1271  180.4743 N   0  0  0  0  0  0  0  0  0  0  0  0
  148.5057  138.2575  181.7525 C   0  0  0  0  0  0  0  0  0  0  0  0
  149.6853  138.7965  182.0475 N   0  0  0  0  0  0  0  0  0  0  0  0
  150.5104  139.2249  181.0847 C   0  0  0  0  0  0  0  0  0  0  0  0
  147.5121  138.6211  177.8112 H   0  0  0  0  0  0  0  0  0  0  0  0
  149.2268  138.0880  177.4520 H   0  0  0  0  0  0  0  0  0  0  0  0
  156.4126  142.2158  182.9296 O   0  0  0  0  0  0  0  0  0  0  0  0
  155.1284  142.3831  182.4126 C   0  0  0  0  0  0  0  0  0  0  0  0
  154.6813  143.5574  182.2771 O   0  0  0  0  0  0  0  0  0  0  0  0
  157.1550  141.8324  182.3239 H   0  0  0  0  0  0  0  0  0  0  0  0
 22 23  1  0  0  0
 23 24  2  0  0  0
 23  1  1  0  0  0
  1  2  1  0  0  0
  2  3  1  0  0  0
  3  4  1  0  0  0
  4  5  1  0  0  0
  4  6  1  0  0  0
  6  7  1  0  0  0
  3 10  1  0  0  0
 10 11  1  0  0  0
 11 12  2  0  0  0
 12 13  1  0  0  0
 13 14  2  0  0  0
 14 15  1  0  0  0
 14 16  1  0  0  0
 16 17  2  0  0  0
 17 18  1  0  0  0
 18 19  2  0  0  0
  6  1  1  0  0  0
 19 10  1  0  0  0
 19 13  1  0  0  0
 22 25  1  0  0  0
  5  8  1  0  0  0
  7  9  1  0  0  0
 15 20  1  0  0  0
 15 21  1  0  0  0
M  END
> <minimizedAffinity>
-4.95484

> <CNNscore>
0.4172066450

> <CNNaffinity>
4.0266995430

> <CNN_VS>
1.6799658537

> <CNNaffinity_variance>
0.0392954685

$$$$
[H]OC(=O)[C@]1([H])O[C@@]([H])(n2c([H])nc3c(N([H])[H])nc([H])nc32)[C@]([H])(O[H])[C@]1([H])O[H]


 25 27  0  0  0  0  0  0  0  0999 V2000
  152.9612  137.2026  185.1930 C   0  0  0  0  0  0  0  0  0  0  0  0
  152.6831  138.0862  186.2171 O   0  0  0  0  0  0  0  0  0  0  0  0
  153.8201  138.2475  186.9723 C   0  0  0  0  0  0  0  0  0  0  0  0
  154.9873  137.7243  186.1806 C   0  0  0  0  0  0  0  0  0  0  0  0
  156.0718  138.5997  186.2006 O   0  0  0  0  0  0  0  0  0  0  0  0
  154.3743  137.6495  184.7949 C   0  0  0  0  0  0  0  0  0  0  0  0
  154.3205  138.9392  184.2708 O   0  0  0  0  0  0  0  0  0  0  0  0
  156.8905  138.0228  186.1503 H   0  0  0  0  0  0  0  0  0  0  0  0
  154.6320  139.6160  184.9255 H   0  0  0  0  0  0  0  0  0  0  0  0
  153.6516  137.5320  188.2266 N   0  0  0  0  0  0  0  0  0  0  0  0
  152.6387  136.7833  188.6463 C   0  0  0  0  0  0  0  0  0  0  0  0
  152.9428  136.3276  189.8844 N   0  0  0  0  0  0  0  0  0  0  0  0
  154.1533  136.7928  190.2436 C   0  0  0  0  0  0  0  0  0  0  0  0
  154.9282  136.6458  191.3651 C   0  0  0  0  0  0  0  0  0  0  0  0
  154.4487  135.8466  192.4554 N   0  0  0  0  0  0  0  0  0  0  0  0
  156.1129  137.2488  191.4208 N   0  0  0  0  0  0  0  0  0  0  0  0
  156.5457  137.9944  190.3882 C   0  0  0  0  0  0  0  0  0  0  0  0
  155.8017  138.1432  189.2957 N   0  0  0  0  0  0  0  0  0  0  0  0
  154.6029  137.5577  189.1900 C   0  0  0  0  0  0  0  0  0  0  0  0
  154.5654  136.1507  193.4431 H   0  0  0  0  0  0  0  0  0  0  0  0
  153.9827  134.9539  192.1855 H   0  0  0  0  0  0  0  0  0  0  0  0
  150.6575  137.1622  184.3584 O   0  0  0  0  0  0  0  0  0  0  0  0
  152.0160  137.3048  184.0775 C   0  0  0  0  0  0  0  0  0  0  0  0
  152.3655  137.5142  182.8812 O   0  0  0  0  0  0  0  0  0  0  0  0
  150.1821  137.8779  184.9299 H   0  0  0  0  0  0  0  0  0  0  0  0
 22 23  1  0  0  0
 23 24  2  0  0  0
 23  1  1  0  0  0
  1  2  1  0  0  0
  2  3  1  0  0  0
  3  4  1  0  0  0
  4  5  1  0  0  0
  4  6  1  0  0  0
  6  7  1  0  0  0
  3 10  1  0  0  0
 10 11  1  0  0  0
 11 12  2  0  0  0
 12 13  1  0  0  0
 13 14  2  0  0  0
 14 15  1  0  0  0
 14 16  1  0  0  0
 16 17  2  0  0  0
 17 18  1  0  0  0
 18 19  2  0  0  0
  6  1  1  0  0  0
 19 10  1  0  0  0
 19 13  1  0  0  0
 22 25  1  0  0  0
  5  8  1  0  0  0
  7  9  1  0  0  0
 15 20  1  0  0  0
 15 21  1  0  0  0
M  END
> <minimizedAffinity>
-4.23081

> <CNNscore>
0.3934501410

> <CNNaffinity>
3.7639384270

> <CNN_VS>
1.4809221029

> <CNNaffinity_variance>
0.1137343198

$$$$
[H]OC(=O)[C@]1([H])O[C@@]([H])(n2c([H])nc3c(N([H])[H])nc([H])nc32)[C@]([H])(O[H])[C@]1([H])O[H]


 25 27  0  0  0  0  0  0  0  0999 V2000
  154.3326  137.7486  185.0183 C   0  0  0  0  0  0  0  0  0  0  0  0
  153.0300  138.1770  184.8559 O   0  0  0  0  0  0  0  0  0  0  0  0
  152.4744  137.4886  183.8040 C   0  0  0  0  0  0  0  0  0  0  0  0
  153.3463  136.2988  183.5091 C   0  0  0  0  0  0  0  0  0  0  0  0
  152.6044  135.1302  183.3449 O   0  0  0  0  0  0  0  0  0  0  0  0
  154.1785  136.2410  184.7762 C   0  0  0  0  0  0  0  0  0  0  0  0
  153.3964  135.6882  185.7878 O   0  0  0  0  0  0  0  0  0  0  0  0
  153.1106  134.5755  182.6801 H   0  0  0  0  0  0  0  0  0  0  0  0
  152.4693  135.5123  185.4820 H   0  0  0  0  0  0  0  0  0  0  0  0
  152.3743  138.3835  182.6626 N   0  0  0  0  0  0  0  0  0  0  0  0
  153.1287  139.4250  182.3329 C   0  0  0  0  0  0  0  0  0  0  0  0
  152.6423  139.9433  181.1807 N   0  0  0  0  0  0  0  0  0  0  0  0
  151.5768  139.2231  180.7850 C   0  0  0  0  0  0  0  0  0  0  0  0
  150.7248  139.3051  179.7138 C   0  0  0  0  0  0  0  0  0  0  0  0
  150.9121  140.3413  178.7399 N   0  0  0  0  0  0  0  0  0  0  0  0
  149.7383  138.4199  179.5981 N   0  0  0  0  0  0  0  0  0  0  0  0
  149.5785  137.4550  180.5217 C   0  0  0  0  0  0  0  0  0  0  0  0
  150.3995  137.3667  181.5644 N   0  0  0  0  0  0  0  0  0  0  0  0
  151.4071  138.2324  181.7268 C   0  0  0  0  0  0  0  0  0  0  0  0
  150.1059  140.8660  178.3444 H   0  0  0  0  0  0  0  0  0  0  0  0
  151.9009  140.5240  178.4647 H   0  0  0  0  0  0  0  0  0  0  0  0
  156.2187  138.3750  186.4520 O   0  0  0  0  0  0  0  0  0  0  0  0
  154.8686  138.0409  186.3509 C   0  0  0  0  0  0  0  0  0  0  0  0
  154.1753  138.0063  187.4069 O   0  0  0  0  0  0  0  0  0  0  0  0
  156.5526  139.2591  186.0374 H   0  0  0  0  0  0  0  0  0  0  0  0
 22 23  1  0  0  0
 23 24  2  0  0  0
 23  1  1  0  0  0
  1  2  1  0  0  0
  2  3  1  0  0  0
  3  4  1  0  0  0
  4  5  1  0  0  0
  4  6  1  0  0  0
  6  7  1  0  0  0
  3 10  1  0  0  0
 10 11  1  0  0  0
 11 12  2  0  0  0
 12 13  1  0  0  0
 13 14  2  0  0  0
 14 15  1  0  0  0
 14 16  1  0  0  0
 16 17  2  0  0  0
 17 18  1  0  0  0
 18 19  2  0  0  0
  6  1  1  0  0  0
 19 10  1  0  0  0
 19 13  1  0  0  0
 22 25  1  0  0  0
  5  8  1  0  0  0
  7  9  1  0  0  0
 15 20  1  0  0  0
 15 21  1  0  0  0
M  END
> <minimizedAffinity>
-4.39140

> <CNNscore>
0.3853242993

> <CNNaffinity>
3.5251336098

> <CNN_VS>
1.3583196402

> <CNNaffinity_variance>
0.1702523530

$$$$
[H]OC(=O)[C@]1([H])O[C@@]([H])(n2c([H])nc3c(N([H])[H])nc([H])nc32)[C@]([H])(O[H])[C@]1([H])O[H]


 25 27  0  0  0  0  0  0  0  0999 V2000
  158.7341  142.3294  181.1315 C   0  0  0  0  0  0  0  0  0  0  0  0
  159.2598  141.1820  181.6918 O   0  0  0  0  0  0  0  0  0  0  0  0
  159.0286  141.2149  183.0462 C   0  0  0  0  0  0  0  0  0  0  0  0
  157.9822  142.2607  183.3184 C   0  0  0  0  0  0  0  0  0  0  0  0
  156.9927  141.8020  184.1864 O   0  0  0  0  0  0  0  0  0  0  0  0
  157.4265  142.4702  181.9224 C   0  0  0  0  0  0  0  0  0  0  0  0
  156.5869  141.4001  181.6212 O   0  0  0  0  0  0  0  0  0  0  0  0
  156.6904  142.6049  184.7059 H   0  0  0  0  0  0  0  0  0  0  0  0
  156.5823  140.7209  182.3441 H   0  0  0  0  0  0  0  0  0  0  0  0
  160.2797  141.5103  183.7252 N   0  0  0  0  0  0  0  0  0  0  0  0
  161.5285  141.3967  183.2893 C   0  0  0  0  0  0  0  0  0  0  0  0
  162.3551  141.7927  184.2857 N   0  0  0  0  0  0  0  0  0  0  0  0
  161.6209  142.1570  185.3530 C   0  0  0  0  0  0  0  0  0  0  0  0
  161.9362  142.6268  186.6019 C   0  0  0  0  0  0  0  0  0  0  0  0
  163.3127  142.8096  186.9612 N   0  0  0  0  0  0  0  0  0  0  0  0
  160.9569  142.9047  187.4586 N   0  0  0  0  0  0  0  0  0  0  0  0
  159.6717  142.7268  187.1035 C   0  0  0  0  0  0  0  0  0  0  0  0
  159.3552  142.2717  185.8945 N   0  0  0  0  0  0  0  0  0  0  0  0
  160.3026  141.9773  184.9962 C   0  0  0  0  0  0  0  0  0  0  0  0
  163.6698  142.5340  187.8983 H   0  0  0  0  0  0  0  0  0  0  0  0
  163.9160  143.2323  186.2235 H   0  0  0  0  0  0  0  0  0  0  0  0
  157.6527  141.1831  179.2549 O   0  0  0  0  0  0  0  0  0  0  0  0
  158.4960  142.2047  179.6906 C   0  0  0  0  0  0  0  0  0  0  0  0
  159.0119  142.9701  178.8274 O   0  0  0  0  0  0  0  0  0  0  0  0
  156.6503  141.2178  179.4974 H   0  0  0  0  0  0  0  0  0  0  0  0
 22 23  1  0  0  0
 23 24  2  0  0  0
 23  1  1  0  0  0
  1  2  1  0  0  0
  2  3  1  0  0  0
  3  4  1  0  0  0
  4  5  1  0  0  0
  4  6  1  0  0  0
  6  7  1  0  0  0
  3 10  1  0  0  0
 10 11  1  0  0  0
 11 12  2  0  0  0
 12 13  1  0  0  0
 13 14  2  0  0  0
 14 15  1  0  0  0
 14 16  1  0  0  0
 16 17  2  0  0  0
 17 18  1  0  0  0
 18 19  2  0  0  0
  6  1  1  0  0  0
 19 10  1  0  0  0
 19 13  1  0  0  0
 22 25  1  0  0  0
  5  8  1  0  0  0
  7  9  1  0  0  0
 15 20  1  0  0  0
 15 21  1  0  0  0
M  END
> <minimizedAffinity>
-7.49692

> <CNNscore>
0.3588666618

> <CNNaffinity>
4.9980473518

> <CNN_VS>
1.7936326265

> <CNNaffinity_variance>
0.5091739893

$$$$
[H]OC(=O)[C@]1([H])O[C@@]([H])(n2c([H])nc3c(N([H])[H])nc([H])nc32)[C@]([H])(O[H])[C@]1([H])O[H]


 25 27  0  0  0  0  0  0  0  0999 V2000
  157.5965  140.5356  183.2781 C   0  0  0  0  0  0  0  0  0  0  0  0
  157.9938  141.6171  184.0393 O   0  0  0  0  0  0  0  0  0  0  0  0
  158.8620  142.3777  183.2932 C   0  0  0  0  0  0  0  0  0  0  0  0
  158.7323  141.9615  181.8535 C   0  0  0  0  0  0  0  0  0  0  0  0
  158.6365  143.0559  180.9956 O   0  0  0  0  0  0  0  0  0  0  0  0
  157.4257  141.1921  181.9015 C   0  0  0  0  0  0  0  0  0  0  0  0
  156.3795  142.1105  181.9542 O   0  0  0  0  0  0  0  0  0  0  0  0
  159.0708  142.7704  180.1379 H   0  0  0  0  0  0  0  0  0  0  0  0
  156.7112  143.0438  182.0079 H   0  0  0  0  0  0  0  0  0  0  0  0
  160.2105  142.1743  183.7969 N   0  0  0  0  0  0  0  0  0  0  0  0
  161.2611  141.6169  183.2069 C   0  0  0  0  0  0  0  0  0  0  0  0
  162.2973  141.6567  184.0773 N   0  0  0  0  0  0  0  0  0  0  0  0
  161.8948  142.2423  185.2200 C   0  0  0  0  0  0  0  0  0  0  0  0
  162.5206  142.5338  186.4046 C   0  0  0  0  0  0  0  0  0  0  0  0
  163.9014  142.1866  186.5784 N   0  0  0  0  0  0  0  0  0  0  0  0
  161.8334  143.1347  187.3726 N   0  0  0  0  0  0  0  0  0  0  0  0
  160.5389  143.4526  187.1911 C   0  0  0  0  0  0  0  0  0  0  0  0
  159.9227  143.1742  186.0458 N   0  0  0  0  0  0  0  0  0  0  0  0
  160.5691  142.5709  185.0412 C   0  0  0  0  0  0  0  0  0  0  0  0
  164.2498  141.7774  187.4688 H   0  0  0  0  0  0  0  0  0  0  0  0
  164.5168  142.3729  185.7578 H   0  0  0  0  0  0  0  0  0  0  0  0
  156.3609  139.3281  185.0160 O   0  0  0  0  0  0  0  0  0  0  0  0
  156.3522  139.9263  183.7563 C   0  0  0  0  0  0  0  0  0  0  0  0
  155.2779  139.9146  183.0909 O   0  0  0  0  0  0  0  0  0  0  0  0
  156.4870  139.9171  185.8540 H   0  0  0  0  0  0  0  0  0  0  0  0
 22 23  1  0  0  0
 23 24  2  0  0  0
 23  1  1  0  0  0
  1  2  1  0  0  0
  2  3  1  0  0  0
  3  4  1  0  0  0
  4  5  1  0  0  0
  4  6  1  0  0  0
  6  7  1  0  0  0
  3 10  1  0  0  0
 10 11  1  0  0  0
 11 12  2  0  0  0
 12 13  1  0  0  0
 13 14  2  0  0  0
 14 15  1  0  0  0
 14 16  1  0  0  0
 16 17  2  0  0  0
 17 18  1  0  0  0
 18 19  2  0  0  0
  6  1  1  0  0  0
 19 10  1  0  0  0
 19 13  1  0  0  0
 22 25  1  0  0  0
  5  8  1  0  0  0
  7  9  1  0  0  0
 15 20  1  0  0  0
 15 21  1  0  0  0
M  END
> <minimizedAffinity>
-5.82980

> <CNNscore>
0.3375690281

> <CNNaffinity>
4.7048764229

> <CNN_VS>
1.5882205963

> <CNNaffinity_variance>
0.6130407453

$$$$
[H]OC(=O)[C@]1([H])O[C@@]([H])(n2c([H])nc3c(N([H])[H])nc([H])nc32)[C@]([H])(O[H])[C@]1([H])O[H]


 25 27  0  0  0  0  0  0  0  0999 V2000
  155.9660  135.9701  189.8765 C   0  0  0  0  0  0  0  0  0  0  0  0
  156.3389  136.8759  188.9032 O   0  0  0  0  0  0  0  0  0  0  0  0
  155.5084  137.9680  188.9852 C   0  0  0  0  0  0  0  0  0  0  0  0
  154.8013  137.9212  190.3120 C   0  0  0  0  0  0  0  0  0  0  0  0
  154.8151  139.1553  190.9597 O   0  0  0  0  0  0  0  0  0  0  0  0
  155.6581  136.9100  191.0501 C   0  0  0  0  0  0  0  0  0  0  0  0
  156.8311  137.5436  191.4545 O   0  0  0  0  0  0  0  0  0  0  0  0
  153.9613  139.1991  191.4840 H   0  0  0  0  0  0  0  0  0  0  0  0
  156.8757  138.4790  191.1278 H   0  0  0  0  0  0  0  0  0  0  0  0
  154.5748  137.9276  187.8715 N   0  0  0  0  0  0  0  0  0  0  0  0
  153.3053  137.5400  187.8428 C   0  0  0  0  0  0  0  0  0  0  0  0
  152.8544  137.6842  186.5745 N   0  0  0  0  0  0  0  0  0  0  0  0
  153.8464  138.1650  185.8028 C   0  0  0  0  0  0  0  0  0  0  0  0
  153.9377  138.4910  184.4741 C   0  0  0  0  0  0  0  0  0  0  0  0
  152.7929  138.3257  183.6259 N   0  0  0  0  0  0  0  0  0  0  0  0
  155.0891  138.9556  183.9959 N   0  0  0  0  0  0  0  0  0  0  0  0
  156.1520  139.1037  184.8070 C   0  0  0  0  0  0  0  0  0  0  0  0
  156.0739  138.7905  186.0973 N   0  0  0  0  0  0  0  0  0  0  0  0
  154.9389  138.3194  186.6274 C   0  0  0  0  0  0  0  0  0  0  0  0
  152.8806  137.9322  182.6672 H   0  0  0  0  0  0  0  0  0  0  0  0
  151.8832  138.6252  184.0378 H   0  0  0  0  0  0  0  0  0  0  0  0
  157.8109  134.5275  189.1555 O   0  0  0  0  0  0  0  0  0  0  0  0
  157.0260  135.0114  190.2016 C   0  0  0  0  0  0  0  0  0  0  0  0
  157.2646  134.6027  191.3734 O   0  0  0  0  0  0  0  0  0  0  0  0
  158.4407  135.1744  188.6556 H   0  0  0  0  0  0  0  0  0  0  0  0
 22 23  1  0  0  0
 23 24  2  0  0  0
 23  1  1  0  0  0
  1  2  1  0  0  0
  2  3  1  0  0  0
  3  4  1  0  0  0
  4  5  1  0  0  0
  4  6  1  0  0  0
  6  7  1  0  0  0
  3 10  1  0  0  0
 10 11  1  0  0  0
 11 12  2  0  0  0
 12 13  1  0  0  0
 13 14  2  0  0  0
 14 15  1  0  0  0
 14 16  1  0  0  0
 16 17  2  0  0  0
 17 18  1  0  0  0
 18 19  2  0  0  0
  6  1  1  0  0  0
 19 10  1  0  0  0
 19 13  1  0  0  0
 22 25  1  0  0  0
  5  8  1  0  0  0
  7  9  1  0  0  0
 15 20  1  0  0  0
 15 21  1  0  0  0
M  END
> <minimizedAffinity>
-4.48486

> <CNNscore>
0.3138406873

> <CNNaffinity>
3.8399345875

> <CNN_VS>
1.2051277161

> <CNNaffinity_variance>
0.1171056628

$$$$
[H]OC(=O)[C@]1([H])O[C@@]([H])(n2c([H])nc3c(N([H])[H])nc([H])nc32)[C@]([H])(O[H])[C@]1([H])O[H]


 25 27  0  0  0  0  0  0  0  0999 V2000
  153.6869  137.1741  190.7091 C   0  0  0  0  0  0  0  0  0  0  0  0
  154.0504  136.3252  189.6824 O   0  0  0  0  0  0  0  0  0  0  0  0
  154.9236  136.9917  188.8564 C   0  0  0  0  0  0  0  0  0  0  0  0
  155.4295  138.2043  189.5888 C   0  0  0  0  0  0  0  0  0  0  0  0
  156.8121  138.3450  189.4821 O   0  0  0  0  0  0  0  0  0  0  0  0
  155.0258  137.8610  191.0103 C   0  0  0  0  0  0  0  0  0  0  0  0
  155.9265  136.9204  191.5052 O   0  0  0  0  0  0  0  0  0  0  0  0
  156.9889  139.3321  189.4971 H   0  0  0  0  0  0  0  0  0  0  0  0
  156.5841  136.6424  190.8166 H   0  0  0  0  0  0  0  0  0  0  0  0
  154.2257  137.3497  187.6323 N   0  0  0  0  0  0  0  0  0  0  0  0
  152.9645  137.1307  187.2802 C   0  0  0  0  0  0  0  0  0  0  0  0
  152.7811  137.6507  186.0437 N   0  0  0  0  0  0  0  0  0  0  0  0
  153.9336  138.1991  185.6174 C   0  0  0  0  0  0  0  0  0  0  0  0
  154.3041  138.8470  184.4673 C   0  0  0  0  0  0  0  0  0  0  0  0
  153.3397  139.0403  183.4233 N   0  0  0  0  0  0  0  0  0  0  0  0
  155.5541  139.2852  184.3413 N   0  0  0  0  0  0  0  0  0  0  0  0
  156.4445  139.0945  185.3314 C   0  0  0  0  0  0  0  0  0  0  0  0
  156.0953  138.4673  186.4510 N   0  0  0  0  0  0  0  0  0  0  0  0
  154.8508  138.0075  186.6271 C   0  0  0  0  0  0  0  0  0  0  0  0
  153.5884  138.9025  182.4229 H   0  0  0  0  0  0  0  0  0  0  0  0
  152.3878  139.3242  183.7397 H   0  0  0  0  0  0  0  0  0  0  0  0
  153.5636  135.1465  192.0795 O   0  0  0  0  0  0  0  0  0  0  0  0
  153.1564  136.4647  191.8767 C   0  0  0  0  0  0  0  0  0  0  0  0
  152.3539  136.9819  192.7047 O   0  0  0  0  0  0  0  0  0  0  0  0
  154.5503  134.9527  192.3116 H   0  0  0  0  0  0  0  0  0  0  0  0
 22 23  1  0  0  0
 23 24  2  0  0  0
 23  1  1  0  0  0
  1  2  1  0  0  0
  2  3  1  0  0  0
  3  4  1  0  0  0
  4  5  1  0  0  0
  4  6  1  0  0  0
  6  7  1  0  0  0
  3 10  1  0  0  0
 10 11  1  0  0  0
 11 12  2  0  0  0
 12 13  1  0  0  0
 13 14  2  0  0  0
 14 15  1  0  0  0
 14 16  1  0  0  0
 16 17  2  0  0  0
 17 18  1  0  0  0
 18 19  2  0  0  0
  6  1  1  0  0  0
 19 10  1  0  0  0
 19 13  1  0  0  0
 22 25  1  0  0  0
  5  8  1  0  0  0
  7  9  1  0  0  0
 15 20  1  0  0  0
 15 21  1  0  0  0
M  END
> <minimizedAffinity>
-4.34556

> <CNNscore>
0.2949861586

> <CNNaffinity>
3.7900924683

> <CNN_VS>
1.1180248260

> <CNNaffinity_variance>
0.1960532665

$$$$
[H]Oc1c([H])c([H])c(/C([H])=C(\[H])C(=O)N([H])c2c([H])c([H])c(S(=O)(=O)N([H])[H])c([H])c2[H])c([H])c1[H]


 26 27  0  0  0  0  0  0  0  0999 V2000
  158.2599  144.4769  181.7563 N   0  0  0  0  0  0  0  0  0  0  0  0
  156.9045  144.1773  181.6474 C   0  0  0  0  0  0  0  0  0  0  0  0
  156.2460  143.5808  182.5056 O   0  0  0  0  0  0  0  0  0  0  0  0
  158.6840  144.9953  180.9196 H   0  0  0  0  0  0  0  0  0  0  0  0
  160.6793  143.4462  185.0694 C   0  0  0  0  0  0  0  0  0  0  0  0
  160.6982  144.7125  184.5355 C   0  0  0  0  0  0  0  0  0  0  0  0
  159.9079  145.0760  183.4309 C   0  0  0  0  0  0  0  0  0  0  0  0
  159.0845  144.1593  182.8506 C   0  0  0  0  0  0  0  0  0  0  0  0
  159.0546  142.8624  183.3842 C   0  0  0  0  0  0  0  0  0  0  0  0
  159.8322  142.5463  184.4523 C   0  0  0  0  0  0  0  0  0  0  0  0
  160.7153  142.1893  187.6452 N   0  0  0  0  0  0  0  0  0  0  0  0
  161.6622  142.9945  186.4430 S   0  0  0  0  0  0  0  0  0  0  0  0
  162.3516  144.2094  187.0346 O   0  0  0  0  0  0  0  0  0  0  0  0
  162.7770  142.0919  185.9562 O   0  0  0  0  0  0  0  0  0  0  0  0
  159.9475  142.8335  187.9180 H   0  0  0  0  0  0  0  0  0  0  0  0
  161.3656  141.9856  188.4405 H   0  0  0  0  0  0  0  0  0  0  0  0
  156.1849  144.6016  180.4111 C   0  0  0  0  0  0  0  0  0  0  0  0
  155.2306  145.4984  180.4633 C   0  0  0  0  0  0  0  0  0  0  0  0
  154.5111  145.9345  179.2875 C   0  0  0  0  0  0  0  0  0  0  0  0
  153.3515  146.6721  179.3101 C   0  0  0  0  0  0  0  0  0  0  0  0
  152.7017  147.0640  178.1437 C   0  0  0  0  0  0  0  0  0  0  0  0
  153.2052  146.7213  176.9072 C   0  0  0  0  0  0  0  0  0  0  0  0
  152.5603  147.1100  175.7382 O   0  0  0  0  0  0  0  0  0  0  0  0
  154.3659  145.9828  176.8713 C   0  0  0  0  0  0  0  0  0  0  0  0
  155.0159  145.5905  178.0213 C   0  0  0  0  0  0  0  0  0  0  0  0
  151.7122  147.6490  175.7288 H   0  0  0  0  0  0  0  0  0  0  0  0
 11 12  1  0  0  0
 12 13  2  0  0  0
 12 14  2  0  0  0
 12  5  1  0  0  0
  5  6  2  0  0  0
  6  7  1  0  0  0
  7  8  2  0  0  0
  8  1  1  0  0  0
  1  2  1  0  0  0
  2  3  2  0  0  0
  2 17  1  0  0  0
 17 18  2  0  0  0
 18 19  1  0  0  0
 19 20  2  0  0  0
 20 21  1  0  0  0
 21 22  2  0  0  0
 22 23  1  0  0  0
 22 24  1  0  0  0
 24 25  2  0  0  0
  8  9  1  0  0  0
  9 10  2  0  0  0
 10  5  1  0  0  0
 25 19  1  0  0  0
 11 15  1  0  0  0
 11 16  1  0  0  0
  1  4  1  0  0  0
 23 26  1  0  0  0
M  END
> <minimizedAffinity>
11.65257

> <CNNscore>
0.6237251163

> <CNNaffinity>
5.9184064865

> <CNN_VS>
3.6914587021

> <CNNaffinity_variance>
1.1136351824

$$$$
[H]Oc1c([H])c([H])c(/C([H])=C(\[H])C(=O)N([H])c2c([H])c([H])c(S(=O)(=O)N([H])[H])c([H])c2[H])c([H])c1[H]


 26 27  0  0  0  0  0  0  0  0999 V2000
  153.2306  140.5815  181.4248 N   0  0  0  0  0  0  0  0  0  0  0  0
  153.9231  140.2607  182.5893 C   0  0  0  0  0  0  0  0  0  0  0  0
  153.6000  139.3628  183.3737 O   0  0  0  0  0  0  0  0  0  0  0  0
  153.6400  141.3923  180.8559 H   0  0  0  0  0  0  0  0  0  0  0  0
  149.7500  138.5808  180.0924 C   0  0  0  0  0  0  0  0  0  0  0  0
  150.5076  139.3455  179.2379 C   0  0  0  0  0  0  0  0  0  0  0  0
  151.6642  140.0245  179.6597 C   0  0  0  0  0  0  0  0  0  0  0  0
  152.0711  139.9375  180.9565 C   0  0  0  0  0  0  0  0  0  0  0  0
  151.3078  139.1609  181.8409 C   0  0  0  0  0  0  0  0  0  0  0  0
  150.1955  138.5186  181.3985 C   0  0  0  0  0  0  0  0  0  0  0  0
  146.9603  138.1294  180.5724 N   0  0  0  0  0  0  0  0  0  0  0  0
  148.3118  137.7364  179.5676 S   0  0  0  0  0  0  0  0  0  0  0  0
  148.5436  136.2373  179.5503 O   0  0  0  0  0  0  0  0  0  0  0  0
  148.0306  138.1203  178.1295 O   0  0  0  0  0  0  0  0  0  0  0  0
  147.2167  137.8811  181.5478 H   0  0  0  0  0  0  0  0  0  0  0  0
  146.1563  137.5613  180.2151 H   0  0  0  0  0  0  0  0  0  0  0  0
  155.1439  141.0502  182.9248 C   0  0  0  0  0  0  0  0  0  0  0  0
  155.6360  141.9197  182.0766 C   0  0  0  0  0  0  0  0  0  0  0  0
  156.8165  142.7027  182.3659 C   0  0  0  0  0  0  0  0  0  0  0  0
  157.9761  142.1980  182.9043 C   0  0  0  0  0  0  0  0  0  0  0  0
  159.0827  143.0015  183.1617 C   0  0  0  0  0  0  0  0  0  0  0  0
  159.0543  144.3508  182.8818 C   0  0  0  0  0  0  0  0  0  0  0  0
  160.1570  145.1588  183.1369 O   0  0  0  0  0  0  0  0  0  0  0  0
  157.8989  144.8682  182.3423 C   0  0  0  0  0  0  0  0  0  0  0  0
  156.7985  144.0800  182.0842 C   0  0  0  0  0  0  0  0  0  0  0  0
  161.0151  144.8135  183.5297 H   0  0  0  0  0  0  0  0  0  0  0  0
 11 12  1  0  0  0
 12 13  2  0  0  0
 12 14  2  0  0  0
 12  5  1  0  0  0
  5  6  2  0  0  0
  6  7  1  0  0  0
  7  8  2  0  0  0
  8  1  1  0  0  0
  1  2  1  0  0  0
  2  3  2  0  0  0
  2 17  1  0  0  0
 17 18  2  0  0  0
 18 19  1  0  0  0
 19 20  2  0  0  0
 20 21  1  0  0  0
 21 22  2  0  0  0
 22 23  1  0  0  0
 22 24  1  0  0  0
 24 25  2  0  0  0
  8  9  1  0  0  0
  9 10  2  0  0  0
 10  5  1  0  0  0
 25 19  1  0  0  0
 11 15  1  0  0  0
 11 16  1  0  0  0
  1  4  1  0  0  0
 23 26  1  0  0  0
M  END
> <minimizedAffinity>
-7.24888

> <CNNscore>
0.4856353402

> <CNNaffinity>
5.2690596581

> <CNN_VS>
2.5588414669

> <CNNaffinity_variance>
0.0500638299

$$$$
[H]Oc1c([H])c([H])c(/C([H])=C(\[H])C(=O)N([H])c2c([H])c([H])c(S(=O)(=O)N([H])[H])c([H])c2[H])c([H])c1[H]


 26 27  0  0  0  0  0  0  0  0999 V2000
  157.2204  140.8649  183.3353 N   0  0  0  0  0  0  0  0  0  0  0  0
  156.1529  140.1023  183.8017 C   0  0  0  0  0  0  0  0  0  0  0  0
  156.0281  139.7067  184.9652 O   0  0  0  0  0  0  0  0  0  0  0  0
  157.1809  141.1222  182.2957 H   0  0  0  0  0  0  0  0  0  0  0  0
  160.5590  142.1683  185.5820 C   0  0  0  0  0  0  0  0  0  0  0  0
  159.3577  141.8823  186.1852 C   0  0  0  0  0  0  0  0  0  0  0  0
  158.2330  141.4539  185.4583 C   0  0  0  0  0  0  0  0  0  0  0  0
  158.3101  141.3083  184.1063 C   0  0  0  0  0  0  0  0  0  0  0  0
  159.5297  141.5970  183.4762 C   0  0  0  0  0  0  0  0  0  0  0  0
  160.5958  142.0089  184.2103 C   0  0  0  0  0  0  0  0  0  0  0  0
  161.9144  142.0989  188.1068 N   0  0  0  0  0  0  0  0  0  0  0  0
  161.9574  142.7009  186.4863 S   0  0  0  0  0  0  0  0  0  0  0  0
  162.0558  144.2148  186.4836 O   0  0  0  0  0  0  0  0  0  0  0  0
  163.2014  142.2120  185.7736 O   0  0  0  0  0  0  0  0  0  0  0  0
  161.0295  142.4311  188.5375 H   0  0  0  0  0  0  0  0  0  0  0  0
  162.7608  142.4883  188.5851 H   0  0  0  0  0  0  0  0  0  0  0  0
  155.0769  139.7299  182.8376 C   0  0  0  0  0  0  0  0  0  0  0  0
  153.8433  139.5525  183.2429 C   0  0  0  0  0  0  0  0  0  0  0  0
  152.7743  139.1914  182.3389 C   0  0  0  0  0  0  0  0  0  0  0  0
  152.0868  138.0019  182.3776 C   0  0  0  0  0  0  0  0  0  0  0  0
  151.0650  137.7089  181.4797 C   0  0  0  0  0  0  0  0  0  0  0  0
  150.7013  138.6141  180.5059 C   0  0  0  0  0  0  0  0  0  0  0  0
  149.6811  138.3270  179.6057 O   0  0  0  0  0  0  0  0  0  0  0  0
  151.3824  139.8089  180.4568 C   0  0  0  0  0  0  0  0  0  0  0  0
  152.3954  140.1074  181.3419 C   0  0  0  0  0  0  0  0  0  0  0  0
  149.1643  137.4652  179.6139 H   0  0  0  0  0  0  0  0  0  0  0  0
 11 12  1  0  0  0
 12 13  2  0  0  0
 12 14  2  0  0  0
 12  5  1  0  0  0
  5  6  2  0  0  0
  6  7  1  0  0  0
  7  8  2  0  0  0
  8  1  1  0  0  0
  1  2  1  0  0  0
  2  3  2  0  0  0
  2 17  1  0  0  0
 17 18  2  0  0  0
 18 19  1  0  0  0
 19 20  2  0  0  0
 20 21  1  0  0  0
 21 22  2  0  0  0
 22 23  1  0  0  0
 22 24  1  0  0  0
 24 25  2  0  0  0
  8  9  1  0  0  0
  9 10  2  0  0  0
 10  5  1  0  0  0
 25 19  1  0  0  0
 11 15  1  0  0  0
 11 16  1  0  0  0
  1  4  1  0  0  0
 23 26  1  0  0  0
M  END
> <minimizedAffinity>
-6.29604

> <CNNscore>
0.4267444909

> <CNNaffinity>
5.3937177658

> <CNN_VS>
2.3017394543

> <CNNaffinity_variance>
0.2680920660

$$$$
[H]Oc1c([H])c([H])c(/C([H])=C(\[H])C(=O)N([H])c2c([H])c([H])c(S(=O)(=O)N([H])[H])c([H])c2[H])c([H])c1[H]


 26 27  0  0  0  0  0  0  0  0999 V2000
  153.7242  140.2767  181.4937 N   0  0  0  0  0  0  0  0  0  0  0  0
  154.0421  141.4957  182.0869 C   0  0  0  0  0  0  0  0  0  0  0  0
  153.2220  142.3768  182.3641 O   0  0  0  0  0  0  0  0  0  0  0  0
  154.5545  139.6233  181.3141 H   0  0  0  0  0  0  0  0  0  0  0  0
  149.8407  138.9491  180.4696 C   0  0  0  0  0  0  0  0  0  0  0  0
  150.6774  139.5060  179.5321 C   0  0  0  0  0  0  0  0  0  0  0  0
  151.9693  139.9600  179.8507 C   0  0  0  0  0  0  0  0  0  0  0  0
  152.4333  139.8553  181.1269 C   0  0  0  0  0  0  0  0  0  0  0  0
  151.5907  139.2894  182.0951 C   0  0  0  0  0  0  0  0  0  0  0  0
  150.3480  138.8615  181.7515 C   0  0  0  0  0  0  0  0  0  0  0  0
  147.9571  136.8023  180.7135 N   0  0  0  0  0  0  0  0  0  0  0  0
  148.2342  138.3845  180.0731 S   0  0  0  0  0  0  0  0  0  0  0  0
  148.0142  138.3969  178.5722 O   0  0  0  0  0  0  0  0  0  0  0  0
  147.2297  139.3671  180.6387 O   0  0  0  0  0  0  0  0  0  0  0  0
  148.6903  136.1777  180.3247 H   0  0  0  0  0  0  0  0  0  0  0  0
  146.9949  136.5271  180.4050 H   0  0  0  0  0  0  0  0  0  0  0  0
  155.4715  141.7690  182.4160 C   0  0  0  0  0  0  0  0  0  0  0  0
  156.2056  140.8684  183.0223 C   0  0  0  0  0  0  0  0  0  0  0  0
  157.5934  141.0967  183.3574 C   0  0  0  0  0  0  0  0  0  0  0  0
  158.6182  141.1561  182.4434 C   0  0  0  0  0  0  0  0  0  0  0  0
  159.9376  141.3790  182.8253 C   0  0  0  0  0  0  0  0  0  0  0  0
  160.2677  141.5505  184.1525 C   0  0  0  0  0  0  0  0  0  0  0  0
  161.5844  141.7736  184.5403 O   0  0  0  0  0  0  0  0  0  0  0  0
  159.2504  141.4932  185.0774 C   0  0  0  0  0  0  0  0  0  0  0  0
  157.9412  141.2729  184.7081 C   0  0  0  0  0  0  0  0  0  0  0  0
  162.3502  141.8212  183.8914 H   0  0  0  0  0  0  0  0  0  0  0  0
 11 12  1  0  0  0
 12 13  2  0  0  0
 12 14  2  0  0  0
 12  5  1  0  0  0
  5  6  2  0  0  0
  6  7  1  0  0  0
  7  8  2  0  0  0
  8  1  1  0  0  0
  1  2  1  0  0  0
  2  3  2  0  0  0
  2 17  1  0  0  0
 17 18  2  0  0  0
 18 19  1  0  0  0
 19 20  2  0  0  0
 20 21  1  0  0  0
 21 22  2  0  0  0
 22 23  1  0  0  0
 22 24  1  0  0  0
 24 25  2  0  0  0
  8  9  1  0  0  0
  9 10  2  0  0  0
 10  5  1  0  0  0
 25 19  1  0  0  0
 11 15  1  0  0  0
 11 16  1  0  0  0
  1  4  1  0  0  0
 23 26  1  0  0  0
M  END
> <minimizedAffinity>
-7.53082

> <CNNscore>
0.4264537692

> <CNNaffinity>
5.1803026199

> <CNN_VS>
2.2091596127

> <CNNaffinity_variance>
0.0894489586

$$$$
[H]Oc1c([H])c([H])c(/C([H])=C(\[H])C(=O)N([H])c2c([H])c([H])c(S(=O)(=O)N([H])[H])c([H])c2[H])c([H])c1[H]


 26 27  0  0  0  0  0  0  0  0999 V2000
  155.1100  140.4616  183.7888 N   0  0  0  0  0  0  0  0  0  0  0  0
  156.4086  140.6254  183.3140 C   0  0  0  0  0  0  0  0  0  0  0  0
  156.7537  140.4561  182.1401 O   0  0  0  0  0  0  0  0  0  0  0  0
  154.9783  140.6424  184.8369 H   0  0  0  0  0  0  0  0  0  0  0  0
  151.7398  139.4384  181.4462 C   0  0  0  0  0  0  0  0  0  0  0  0
  152.2400  138.5788  182.3948 C   0  0  0  0  0  0  0  0  0  0  0  0
  153.3625  138.8946  183.1803 C   0  0  0  0  0  0  0  0  0  0  0  0
  153.9953  140.0894  183.0159 C   0  0  0  0  0  0  0  0  0  0  0  0
  153.4965  140.9773  182.0511 C   0  0  0  0  0  0  0  0  0  0  0  0
  152.4097  140.6387  181.3098 C   0  0  0  0  0  0  0  0  0  0  0  0
  150.5090  139.6778  178.8686 N   0  0  0  0  0  0  0  0  0  0  0  0
  150.3439  139.0454  180.4695 S   0  0  0  0  0  0  0  0  0  0  0  0
  149.0719  139.5604  181.1163 O   0  0  0  0  0  0  0  0  0  0  0  0
  150.1977  137.5382  180.4301 O   0  0  0  0  0  0  0  0  0  0  0  0
  150.6417  140.7045  178.9530 H   0  0  0  0  0  0  0  0  0  0  0  0
  149.6248  139.4306  178.3647 H   0  0  0  0  0  0  0  0  0  0  0  0
  157.4678  141.0343  184.2821 C   0  0  0  0  0  0  0  0  0  0  0  0
  158.6124  141.5151  183.8624 C   0  0  0  0  0  0  0  0  0  0  0  0
  159.6622  141.9218  184.7695 C   0  0  0  0  0  0  0  0  0  0  0  0
  160.9801  142.0864  184.4157 C   0  0  0  0  0  0  0  0  0  0  0  0
  161.9485  142.4803  185.3340 C   0  0  0  0  0  0  0  0  0  0  0  0
  161.6154  142.7227  186.6494 C   0  0  0  0  0  0  0  0  0  0  0  0
  162.5788  143.1165  187.5716 O   0  0  0  0  0  0  0  0  0  0  0  0
  160.2989  142.5613  187.0161 C   0  0  0  0  0  0  0  0  0  0  0  0
  159.3334  142.1716  186.1134 C   0  0  0  0  0  0  0  0  0  0  0  0
  163.5477  143.2436  187.3373 H   0  0  0  0  0  0  0  0  0  0  0  0
 11 12  1  0  0  0
 12 13  2  0  0  0
 12 14  2  0  0  0
 12  5  1  0  0  0
  5  6  2  0  0  0
  6  7  1  0  0  0
  7  8  2  0  0  0
  8  1  1  0  0  0
  1  2  1  0  0  0
  2  3  2  0  0  0
  2 17  1  0  0  0
 17 18  2  0  0  0
 18 19  1  0  0  0
 19 20  2  0  0  0
 20 21  1  0  0  0
 21 22  2  0  0  0
 22 23  1  0  0  0
 22 24  1  0  0  0
 24 25  2  0  0  0
  8  9  1  0  0  0
  9 10  2  0  0  0
 10  5  1  0  0  0
 25 19  1  0  0  0
 11 15  1  0  0  0
 11 16  1  0  0  0
  1  4  1  0  0  0
 23 26  1  0  0  0
M  END
> <minimizedAffinity>
-8.65178

> <CNNscore>
0.4089894593

> <CNNaffinity>
5.3594160080

> <CNN_VS>
2.1919445992

> <CNNaffinity_variance>
0.0566296764

$$$$
[H]Oc1c([H])c([H])c(/C([H])=C(\[H])C(=O)N([H])c2c([H])c([H])c(S(=O)(=O)N([H])[H])c([H])c2[H])c([H])c1[H]


 26 27  0  0  0  0  0  0  0  0999 V2000
  154.2482  138.1763  186.1990 N   0  0  0  0  0  0  0  0  0  0  0  0
  153.6287  137.4522  185.1839 C   0  0  0  0  0  0  0  0  0  0  0  0
  153.3031  136.2636  185.2674 O   0  0  0  0  0  0  0  0  0  0  0  0
  154.4699  139.1982  185.9643 H   0  0  0  0  0  0  0  0  0  0  0  0
  155.3140  136.5981  189.9760 C   0  0  0  0  0  0  0  0  0  0  0  0
  154.3571  137.5768  189.8533 C   0  0  0  0  0  0  0  0  0  0  0  0
  153.9913  138.1208  188.6095 C   0  0  0  0  0  0  0  0  0  0  0  0
  154.5910  137.6789  187.4693 C   0  0  0  0  0  0  0  0  0  0  0  0
  155.5702  136.6804  187.5785 C   0  0  0  0  0  0  0  0  0  0  0  0
  155.8987  136.1779  188.7971 C   0  0  0  0  0  0  0  0  0  0  0  0
  154.3768  135.6381  192.5091 N   0  0  0  0  0  0  0  0  0  0  0  0
  155.7687  135.9218  191.5229 S   0  0  0  0  0  0  0  0  0  0  0  0
  156.7521  136.8283  192.2388 O   0  0  0  0  0  0  0  0  0  0  0  0
  156.5151  134.6269  191.2771 O   0  0  0  0  0  0  0  0  0  0  0  0
  153.8833  136.5457  192.6172 H   0  0  0  0  0  0  0  0  0  0  0  0
  154.7359  135.2691  193.4211 H   0  0  0  0  0  0  0  0  0  0  0  0
  153.3318  138.1501  183.8990 C   0  0  0  0  0  0  0  0  0  0  0  0
  152.2022  137.9434  183.2674 C   0  0  0  0  0  0  0  0  0  0  0  0
  151.8791  138.6008  182.0209 C   0  0  0  0  0  0  0  0  0  0  0  0
  152.5704  139.6677  181.4983 C   0  0  0  0  0  0  0  0  0  0  0  0
  152.2126  140.2611  180.2916 C   0  0  0  0  0  0  0  0  0  0  0  0
  151.1368  139.7932  179.5679 C   0  0  0  0  0  0  0  0  0  0  0  0
  150.7743  140.3822  178.3615 O   0  0  0  0  0  0  0  0  0  0  0  0
  150.4365  138.7254  180.0807 C   0  0  0  0  0  0  0  0  0  0  0  0
  150.7839  138.1317  181.2747 C   0  0  0  0  0  0  0  0  0  0  0  0
  151.2637  141.1623  177.9591 H   0  0  0  0  0  0  0  0  0  0  0  0
 11 12  1  0  0  0
 12 13  2  0  0  0
 12 14  2  0  0  0
 12  5  1  0  0  0
  5  6  2  0  0  0
  6  7  1  0  0  0
  7  8  2  0  0  0
  8  1  1  0  0  0
  1  2  1  0  0  0
  2  3  2  0  0  0
  2 17  1  0  0  0
 17 18  2  0  0  0
 18 19  1  0  0  0
 19 20  2  0  0  0
 20 21  1  0  0  0
 21 22  2  0  0  0
 22 23  1  0  0  0
 22 24  1  0  0  0
 24 25  2  0  0  0
  8  9  1  0  0  0
  9 10  2  0  0  0
 10  5  1  0  0  0
 25 19  1  0  0  0
 11 15  1  0  0  0
 11 16  1  0  0  0
  1  4  1  0  0  0
 23 26  1  0  0  0
M  END
> <minimizedAffinity>
-6.29482

> <CNNscore>
0.4034101367

> <CNNaffinity>
4.6144137383

> <CNN_VS>
1.8615013361

> <CNNaffinity_variance>
0.2152843773

$$$$
[H]Oc1c([H])c([H])c(/C([H])=C(\[H])C(=O)N([H])c2c([H])c([H])c(S(=O)(=O)N([H])[H])c([H])c2[H])c([H])c1[H]


 26 27  0  0  0  0  0  0  0  0999 V2000
  155.3291  140.4027  183.8954 N   0  0  0  0  0  0  0  0  0  0  0  0
  156.6210  140.4912  183.3838 C   0  0  0  0  0  0  0  0  0  0  0  0
  156.9217  140.3062  182.2001 O   0  0  0  0  0  0  0  0  0  0  0  0
  155.2383  140.5870  184.9473 H   0  0  0  0  0  0  0  0  0  0  0  0
  151.8672  139.3961  181.6830 C   0  0  0  0  0  0  0  0  0  0  0  0
  152.5089  140.5976  181.5009 C   0  0  0  0  0  0  0  0  0  0  0  0
  153.6568  140.9564  182.2292 C   0  0  0  0  0  0  0  0  0  0  0  0
  154.1726  140.1001  183.1542 C   0  0  0  0  0  0  0  0  0  0  0  0
  153.5283  138.8698  183.3517 C   0  0  0  0  0  0  0  0  0  0  0  0
  152.4207  138.5565  182.6301 C   0  0  0  0  0  0  0  0  0  0  0  0
  150.4999  139.5882  179.1710 N   0  0  0  0  0  0  0  0  0  0  0  0
  150.4397  138.9501  180.7772 S   0  0  0  0  0  0  0  0  0  0  0  0
  149.1834  139.4166  181.4881 O   0  0  0  0  0  0  0  0  0  0  0  0
  150.3491  137.4385  180.7425 O   0  0  0  0  0  0  0  0  0  0  0  0
  150.5975  140.6192  179.2505 H   0  0  0  0  0  0  0  0  0  0  0  0
  149.6014  139.3074  178.7119 H   0  0  0  0  0  0  0  0  0  0  0  0
  157.7298  140.8331  184.3218 C   0  0  0  0  0  0  0  0  0  0  0  0
  158.6930  141.6434  183.9568 C   0  0  0  0  0  0  0  0  0  0  0  0
  159.7836  141.9980  184.8373 C   0  0  0  0  0  0  0  0  0  0  0  0
  159.6407  142.3296  186.1635 C   0  0  0  0  0  0  0  0  0  0  0  0
  160.7291  142.6629  186.9637 C   0  0  0  0  0  0  0  0  0  0  0  0
  162.0070  142.6724  186.4472 C   0  0  0  0  0  0  0  0  0  0  0  0
  163.0986  143.0047  187.2419 O   0  0  0  0  0  0  0  0  0  0  0  0
  162.1632  142.3421  185.1204 C   0  0  0  0  0  0  0  0  0  0  0  0
  161.0910  142.0108  184.3207 C   0  0  0  0  0  0  0  0  0  0  0  0
  163.0198  143.2504  188.2131 H   0  0  0  0  0  0  0  0  0  0  0  0
 11 12  1  0  0  0
 12 13  2  0  0  0
 12 14  2  0  0  0
 12  5  1  0  0  0
  5  6  2  0  0  0
  6  7  1  0  0  0
  7  8  2  0  0  0
  8  1  1  0  0  0
  1  2  1  0  0  0
  2  3  2  0  0  0
  2 17  1  0  0  0
 17 18  2  0  0  0
 18 19  1  0  0  0
 19 20  2  0  0  0
 20 21  1  0  0  0
 21 22  2  0  0  0
 22 23  1  0  0  0
 22 24  1  0  0  0
 24 25  2  0  0  0
  8  9  1  0  0  0
  9 10  2  0  0  0
 10  5  1  0  0  0
 25 19  1  0  0  0
 11 15  1  0  0  0
 11 16  1  0  0  0
  1  4  1  0  0  0
 23 26  1  0  0  0
M  END
> <minimizedAffinity>
-8.59577

> <CNNscore>
0.3815390766

> <CNNaffinity>
5.3245429993

> <CNN_VS>
2.0315213203

> <CNNaffinity_variance>
0.0345984958

$$$$
[H]Oc1c([H])c([H])c(/C([H])=C(\[H])C(=O)N([H])c2c([H])c([H])c(S(=O)(=O)N([H])[H])c([H])c2[H])c([H])c1[H]


 26 27  0  0  0  0  0  0  0  0999 V2000
  152.0715  136.9521  186.5180 N   0  0  0  0  0  0  0  0  0  0  0  0
  152.6957  135.7877  186.9577 C   0  0  0  0  0  0  0  0  0  0  0  0
  153.2253  134.9525  186.2176 O   0  0  0  0  0  0  0  0  0  0  0  0
  151.6563  137.5696  187.2893 H   0  0  0  0  0  0  0  0  0  0  0  0
  151.7800  138.2581  182.5054 C   0  0  0  0  0  0  0  0  0  0  0  0
  150.7710  137.5381  183.0989 C   0  0  0  0  0  0  0  0  0  0  0  0
  150.8486  137.0881  184.4287 C   0  0  0  0  0  0  0  0  0  0  0  0
  151.9523  137.3627  185.1781 C   0  0  0  0  0  0  0  0  0  0  0  0
  152.9908  138.0965  184.5858 C   0  0  0  0  0  0  0  0  0  0  0  0
  152.8818  138.5151  183.2980 C   0  0  0  0  0  0  0  0  0  0  0  0
  150.1508  138.4256  180.1528 N   0  0  0  0  0  0  0  0  0  0  0  0
  151.6832  138.8177  180.8517 S   0  0  0  0  0  0  0  0  0  0  0  0
  152.8114  138.2372  180.0200 O   0  0  0  0  0  0  0  0  0  0  0  0
  151.9010  140.3167  180.8413 O   0  0  0  0  0  0  0  0  0  0  0  0
  150.0354  137.3953  180.2168 H   0  0  0  0  0  0  0  0  0  0  0  0
  150.1879  138.7614  179.1615 H   0  0  0  0  0  0  0  0  0  0  0  0
  152.7344  135.5183  188.4247 C   0  0  0  0  0  0  0  0  0  0  0  0
  152.2057  136.3618  189.2771 C   0  0  0  0  0  0  0  0  0  0  0  0
  152.2237  136.1352  190.7049 C   0  0  0  0  0  0  0  0  0  0  0  0
  151.1711  136.3932  191.5502 C   0  0  0  0  0  0  0  0  0  0  0  0
  151.2464  136.1547  192.9190 C   0  0  0  0  0  0  0  0  0  0  0  0
  152.3956  135.6441  193.4833 C   0  0  0  0  0  0  0  0  0  0  0  0
  152.4769  135.4037  194.8505 O   0  0  0  0  0  0  0  0  0  0  0  0
  153.4567  135.3815  192.6473 C   0  0  0  0  0  0  0  0  0  0  0  0
  153.3909  135.6147  191.2908 C   0  0  0  0  0  0  0  0  0  0  0  0
  151.7215  135.5840  195.4884 H   0  0  0  0  0  0  0  0  0  0  0  0
 11 12  1  0  0  0
 12 13  2  0  0  0
 12 14  2  0  0  0
 12  5  1  0  0  0
  5  6  2  0  0  0
  6  7  1  0  0  0
  7  8  2  0  0  0
  8  1  1  0  0  0
  1  2  1  0  0  0
  2  3  2  0  0  0
  2 17  1  0  0  0
 17 18  2  0  0  0
 18 19  1  0  0  0
 19 20  2  0  0  0
 20 21  1  0  0  0
 21 22  2  0  0  0
 22 23  1  0  0  0
 22 24  1  0  0  0
 24 25  2  0  0  0
  8  9  1  0  0  0
  9 10  2  0  0  0
 10  5  1  0  0  0
 25 19  1  0  0  0
 11 15  1  0  0  0
 11 16  1  0  0  0
  1  4  1  0  0  0
 23 26  1  0  0  0
M  END
> <minimizedAffinity>
-4.24543

> <CNNscore>
0.3806553185

> <CNNaffinity>
4.5681543350

> <CNN_VS>
1.7388921976

> <CNNaffinity_variance>
0.3949290216

$$$$
[H]Oc1c([H])c([H])c(/C([H])=C(\[H])C(=O)N([H])c2c([H])c([H])c(S(=O)(=O)N([H])[H])c([H])c2[H])c([H])c1[H]


 26 27  0  0  0  0  0  0  0  0999 V2000
  155.9853  141.1553  182.2345 N   0  0  0  0  0  0  0  0  0  0  0  0
  154.6913  141.4796  182.6333 C   0  0  0  0  0  0  0  0  0  0  0  0
  154.4087  142.1001  183.6633 O   0  0  0  0  0  0  0  0  0  0  0  0
  156.0589  140.6082  181.3158 H   0  0  0  0  0  0  0  0  0  0  0  0
  159.5612  142.1969  184.2396 C   0  0  0  0  0  0  0  0  0  0  0  0
  158.8136  141.1107  184.6269 C   0  0  0  0  0  0  0  0  0  0  0  0
  157.6188  140.7493  183.9798 C   0  0  0  0  0  0  0  0  0  0  0  0
  157.1638  141.4850  182.9277 C   0  0  0  0  0  0  0  0  0  0  0  0
  157.9160  142.5971  182.5210 C   0  0  0  0  0  0  0  0  0  0  0  0
  159.0658  142.9170  183.1699 C   0  0  0  0  0  0  0  0  0  0  0  0
  162.3949  141.7890  184.3820 N   0  0  0  0  0  0  0  0  0  0  0  0
  161.0469  142.6460  185.0445 S   0  0  0  0  0  0  0  0  0  0  0  0
  160.9445  142.4034  186.5385 O   0  0  0  0  0  0  0  0  0  0  0  0
  161.2419  144.1400  184.8883 O   0  0  0  0  0  0  0  0  0  0  0  0
  162.1962  140.7743  184.4812 H   0  0  0  0  0  0  0  0  0  0  0  0
  163.2314  142.0871  184.9371 H   0  0  0  0  0  0  0  0  0  0  0  0
  153.5567  141.0529  181.7633 C   0  0  0  0  0  0  0  0  0  0  0  0
  152.8190  140.0173  182.0807 C   0  0  0  0  0  0  0  0  0  0  0  0
  151.7119  139.5739  181.2633 C   0  0  0  0  0  0  0  0  0  0  0  0
  150.6991  138.7530  181.6985 C   0  0  0  0  0  0  0  0  0  0  0  0
  149.6573  138.3584  180.8648 C   0  0  0  0  0  0  0  0  0  0  0  0
  149.6037  138.7829  179.5545 C   0  0  0  0  0  0  0  0  0  0  0  0
  148.5652  138.3918  178.7165 O   0  0  0  0  0  0  0  0  0  0  0  0
  150.6122  139.6053  179.1067 C   0  0  0  0  0  0  0  0  0  0  0  0
  151.6475  140.0010  179.9254 C   0  0  0  0  0  0  0  0  0  0  0  0
  147.8140  137.7929  179.0112 H   0  0  0  0  0  0  0  0  0  0  0  0
 11 12  1  0  0  0
 12 13  2  0  0  0
 12 14  2  0  0  0
 12  5  1  0  0  0
  5  6  2  0  0  0
  6  7  1  0  0  0
  7  8  2  0  0  0
  8  1  1  0  0  0
  1  2  1  0  0  0
  2  3  2  0  0  0
  2 17  1  0  0  0
 17 18  2  0  0  0
 18 19  1  0  0  0
 19 20  2  0  0  0
 20 21  1  0  0  0
 21 22  2  0  0  0
 22 23  1  0  0  0
 22 24  1  0  0  0
 24 25  2  0  0  0
  8  9  1  0  0  0
  9 10  2  0  0  0
 10  5  1  0  0  0
 25 19  1  0  0  0
 11 15  1  0  0  0
 11 16  1  0  0  0
  1  4  1  0  0  0
 23 26  1  0  0  0
M  END
> <minimizedAffinity>
-8.56248

> <CNNscore>
0.3592560887

> <CNNaffinity>
5.3351125717

> <CNN_VS>
1.9166716337

> <CNNaffinity_variance>
0.0503741503

$$$$
[H]N=C(c1c([H])c([H])c([H])c(OC([H])([H])C([H])([H])N2C([H])([H])C([H])([H])C([H])(N([H])S(=O)(=O)c3nc4c([H])c([H])c([H])c([H])c4c([H])c3O[H])C([H])([H])C2([H])[H])c1[H])N([H])[H]


 38 41  0  0  0  0  0  0  0  0999 V2000
  154.7892  136.8341  186.1323 N   0  0  0  0  0  0  0  0  0  0  0  0
  154.8284  138.1489  186.6575 C   0  0  0  0  0  0  0  0  0  0  0  0
  153.9200  139.0298  185.8218 C   0  0  0  0  0  0  0  0  0  0  0  0
  154.4489  138.9431  184.3999 C   0  0  0  0  0  0  0  0  0  0  0  0
  154.2525  137.5288  183.9188 C   0  0  0  0  0  0  0  0  0  0  0  0
  153.9052  136.5703  185.0652 C   0  0  0  0  0  0  0  0  0  0  0  0
  155.8355  139.2664  184.3404 N   0  0  0  0  0  0  0  0  0  0  0  0
  156.3596  138.4783  183.9111 H   0  0  0  0  0  0  0  0  0  0  0  0
  156.2054  140.7234  183.5190 S   0  0  0  0  0  0  0  0  0  0  0  0
  155.3272  141.8260  184.0663 O   0  0  0  0  0  0  0  0  0  0  0  0
  156.0020  140.5935  182.0373 O   0  0  0  0  0  0  0  0  0  0  0  0
  157.8588  141.1503  183.8844 C   0  0  0  0  0  0  0  0  0  0  0  0
  158.8315  140.9648  182.9137 C   0  0  0  0  0  0  0  0  0  0  0  0
  158.4804  140.4489  181.6756 O   0  0  0  0  0  0  0  0  0  0  0  0
  160.1529  141.2813  183.1446 C   0  0  0  0  0  0  0  0  0  0  0  0
  160.4545  141.7903  184.3879 C   0  0  0  0  0  0  0  0  0  0  0  0
  161.7610  142.1252  184.6777 C   0  0  0  0  0  0  0  0  0  0  0  0
  162.1166  142.6376  185.9063 C   0  0  0  0  0  0  0  0  0  0  0  0
  161.1372  142.8173  186.8647 C   0  0  0  0  0  0  0  0  0  0  0  0
  159.8131  142.4817  186.5811 C   0  0  0  0  0  0  0  0  0  0  0  0
  159.4729  141.9735  185.3566 C   0  0  0  0  0  0  0  0  0  0  0  0
  158.1870  141.6476  185.0828 N   0  0  0  0  0  0  0  0  0  0  0  0
  159.1372  140.2934  180.9316 H   0  0  0  0  0  0  0  0  0  0  0  0
  155.2012  135.7702  186.9578 C   0  0  0  0  0  0  0  0  0  0  0  0
  156.4875  135.9783  187.7196 C   0  0  0  0  0  0  0  0  0  0  0  0
  156.2391  135.6191  189.0654 O   0  0  0  0  0  0  0  0  0  0  0  0
  155.6239  136.5356  189.9022 C   0  0  0  0  0  0  0  0  0  0  0  0
  154.4446  136.2384  190.5871 C   0  0  0  0  0  0  0  0  0  0  0  0
  153.8477  137.1453  191.4074 C   0  0  0  0  0  0  0  0  0  0  0  0
  154.3909  138.4129  191.5982 C   0  0  0  0  0  0  0  0  0  0  0  0
  155.5494  138.7239  190.9339 C   0  0  0  0  0  0  0  0  0  0  0  0
  156.1475  137.8022  190.1063 C   0  0  0  0  0  0  0  0  0  0  0  0
  152.6113  136.8159  192.1187 C   0  0  0  0  0  0  0  0  0  0  0  0
  151.7833  135.7486  191.6787 N   0  0  0  0  0  0  0  0  0  0  0  0
  152.2296  137.4615  193.1466 N   0  0  0  0  0  0  0  0  0  0  0  0
  151.3645  135.1047  192.3619 H   0  0  0  0  0  0  0  0  0  0  0  0
  151.5929  135.6075  190.6694 H   0  0  0  0  0  0  0  0  0  0  0  0
  152.7061  138.2473  193.5857 H   0  0  0  0  0  0  0  0  0  0  0  0
 27 26  1  0  0  0
 26 25  1  0  0  0
 25 24  1  0  0  0
 24  1  1  0  0  0
  1  2  1  0  0  0
  2  3  1  0  0  0
  3  4  1  0  0  0
  4  7  1  0  0  0
  7  9  1  0  0  0
  9 10  2  0  0  0
  9 12  1  0  0  0
 12 13  2  0  0  0
 13 14  1  0  0  0
 13 15  1  0  0  0
 15 16  2  0  0  0
 16 17  1  0  0  0
 17 18  2  0  0  0
 18 19  1  0  0  0
 19 20  2  0  0  0
 20 21  1  0  0  0
 21 22  2  0  0  0
  9 11  2  0  0  0
  4  5  1  0  0  0
  5  6  1  0  0  0
 27 28  2  0  0  0
 28 29  1  0  0  0
 29 33  1  0  0  0
 33 34  1  0  0  0
 33 35  2  0  0  0
 29 30  2  0  0  0
 30 31  1  0  0  0
 31 32  2  0  0  0
 32 27  1  0  0  0
  6  1  1  0  0  0
 22 12  1  0  0  0
 21 16  1  0  0  0
  7  8  1  0  0  0
 14 23  1  0  0  0
 34 36  1  0  0  0
 34 37  1  0  0  0
 35 38  1  0  0  0
M  END
> <minimizedAffinity>
-9.00078

> <CNNscore>
0.2589469850

> <CNNaffinity>
6.0844039917

> <CNN_VS>
1.5755380392

> <CNNaffinity_variance>
0.1085543185

$$$$
[H]N=C(c1c([H])c([H])c([H])c(OC([H])([H])C([H])([H])N2C([H])([H])C([H])([H])C([H])(N([H])S(=O)(=O)c3nc4c([H])c([H])c([H])c([H])c4c([H])c3O[H])C([H])([H])C2([H])[H])c1[H])N([H])[H]


 38 41  0  0  0  0  0  0  0  0999 V2000
  152.8370  137.5349  185.6301 N   0  0  0  0  0  0  0  0  0  0  0  0
  152.5066  137.5795  187.0067 C   0  0  0  0  0  0  0  0  0  0  0  0
  153.4194  138.5794  187.6900 C   0  0  0  0  0  0  0  0  0  0  0  0
  154.8359  138.0917  187.4356 C   0  0  0  0  0  0  0  0  0  0  0  0
  155.1017  138.1945  185.9560 C   0  0  0  0  0  0  0  0  0  0  0  0
  153.8166  138.4301  185.1519 C   0  0  0  0  0  0  0  0  0  0  0  0
  155.0005  136.7365  187.8446 N   0  0  0  0  0  0  0  0  0  0  0  0
  155.4554  136.1948  187.0831 H   0  0  0  0  0  0  0  0  0  0  0  0
  155.8674  136.5210  189.3062 S   0  0  0  0  0  0  0  0  0  0  0  0
  156.6180  137.7960  189.6184 O   0  0  0  0  0  0  0  0  0  0  0  0
  156.8265  135.3694  189.2193 O   0  0  0  0  0  0  0  0  0  0  0  0
  154.7130  136.2727  190.5928 C   0  0  0  0  0  0  0  0  0  0  0  0
  155.1781  135.9993  191.8702 C   0  0  0  0  0  0  0  0  0  0  0  0
  156.5425  135.9293  192.1068 O   0  0  0  0  0  0  0  0  0  0  0  0
  154.3154  135.7923  192.9248 C   0  0  0  0  0  0  0  0  0  0  0  0
  152.9701  135.8713  192.6426 C   0  0  0  0  0  0  0  0  0  0  0  0
  152.0579  135.6727  193.6583 C   0  0  0  0  0  0  0  0  0  0  0  0
  150.7008  135.7401  193.4297 C   0  0  0  0  0  0  0  0  0  0  0  0
  150.2508  136.0133  192.1518 C   0  0  0  0  0  0  0  0  0  0  0  0
  151.1655  136.2158  191.1180 C   0  0  0  0  0  0  0  0  0  0  0  0
  152.5112  136.1462  191.3584 C   0  0  0  0  0  0  0  0  0  0  0  0
  153.3981  136.3424  190.3536 N   0  0  0  0  0  0  0  0  0  0  0  0
  156.9412  135.7374  193.0086 H   0  0  0  0  0  0  0  0  0  0  0  0
  151.8868  137.0160  184.7295 C   0  0  0  0  0  0  0  0  0  0  0  0
  152.1161  137.3233  183.2697 C   0  0  0  0  0  0  0  0  0  0  0  0
  150.8437  137.4518  182.6646 O   0  0  0  0  0  0  0  0  0  0  0  0
  150.7301  138.1720  181.4868 C   0  0  0  0  0  0  0  0  0  0  0  0
  149.7076  137.9323  180.5676 C   0  0  0  0  0  0  0  0  0  0  0  0
  149.6039  138.6453  179.4132 C   0  0  0  0  0  0  0  0  0  0  0  0
  150.5176  139.6480  179.1000 C   0  0  0  0  0  0  0  0  0  0  0  0
  151.5296  139.8985  179.9907 C   0  0  0  0  0  0  0  0  0  0  0  0
  151.6283  139.1739  181.1557 C   0  0  0  0  0  0  0  0  0  0  0  0
  148.5241  138.3808  178.4607 C   0  0  0  0  0  0  0  0  0  0  0  0
  147.3419  137.7090  178.8722 N   0  0  0  0  0  0  0  0  0  0  0  0
  148.5962  138.7354  177.2408 N   0  0  0  0  0  0  0  0  0  0  0  0
  146.4229  138.0352  178.5469 H   0  0  0  0  0  0  0  0  0  0  0  0
  147.3919  136.8867  179.5017 H   0  0  0  0  0  0  0  0  0  0  0  0
  149.3695  139.2224  176.7913 H   0  0  0  0  0  0  0  0  0  0  0  0
 27 26  1  0  0  0
 26 25  1  0  0  0
 25 24  1  0  0  0
 24  1  1  0  0  0
  1  2  1  0  0  0
  2  3  1  0  0  0
  3  4  1  0  0  0
  4  7  1  0  0  0
  7  9  1  0  0  0
  9 10  2  0  0  0
  9 12  1  0  0  0
 12 13  2  0  0  0
 13 14  1  0  0  0
 13 15  1  0  0  0
 15 16  2  0  0  0
 16 17  1  0  0  0
 17 18  2  0  0  0
 18 19  1  0  0  0
 19 20  2  0  0  0
 20 21  1  0  0  0
 21 22  2  0  0  0
  9 11  2  0  0  0
  4  5  1  0  0  0
  5  6  1  0  0  0
 27 28  2  0  0  0
 28 29  1  0  0  0
 29 33  1  0  0  0
 33 34  1  0  0  0
 33 35  2  0  0  0
 29 30  2  0  0  0
 30 31  1  0  0  0
 31 32  2  0  0  0
 32 27  1  0  0  0
  6  1  1  0  0  0
 22 12  1  0  0  0
 21 16  1  0  0  0
  7  8  1  0  0  0
 14 23  1  0  0  0
 34 36  1  0  0  0
 34 37  1  0  0  0
 35 38  1  0  0  0
M  END
> <minimizedAffinity>
-6.98801

> <CNNscore>
0.2305369675

> <CNNaffinity>
5.1973142624

> <CNN_VS>
1.1981730461

> <CNNaffinity_variance>
0.0157893542

$$$$
[H]N=C(c1c([H])c([H])c([H])c(OC([H])([H])C([H])([H])N2C([H])([H])C([H])([H])C([H])(N([H])S(=O)(=O)c3nc4c([H])c([H])c([H])c([H])c4c([H])c3O[H])C([H])([H])C2([H])[H])c1[H])N([H])[H]


 38 41  0  0  0  0  0  0  0  0999 V2000
  154.4567  139.8284  183.4876 N   0  0  0  0  0  0  0  0  0  0  0  0
  155.8021  140.1286  183.8131 C   0  0  0  0  0  0  0  0  0  0  0  0
  155.9896  141.6322  183.7513 C   0  0  0  0  0  0  0  0  0  0  0  0
  155.6165  142.0406  182.3361 C   0  0  0  0  0  0  0  0  0  0  0  0
  154.1451  141.7739  182.1505 C   0  0  0  0  0  0  0  0  0  0  0  0
  153.5683  140.9030  183.2740 C   0  0  0  0  0  0  0  0  0  0  0  0
  156.3502  141.2941  181.3690 N   0  0  0  0  0  0  0  0  0  0  0  0
  155.7591  141.1346  180.5292 H   0  0  0  0  0  0  0  0  0  0  0  0
  157.8457  141.9862  180.9016 S   0  0  0  0  0  0  0  0  0  0  0  0
  157.6126  143.4281  180.5101 O   0  0  0  0  0  0  0  0  0  0  0  0
  158.4713  141.2394  179.7594 O   0  0  0  0  0  0  0  0  0  0  0  0
  158.9015  141.9927  182.2925 C   0  0  0  0  0  0  0  0  0  0  0  0
  159.3040  140.7827  182.8371 C   0  0  0  0  0  0  0  0  0  0  0  0
  158.8676  139.5937  182.2729 O   0  0  0  0  0  0  0  0  0  0  0  0
  160.1346  140.7247  183.9354 C   0  0  0  0  0  0  0  0  0  0  0  0
  160.5422  141.9300  184.4616 C   0  0  0  0  0  0  0  0  0  0  0  0
  161.3743  141.9354  185.5620 C   0  0  0  0  0  0  0  0  0  0  0  0
  161.8109  143.1134  186.1278 C   0  0  0  0  0  0  0  0  0  0  0  0
  161.4021  144.3124  185.5752 C   0  0  0  0  0  0  0  0  0  0  0  0
  160.5608  144.3173  184.4622 C   0  0  0  0  0  0  0  0  0  0  0  0
  160.1342  143.1400  183.9096 C   0  0  0  0  0  0  0  0  0  0  0  0
  159.3169  143.1462  182.8294 N   0  0  0  0  0  0  0  0  0  0  0  0
  159.1252  138.6866  182.6193 H   0  0  0  0  0  0  0  0  0  0  0  0
  153.9369  138.5780  183.8741 C   0  0  0  0  0  0  0  0  0  0  0  0
  152.7067  138.1111  183.1348 C   0  0  0  0  0  0  0  0  0  0  0  0
  152.9616  138.2763  181.7529 O   0  0  0  0  0  0  0  0  0  0  0  0
  151.9083  138.5859  180.9082 C   0  0  0  0  0  0  0  0  0  0  0  0
  150.7020  137.8845  180.9406 C   0  0  0  0  0  0  0  0  0  0  0  0
  149.6726  138.1962  180.1070 C   0  0  0  0  0  0  0  0  0  0  0  0
  149.7805  139.2323  179.1833 C   0  0  0  0  0  0  0  0  0  0  0  0
  150.9580  139.9333  179.1362 C   0  0  0  0  0  0  0  0  0  0  0  0
  151.9945  139.6128  179.9819 C   0  0  0  0  0  0  0  0  0  0  0  0
  148.4139  137.4502  180.1555 C   0  0  0  0  0  0  0  0  0  0  0  0
  147.3914  137.8109  181.0733 N   0  0  0  0  0  0  0  0  0  0  0  0
  148.1842  136.4606  179.3893 N   0  0  0  0  0  0  0  0  0  0  0  0
  146.4082  137.8205  180.7733 H   0  0  0  0  0  0  0  0  0  0  0  0
  147.6235  138.0674  182.0507 H   0  0  0  0  0  0  0  0  0  0  0  0
  148.8089  136.0785  178.6815 H   0  0  0  0  0  0  0  0  0  0  0  0
 27 26  1  0  0  0
 26 25  1  0  0  0
 25 24  1  0  0  0
 24  1  1  0  0  0
  1  2  1  0  0  0
  2  3  1  0  0  0
  3  4  1  0  0  0
  4  7  1  0  0  0
  7  9  1  0  0  0
  9 10  2  0  0  0
  9 12  1  0  0  0
 12 13  2  0  0  0
 13 14  1  0  0  0
 13 15  1  0  0  0
 15 16  2  0  0  0
 16 17  1  0  0  0
 17 18  2  0  0  0
 18 19  1  0  0  0
 19 20  2  0  0  0
 20 21  1  0  0  0
 21 22  2  0  0  0
  9 11  2  0  0  0
  4  5  1  0  0  0
  5  6  1  0  0  0
 27 28  2  0  0  0
 28 29  1  0  0  0
 29 33  1  0  0  0
 33 34  1  0  0  0
 33 35  2  0  0  0
 29 30  2  0  0  0
 30 31  1  0  0  0
 31 32  2  0  0  0
 32 27  1  0  0  0
  6  1  1  0  0  0
 22 12  1  0  0  0
 21 16  1  0  0  0
  7  8  1  0  0  0
 14 23  1  0  0  0
 34 36  1  0  0  0
 34 37  1  0  0  0
 35 38  1  0  0  0
M  END
> <minimizedAffinity>
-8.70454

> <CNNscore>
0.1778263599

> <CNNaffinity>
6.0868253708

> <CNN_VS>
1.0823980570

> <CNNaffinity_variance>
0.1104148403

$$$$
[H]N=C(c1c([H])c([H])c([H])c(OC([H])([H])C([H])([H])N2C([H])([H])C([H])([H])C([H])(N([H])S(=O)(=O)c3nc4c([H])c([H])c([H])c([H])c4c([H])c3O[H])C([H])([H])C2([H])[H])c1[H])N([H])[H]


 38 41  0  0  0  0  0  0  0  0999 V2000
  153.9775  137.7893  185.5612 N   0  0  0  0  0  0  0  0  0  0  0  0
  153.2917  138.0366  186.7755 C   0  0  0  0  0  0  0  0  0  0  0  0
  152.6644  136.7394  187.2483 C   0  0  0  0  0  0  0  0  0  0  0  0
  151.7423  136.2899  186.1273 C   0  0  0  0  0  0  0  0  0  0  0  0
  152.5966  135.9542  184.9324 C   0  0  0  0  0  0  0  0  0  0  0  0
  154.0359  136.4614  185.0888 C   0  0  0  0  0  0  0  0  0  0  0  0
  150.8222  137.3169  185.7676 N   0  0  0  0  0  0  0  0  0  0  0  0
  151.3240  138.0738  185.2622 H   0  0  0  0  0  0  0  0  0  0  0  0
  149.4786  136.7946  184.8424 S   0  0  0  0  0  0  0  0  0  0  0  0
  148.2137  137.3195  185.4835 O   0  0  0  0  0  0  0  0  0  0  0  0
  149.4201  135.2979  184.7426 O   0  0  0  0  0  0  0  0  0  0  0  0
  149.5937  137.5191  183.2576 C   0  0  0  0  0  0  0  0  0  0  0  0
  148.5137  137.4213  182.3934 C   0  0  0  0  0  0  0  0  0  0  0  0
  147.3658  136.7566  182.7969 O   0  0  0  0  0  0  0  0  0  0  0  0
  148.5466  137.9711  181.1300 C   0  0  0  0  0  0  0  0  0  0  0  0
  149.7068  138.6212  180.7730 C   0  0  0  0  0  0  0  0  0  0  0  0
  149.7988  139.1914  179.5202 C   0  0  0  0  0  0  0  0  0  0  0  0
  150.9370  139.8527  179.1128 C   0  0  0  0  0  0  0  0  0  0  0  0
  152.0060  139.9427  179.9840 C   0  0  0  0  0  0  0  0  0  0  0  0
  151.9224  139.3693  181.2532 C   0  0  0  0  0  0  0  0  0  0  0  0
  150.7860  138.7152  181.6458 C   0  0  0  0  0  0  0  0  0  0  0  0
  150.7065  138.1585  182.8780 N   0  0  0  0  0  0  0  0  0  0  0  0
  146.5507  136.6538  182.2189 H   0  0  0  0  0  0  0  0  0  0  0  0
  154.9660  138.7049  185.1514 C   0  0  0  0  0  0  0  0  0  0  0  0
  154.6514  139.5167  183.9185 C   0  0  0  0  0  0  0  0  0  0  0  0
  155.4389  140.6906  183.9788 O   0  0  0  0  0  0  0  0  0  0  0  0
  156.6713  140.7053  183.3465 C   0  0  0  0  0  0  0  0  0  0  0  0
  156.9127  141.4820  182.2122 C   0  0  0  0  0  0  0  0  0  0  0  0
  158.1270  141.4902  181.5980 C   0  0  0  0  0  0  0  0  0  0  0  0
  159.1834  140.7207  182.0777 C   0  0  0  0  0  0  0  0  0  0  0  0
  158.9659  139.9507  183.1913 C   0  0  0  0  0  0  0  0  0  0  0  0
  157.7359  139.9473  183.8071 C   0  0  0  0  0  0  0  0  0  0  0  0
  158.3625  142.3120  180.4095 C   0  0  0  0  0  0  0  0  0  0  0  0
  158.0596  141.8165  179.1130 N   0  0  0  0  0  0  0  0  0  0  0  0
  158.8420  143.4882  180.4846 N   0  0  0  0  0  0  0  0  0  0  0  0
  157.6048  142.4255  178.4209 H   0  0  0  0  0  0  0  0  0  0  0  0
  158.2923  140.8406  178.8514 H   0  0  0  0  0  0  0  0  0  0  0  0
  159.1097  143.9855  181.3322 H   0  0  0  0  0  0  0  0  0  0  0  0
 27 26  1  0  0  0
 26 25  1  0  0  0
 25 24  1  0  0  0
 24  1  1  0  0  0
  1  2  1  0  0  0
  2  3  1  0  0  0
  3  4  1  0  0  0
  4  7  1  0  0  0
  7  9  1  0  0  0
  9 10  2  0  0  0
  9 12  1  0  0  0
 12 13  2  0  0  0
 13 14  1  0  0  0
 13 15  1  0  0  0
 15 16  2  0  0  0
 16 17  1  0  0  0
 17 18  2  0  0  0
 18 19  1  0  0  0
 19 20  2  0  0  0
 20 21  1  0  0  0
 21 22  2  0  0  0
  9 11  2  0  0  0
  4  5  1  0  0  0
  5  6  1  0  0  0
 27 28  2  0  0  0
 28 29  1  0  0  0
 29 33  1  0  0  0
 33 34  1  0  0  0
 33 35  2  0  0  0
 29 30  2  0  0  0
 30 31  1  0  0  0
 31 32  2  0  0  0
 32 27  1  0  0  0
  6  1  1  0  0  0
 22 12  1  0  0  0
 21 16  1  0  0  0
  7  8  1  0  0  0
 14 23  1  0  0  0
 34 36  1  0  0  0
 34 37  1  0  0  0
 35 38  1  0  0  0
M  END
> <minimizedAffinity>
-7.31968

> <CNNscore>
0.1745209545

> <CNNaffinity>
5.8650803566

> <CNN_VS>
1.0235794783

> <CNNaffinity_variance>
0.0887943134

$$$$
[H]N=C(c1c([H])c([H])c([H])c(OC([H])([H])C([H])([H])N2C([H])([H])C([H])([H])C([H])(N([H])S(=O)(=O)c3nc4c([H])c([H])c([H])c([H])c4c([H])c3O[H])C([H])([H])C2([H])[H])c1[H])N([H])[H]


 38 41  0  0  0  0  0  0  0  0999 V2000
  154.4076  138.5032  186.0310 N   0  0  0  0  0  0  0  0  0  0  0  0
  155.5421  137.9366  186.6620 C   0  0  0  0  0  0  0  0  0  0  0  0
  155.0774  136.8241  187.5819 C   0  0  0  0  0  0  0  0  0  0  0  0
  154.1138  137.4703  188.5632 C   0  0  0  0  0  0  0  0  0  0  0  0
  152.9066  137.9329  187.7893 C   0  0  0  0  0  0  0  0  0  0  0  0
  153.1484  137.9158  186.2745 C   0  0  0  0  0  0  0  0  0  0  0  0
  154.7074  138.5912  189.2129 N   0  0  0  0  0  0  0  0  0  0  0  0
  154.0554  139.3998  189.1792 H   0  0  0  0  0  0  0  0  0  0  0  0
  155.2027  138.3135  190.8290 S   0  0  0  0  0  0  0  0  0  0  0  0
  154.9469  139.5655  191.6374 O   0  0  0  0  0  0  0  0  0  0  0  0
  156.6541  137.9387  190.9092 O   0  0  0  0  0  0  0  0  0  0  0  0
  154.1971  137.0522  191.4979 C   0  0  0  0  0  0  0  0  0  0  0  0
  154.6477  135.7414  191.4593 C   0  0  0  0  0  0  0  0  0  0  0  0
  155.8815  135.4528  190.8964 O   0  0  0  0  0  0  0  0  0  0  0  0
  153.8978  134.7037  191.9695 C   0  0  0  0  0  0  0  0  0  0  0  0
  152.6799  135.0378  192.5182 C   0  0  0  0  0  0  0  0  0  0  0  0
  151.8842  134.0412  193.0444 C   0  0  0  0  0  0  0  0  0  0  0  0
  150.6568  134.3213  193.6045 C   0  0  0  0  0  0  0  0  0  0  0  0
  150.2198  135.6320  193.6364 C   0  0  0  0  0  0  0  0  0  0  0  0
  151.0173  136.6469  193.1068 C   0  0  0  0  0  0  0  0  0  0  0  0
  152.2347  136.3554  192.5532 C   0  0  0  0  0  0  0  0  0  0  0  0
  153.0077  137.3416  192.0390 N   0  0  0  0  0  0  0  0  0  0  0  0
  156.2638  134.5255  190.8405 H   0  0  0  0  0  0  0  0  0  0  0  0
  154.5988  139.2456  184.8497 C   0  0  0  0  0  0  0  0  0  0  0  0
  156.0174  139.3352  184.3421 C   0  0  0  0  0  0  0  0  0  0  0  0
  156.5247  140.5949  184.7391 O   0  0  0  0  0  0  0  0  0  0  0  0
  157.8315  140.9237  184.4182 C   0  0  0  0  0  0  0  0  0  0  0  0
  158.6819  141.5531  185.3286 C   0  0  0  0  0  0  0  0  0  0  0  0
  159.9644  141.8719  185.0044 C   0  0  0  0  0  0  0  0  0  0  0  0
  160.4837  141.5822  183.7455 C   0  0  0  0  0  0  0  0  0  0  0  0
  159.6636  140.9639  182.8370 C   0  0  0  0  0  0  0  0  0  0  0  0
  158.3682  140.6445  183.1716 C   0  0  0  0  0  0  0  0  0  0  0  0
  160.8427  142.5312  185.9724 C   0  0  0  0  0  0  0  0  0  0  0  0
  160.3519  142.9274  187.2453 N   0  0  0  0  0  0  0  0  0  0  0  0
  162.0658  142.7749  185.7198 N   0  0  0  0  0  0  0  0  0  0  0  0
  160.9210  142.7762  188.0880 H   0  0  0  0  0  0  0  0  0  0  0  0
  159.4194  143.3710  187.3387 H   0  0  0  0  0  0  0  0  0  0  0  0
  162.5671  142.5560  184.8607 H   0  0  0  0  0  0  0  0  0  0  0  0
 27 26  1  0  0  0
 26 25  1  0  0  0
 25 24  1  0  0  0
 24  1  1  0  0  0
  1  2  1  0  0  0
  2  3  1  0  0  0
  3  4  1  0  0  0
  4  7  1  0  0  0
  7  9  1  0  0  0
  9 10  2  0  0  0
  9 12  1  0  0  0
 12 13  2  0  0  0
 13 14  1  0  0  0
 13 15  1  0  0  0
 15 16  2  0  0  0
 16 17  1  0  0  0
 17 18  2  0  0  0
 18 19  1  0  0  0
 19 20  2  0  0  0
 20 21  1  0  0  0
 21 22  2  0  0  0
  9 11  2  0  0  0
  4  5  1  0  0  0
  5  6  1  0  0  0
 27 28  2  0  0  0
 28 29  1  0  0  0
 29 33  1  0  0  0
 33 34  1  0  0  0
 33 35  2  0  0  0
 29 30  2  0  0  0
 30 31  1  0  0  0
 31 32  2  0  0  0
 32 27  1  0  0  0
  6  1  1  0  0  0
 22 12  1  0  0  0
 21 16  1  0  0  0
  7  8  1  0  0  0
 14 23  1  0  0  0
 34 36  1  0  0  0
 34 37  1  0  0  0
 35 38  1  0  0  0
M  END
> <minimizedAffinity>
-8.38069

> <CNNscore>
0.1659657061

> <CNNaffinity>
5.7304024696

> <CNN_VS>
0.9510502815

> <CNNaffinity_variance>
0.0982873365

$$$$
[H]N=C(c1c([H])c([H])c([H])c(OC([H])([H])C([H])([H])N2C([H])([H])C([H])([H])C([H])(N([H])S(=O)(=O)c3nc4c([H])c([H])c([H])c([H])c4c([H])c3O[H])C([H])([H])C2([H])[H])c1[H])N([H])[H]


 38 41  0  0  0  0  0  0  0  0999 V2000
  154.2406  138.4698  186.7144 N   0  0  0  0  0  0  0  0  0  0  0  0
  153.5341  138.5642  185.4905 C   0  0  0  0  0  0  0  0  0  0  0  0
  154.4703  138.1782  184.3617 C   0  0  0  0  0  0  0  0  0  0  0  0
  155.6428  139.1411  184.4454 C   0  0  0  0  0  0  0  0  0  0  0  0
  156.3739  138.8687  185.7345 C   0  0  0  0  0  0  0  0  0  0  0  0
  155.5621  137.9774  186.6832 C   0  0  0  0  0  0  0  0  0  0  0  0
  155.2037  140.4969  184.4372 N   0  0  0  0  0  0  0  0  0  0  0  0
  155.4223  140.9401  185.3515 H   0  0  0  0  0  0  0  0  0  0  0  0
  155.8330  141.4547  183.1642 S   0  0  0  0  0  0  0  0  0  0  0  0
  154.9431  142.6632  182.9798 O   0  0  0  0  0  0  0  0  0  0  0  0
  155.9227  140.6830  181.8796 O   0  0  0  0  0  0  0  0  0  0  0  0
  157.4053  142.0400  183.6487 C   0  0  0  0  0  0  0  0  0  0  0  0
  158.1867  142.7142  182.7226 C   0  0  0  0  0  0  0  0  0  0  0  0
  157.7118  142.9145  181.4355 O   0  0  0  0  0  0  0  0  0  0  0  0
  159.4363  143.1973  183.0461 C   0  0  0  0  0  0  0  0  0  0  0  0
  159.8660  142.9750  184.3352 C   0  0  0  0  0  0  0  0  0  0  0  0
  161.1092  143.4352  184.7175 C   0  0  0  0  0  0  0  0  0  0  0  0
  161.5873  143.2388  185.9947 C   0  0  0  0  0  0  0  0  0  0  0  0
  160.7982  142.5651  186.9078 C   0  0  0  0  0  0  0  0  0  0  0  0
  159.5396  142.0961  186.5307 C   0  0  0  0  0  0  0  0  0  0  0  0
  159.0762  142.2978  185.2587 C   0  0  0  0  0  0  0  0  0  0  0  0
  157.8543  141.8413  184.8938 N   0  0  0  0  0  0  0  0  0  0  0  0
  158.2281  143.3963  180.7211 H   0  0  0  0  0  0  0  0  0  0  0  0
  153.5014  138.3691  187.9088 C   0  0  0  0  0  0  0  0  0  0  0  0
  154.2746  137.9559  189.1374 C   0  0  0  0  0  0  0  0  0  0  0  0
  153.7237  136.7324  189.5861 O   0  0  0  0  0  0  0  0  0  0  0  0
  152.9272  136.7305  190.7194 C   0  0  0  0  0  0  0  0  0  0  0  0
  151.7344  136.0086  190.7853 C   0  0  0  0  0  0  0  0  0  0  0  0
  150.9586  136.0125  191.9033 C   0  0  0  0  0  0  0  0  0  0  0  0
  151.3241  136.7401  193.0326 C   0  0  0  0  0  0  0  0  0  0  0  0
  152.4928  137.4559  192.9874 C   0  0  0  0  0  0  0  0  0  0  0  0
  153.2722  137.4473  191.8540 C   0  0  0  0  0  0  0  0  0  0  0  0
  149.7109  135.2485  191.9549 C   0  0  0  0  0  0  0  0  0  0  0  0
  149.1410  134.8729  193.2009 N   0  0  0  0  0  0  0  0  0  0  0  0
  149.0915  134.8926  190.9019 N   0  0  0  0  0  0  0  0  0  0  0  0
  148.1264  134.9484  193.3482 H   0  0  0  0  0  0  0  0  0  0  0  0
  149.7383  134.5203  193.9716 H   0  0  0  0  0  0  0  0  0  0  0  0
  149.3654  135.0813  189.9393 H   0  0  0  0  0  0  0  0  0  0  0  0
 27 26  1  0  0  0
 26 25  1  0  0  0
 25 24  1  0  0  0
 24  1  1  0  0  0
  1  2  1  0  0  0
  2  3  1  0  0  0
  3  4  1  0  0  0
  4  7  1  0  0  0
  7  9  1  0  0  0
  9 10  2  0  0  0
  9 12  1  0  0  0
 12 13  2  0  0  0
 13 14  1  0  0  0
 13 15  1  0  0  0
 15 16  2  0  0  0
 16 17  1  0  0  0
 17 18  2  0  0  0
 18 19  1  0  0  0
 19 20  2  0  0  0
 20 21  1  0  0  0
 21 22  2  0  0  0
  9 11  2  0  0  0
  4  5  1  0  0  0
  5  6  1  0  0  0
 27 28  2  0  0  0
 28 29  1  0  0  0
 29 33  1  0  0  0
 33 34  1  0  0  0
 33 35  2  0  0  0
 29 30  2  0  0  0
 30 31  1  0  0  0
 31 32  2  0  0  0
 32 27  1  0  0  0
  6  1  1  0  0  0
 22 12  1  0  0  0
 21 16  1  0  0  0
  7  8  1  0  0  0
 14 23  1  0  0  0
 34 36  1  0  0  0
 34 37  1  0  0  0
 35 38  1  0  0  0
M  END
> <minimizedAffinity>
-8.67204

> <CNNscore>
0.1508203447

> <CNNaffinity>
5.7588071823

> <CNN_VS>
0.8685452938

> <CNNaffinity_variance>
0.0414071269

$$$$
[H]N=C(c1c([H])c([H])c([H])c(OC([H])([H])C([H])([H])N2C([H])([H])C([H])([H])C([H])(N([H])S(=O)(=O)c3nc4c([H])c([H])c([H])c([H])c4c([H])c3O[H])C([H])([H])C2([H])[H])c1[H])N([H])[H]


 38 41  0  0  0  0  0  0  0  0999 V2000
  153.8480  138.5823  185.2786 N   0  0  0  0  0  0  0  0  0  0  0  0
  155.0080  137.9002  185.7204 C   0  0  0  0  0  0  0  0  0  0  0  0
  154.5801  136.6316  186.4326 C   0  0  0  0  0  0  0  0  0  0  0  0
  153.6833  137.0778  187.5752 C   0  0  0  0  0  0  0  0  0  0  0  0
  152.4409  137.6859  186.9777 C   0  0  0  0  0  0  0  0  0  0  0  0
  152.5962  137.9629  185.4768 C   0  0  0  0  0  0  0  0  0  0  0  0
  154.3290  138.0491  188.3941 N   0  0  0  0  0  0  0  0  0  0  0  0
  153.8027  138.9444  188.3546 H   0  0  0  0  0  0  0  0  0  0  0  0
  154.5581  137.5836  190.0266 S   0  0  0  0  0  0  0  0  0  0  0  0
  153.2757  136.9697  190.5413 O   0  0  0  0  0  0  0  0  0  0  0  0
  154.9503  138.7493  190.8874 O   0  0  0  0  0  0  0  0  0  0  0  0
  155.7815  136.3383  190.0715 C   0  0  0  0  0  0  0  0  0  0  0  0
  155.9027  135.5554  191.2095 C   0  0  0  0  0  0  0  0  0  0  0  0
  155.0563  135.7690  192.2867 O   0  0  0  0  0  0  0  0  0  0  0  0
  156.8503  134.5591  191.3041 C   0  0  0  0  0  0  0  0  0  0  0  0
  157.6683  134.3835  190.2104 C   0  0  0  0  0  0  0  0  0  0  0  0
  158.6365  133.4014  190.2467 C   0  0  0  0  0  0  0  0  0  0  0  0
  159.4812  133.1845  189.1799 C   0  0  0  0  0  0  0  0  0  0  0  0
  159.3496  133.9721  188.0519 C   0  0  0  0  0  0  0  0  0  0  0  0
  158.3734  134.9677  188.0057 C   0  0  0  0  0  0  0  0  0  0  0  0
  157.5404  135.1730  189.0722 C   0  0  0  0  0  0  0  0  0  0  0  0
  156.5935  136.1404  189.0261 N   0  0  0  0  0  0  0  0  0  0  0  0
  155.0926  135.2349  193.1367 H   0  0  0  0  0  0  0  0  0  0  0  0
  153.9827  139.5396  184.2546 C   0  0  0  0  0  0  0  0  0  0  0  0
  155.3356  139.6177  183.5901 C   0  0  0  0  0  0  0  0  0  0  0  0
  155.8232  140.9311  183.7876 O   0  0  0  0  0  0  0  0  0  0  0  0
  157.0179  141.3003  183.1914 C   0  0  0  0  0  0  0  0  0  0  0  0
  158.1896  141.4786  183.9286 C   0  0  0  0  0  0  0  0  0  0  0  0
  159.3587  141.8411  183.3340 C   0  0  0  0  0  0  0  0  0  0  0  0
  159.4347  142.0501  181.9597 C   0  0  0  0  0  0  0  0  0  0  0  0
  158.2939  141.8799  181.2181 C   0  0  0  0  0  0  0  0  0  0  0  0
  157.1156  141.5133  181.8257 C   0  0  0  0  0  0  0  0  0  0  0  0
  160.5784  142.0227  184.1229 C   0  0  0  0  0  0  0  0  0  0  0  0
  161.7706  141.3273  183.7864 N   0  0  0  0  0  0  0  0  0  0  0  0
  160.6235  142.7996  185.1297 N   0  0  0  0  0  0  0  0  0  0  0  0
  162.6767  141.8120  183.8151 H   0  0  0  0  0  0  0  0  0  0  0  0
  161.7409  140.3286  183.5095 H   0  0  0  0  0  0  0  0  0  0  0  0
  159.8614  143.3656  185.4986 H   0  0  0  0  0  0  0  0  0  0  0  0
 27 26  1  0  0  0
 26 25  1  0  0  0
 25 24  1  0  0  0
 24  1  1  0  0  0
  1  2  1  0  0  0
  2  3  1  0  0  0
  3  4  1  0  0  0
  4  7  1  0  0  0
  7  9  1  0  0  0
  9 10  2  0  0  0
  9 12  1  0  0  0
 12 13  2  0  0  0
 13 14  1  0  0  0
 13 15  1  0  0  0
 15 16  2  0  0  0
 16 17  1  0  0  0
 17 18  2  0  0  0
 18 19  1  0  0  0
 19 20  2  0  0  0
 20 21  1  0  0  0
 21 22  2  0  0  0
  9 11  2  0  0  0
  4  5  1  0  0  0
  5  6  1  0  0  0
 27 28  2  0  0  0
 28 29  1  0  0  0
 29 33  1  0  0  0
 33 34  1  0  0  0
 33 35  2  0  0  0
 29 30  2  0  0  0
 30 31  1  0  0  0
 31 32  2  0  0  0
 32 27  1  0  0  0
  6  1  1  0  0  0
 22 12  1  0  0  0
 21 16  1  0  0  0
  7  8  1  0  0  0
 14 23  1  0  0  0
 34 36  1  0  0  0
 34 37  1  0  0  0
 35 38  1  0  0  0
M  END
> <minimizedAffinity>
-7.53116

> <CNNscore>
0.1414958686

> <CNNaffinity>
5.9191203117

> <CNN_VS>
0.8375310898

> <CNNaffinity_variance>
0.0236586370

$$$$
[H]N=C(c1c([H])c([H])c([H])c(OC([H])([H])C([H])([H])N2C([H])([H])C([H])([H])C([H])(N([H])S(=O)(=O)c3nc4c([H])c([H])c([H])c([H])c4c([H])c3O[H])C([H])([H])C2([H])[H])c1[H])N([H])[H]


 38 41  0  0  0  0  0  0  0  0999 V2000
  155.2101  137.6133  188.4605 N   0  0  0  0  0  0  0  0  0  0  0  0
  154.1215  138.5121  188.5756 C   0  0  0  0  0  0  0  0  0  0  0  0
  152.9091  137.8896  187.9106 C   0  0  0  0  0  0  0  0  0  0  0  0
  153.3129  137.6288  186.4691 C   0  0  0  0  0  0  0  0  0  0  0  0
  154.3964  136.5817  186.4745 C   0  0  0  0  0  0  0  0  0  0  0  0
  154.9714  136.3509  187.8779 C   0  0  0  0  0  0  0  0  0  0  0  0
  153.8108  138.8102  185.8468 N   0  0  0  0  0  0  0  0  0  0  0  0
  154.6271  139.1686  186.3809 H   0  0  0  0  0  0  0  0  0  0  0  0
  154.2301  138.6374  184.1950 S   0  0  0  0  0  0  0  0  0  0  0  0
  153.0917  139.1593  183.3476 O   0  0  0  0  0  0  0  0  0  0  0  0
  154.5192  137.2075  183.8412 O   0  0  0  0  0  0  0  0  0  0  0  0
  155.6173  139.6492  183.8763 C   0  0  0  0  0  0  0  0  0  0  0  0
  156.6698  139.6513  184.7791 C   0  0  0  0  0  0  0  0  0  0  0  0
  156.6077  138.8548  185.9123 O   0  0  0  0  0  0  0  0  0  0  0  0
  157.7896  140.4302  184.5823 C   0  0  0  0  0  0  0  0  0  0  0  0
  157.8070  141.2045  183.4438 C   0  0  0  0  0  0  0  0  0  0  0  0
  158.9017  142.0058  183.1932 C   0  0  0  0  0  0  0  0  0  0  0  0
  158.9693  142.8002  182.0694 C   0  0  0  0  0  0  0  0  0  0  0  0
  157.9133  142.7887  181.1779 C   0  0  0  0  0  0  0  0  0  0  0  0
  156.8019  141.9816  181.4226 C   0  0  0  0  0  0  0  0  0  0  0  0
  156.7471  141.1970  182.5428 C   0  0  0  0  0  0  0  0  0  0  0  0
  155.6672  140.4144  182.7794 N   0  0  0  0  0  0  0  0  0  0  0  0
  157.3372  138.8107  186.6015 H   0  0  0  0  0  0  0  0  0  0  0  0
  156.3011  137.7663  189.3375 C   0  0  0  0  0  0  0  0  0  0  0  0
  155.9763  138.2714  190.7223 C   0  0  0  0  0  0  0  0  0  0  0  0
  156.0331  137.1603  191.5965 O   0  0  0  0  0  0  0  0  0  0  0  0
  154.9683  136.2748  191.6266 C   0  0  0  0  0  0  0  0  0  0  0  0
  153.6598  136.6977  191.8651 C   0  0  0  0  0  0  0  0  0  0  0  0
  152.6200  135.8203  191.8925 C   0  0  0  0  0  0  0  0  0  0  0  0
  152.8194  134.4585  191.6830 C   0  0  0  0  0  0  0  0  0  0  0  0
  154.0981  134.0234  191.4470 C   0  0  0  0  0  0  0  0  0  0  0  0
  155.1444  134.9159  191.4206 C   0  0  0  0  0  0  0  0  0  0  0  0
  151.2535  136.2819  192.1434 C   0  0  0  0  0  0  0  0  0  0  0  0
  150.1381  135.4919  191.7561 N   0  0  0  0  0  0  0  0  0  0  0  0
  151.0086  137.3943  192.7105 N   0  0  0  0  0  0  0  0  0  0  0  0
  149.3309  135.3947  192.3853 H   0  0  0  0  0  0  0  0  0  0  0  0
  150.1253  135.0069  190.8398 H   0  0  0  0  0  0  0  0  0  0  0  0
  151.6910  138.0718  193.0460 H   0  0  0  0  0  0  0  0  0  0  0  0
 27 26  1  0  0  0
 26 25  1  0  0  0
 25 24  1  0  0  0
 24  1  1  0  0  0
  1  2  1  0  0  0
  2  3  1  0  0  0
  3  4  1  0  0  0
  4  7  1  0  0  0
  7  9  1  0  0  0
  9 10  2  0  0  0
  9 12  1  0  0  0
 12 13  2  0  0  0
 13 14  1  0  0  0
 13 15  1  0  0  0
 15 16  2  0  0  0
 16 17  1  0  0  0
 17 18  2  0  0  0
 18 19  1  0  0  0
 19 20  2  0  0  0
 20 21  1  0  0  0
 21 22  2  0  0  0
  9 11  2  0  0  0
  4  5  1  0  0  0
  5  6  1  0  0  0
 27 28  2  0  0  0
 28 29  1  0  0  0
 29 33  1  0  0  0
 33 34  1  0  0  0
 33 35  2  0  0  0
 29 30  2  0  0  0
 30 31  1  0  0  0
 31 32  2  0  0  0
 32 27  1  0  0  0
  6  1  1  0  0  0
 22 12  1  0  0  0
 21 16  1  0  0  0
  7  8  1  0  0  0
 14 23  1  0  0  0
 34 36  1  0  0  0
 34 37  1  0  0  0
 35 38  1  0  0  0
M  END
> <minimizedAffinity>
-7.28800

> <CNNscore>
0.1404182464

> <CNNaffinity>
5.6634283066

> <CNN_VS>
0.7952486873

> <CNNaffinity_variance>
0.0728987679

$$$$
[H]N=C(c1c([H])c([H])c([H])c(OC([H])([H])C([H])([H])N2C([H])([H])C([H])([H])C([H])(N([H])S(=O)(=O)c3nc4c([H])c([H])c([H])c([H])c4c([H])c3O[H])C([H])([H])C2([H])[H])c1[H])N([H])[H]


 38 41  0  0  0  0  0  0  0  0999 V2000
  153.9827  137.6274  185.4427 N   0  0  0  0  0  0  0  0  0  0  0  0
  154.6846  136.5453  186.0278 C   0  0  0  0  0  0  0  0  0  0  0  0
  153.9741  136.1438  187.3060 C   0  0  0  0  0  0  0  0  0  0  0  0
  153.9606  137.3851  188.1824 C   0  0  0  0  0  0  0  0  0  0  0  0
  153.0975  138.4189  187.5067 C   0  0  0  0  0  0  0  0  0  0  0  0
  152.7821  138.0485  186.0517 C   0  0  0  0  0  0  0  0  0  0  0  0
  155.2724  137.9146  188.3541 N   0  0  0  0  0  0  0  0  0  0  0  0
  155.2166  138.9395  188.5173 H   0  0  0  0  0  0  0  0  0  0  0  0
  156.1936  137.1795  189.5972 S   0  0  0  0  0  0  0  0  0  0  0  0
  156.9171  138.2598  190.3693 O   0  0  0  0  0  0  0  0  0  0  0  0
  157.1821  136.1926  189.0473 O   0  0  0  0  0  0  0  0  0  0  0  0
  155.0906  136.4025  190.7058 C   0  0  0  0  0  0  0  0  0  0  0  0
  155.1508  135.0258  190.8602 C   0  0  0  0  0  0  0  0  0  0  0  0
  156.0799  134.2912  190.1393 O   0  0  0  0  0  0  0  0  0  0  0  0
  154.3051  134.3569  191.7186 C   0  0  0  0  0  0  0  0  0  0  0  0
  153.3995  135.1272  192.4129 C   0  0  0  0  0  0  0  0  0  0  0  0
  152.5263  134.5133  193.2870 C   0  0  0  0  0  0  0  0  0  0  0  0
  151.6002  135.2374  194.0057 C   0  0  0  0  0  0  0  0  0  0  0  0
  151.5509  136.6089  193.8423 C   0  0  0  0  0  0  0  0  0  0  0  0
  152.4299  137.2389  192.9608 C   0  0  0  0  0  0  0  0  0  0  0  0
  153.3452  136.5081  192.2527 C   0  0  0  0  0  0  0  0  0  0  0  0
  154.1976  137.1210  191.3969 N   0  0  0  0  0  0  0  0  0  0  0  0
  156.1744  133.2935  190.2086 H   0  0  0  0  0  0  0  0  0  0  0  0
  154.1880  137.8987  184.0762 C   0  0  0  0  0  0  0  0  0  0  0  0
  153.9467  139.3222  183.6365 C   0  0  0  0  0  0  0  0  0  0  0  0
  155.0008  140.1064  184.1616 O   0  0  0  0  0  0  0  0  0  0  0  0
  155.3006  141.3175  183.5598 C   0  0  0  0  0  0  0  0  0  0  0  0
  156.6156  141.7470  183.3741 C   0  0  0  0  0  0  0  0  0  0  0  0
  156.9003  142.9384  182.7815 C   0  0  0  0  0  0  0  0  0  0  0  0
  155.8872  143.7820  182.3340 C   0  0  0  0  0  0  0  0  0  0  0  0
  154.5885  143.3776  182.5075 C   0  0  0  0  0  0  0  0  0  0  0  0
  154.3080  142.1719  183.1073 C   0  0  0  0  0  0  0  0  0  0  0  0
  158.2858  143.3725  182.5940 C   0  0  0  0  0  0  0  0  0  0  0  0
  159.3557  142.6725  183.2133 N   0  0  0  0  0  0  0  0  0  0  0  0
  158.5879  144.3808  181.8791 N   0  0  0  0  0  0  0  0  0  0  0  0
  160.2212  142.4856  182.6911 H   0  0  0  0  0  0  0  0  0  0  0  0
  159.2765  142.3439  184.1935 H   0  0  0  0  0  0  0  0  0  0  0  0
  157.9435  144.9845  181.3716 H   0  0  0  0  0  0  0  0  0  0  0  0
 27 26  1  0  0  0
 26 25  1  0  0  0
 25 24  1  0  0  0
 24  1  1  0  0  0
  1  2  1  0  0  0
  2  3  1  0  0  0
  3  4  1  0  0  0
  4  7  1  0  0  0
  7  9  1  0  0  0
  9 10  2  0  0  0
  9 12  1  0  0  0
 12 13  2  0  0  0
 13 14  1  0  0  0
 13 15  1  0  0  0
 15 16  2  0  0  0
 16 17  1  0  0  0
 17 18  2  0  0  0
 18 19  1  0  0  0
 19 20  2  0  0  0
 20 21  1  0  0  0
 21 22  2  0  0  0
  9 11  2  0  0  0
  4  5  1  0  0  0
  5  6  1  0  0  0
 27 28  2  0  0  0
 28 29  1  0  0  0
 29 33  1  0  0  0
 33 34  1  0  0  0
 33 35  2  0  0  0
 29 30  2  0  0  0
 30 31  1  0  0  0
 31 32  2  0  0  0
 32 27  1  0  0  0
  6  1  1  0  0  0
 22 12  1  0  0  0
 21 16  1  0  0  0
  7  8  1  0  0  0
 14 23  1  0  0  0
 34 36  1  0  0  0
 34 37  1  0  0  0
 35 38  1  0  0  0
M  END
> <minimizedAffinity>
-7.57254

> <CNNscore>
0.1380598247

> <CNNaffinity>
5.6027574539

> <CNN_VS>
0.7735157013

> <CNNaffinity_variance>
0.1243220121

$$$$
[H]OC(=O)[C@@]1([H])C([H])([H])N(c2c([H])c([H])c(-c3c([H])c([H])c(Cl)c([H])c3[H])c([H])c2[H])C([H])([H])C([H])([H])C1([H])[H]


 23 25  0  0  0  0  0  0  0  0999 V2000
  151.1766  135.2469  182.8766 C   0  0  0  0  0  0  0  0  0  0  0  0
  152.0462  135.8573  182.0163 C   0  0  0  0  0  0  0  0  0  0  0  0
  153.2908  135.2992  181.7487 C   0  0  0  0  0  0  0  0  0  0  0  0
  153.6514  134.1219  182.3547 C   0  0  0  0  0  0  0  0  0  0  0  0
  152.7865  133.4975  183.2217 C   0  0  0  0  0  0  0  0  0  0  0  0
  151.5576  134.0549  183.4818 C   0  0  0  0  0  0  0  0  0  0  0  0
  154.9556  133.5323  182.0773 C   0  0  0  0  0  0  0  0  0  0  0  0
  155.6144  132.8099  183.0340 C   0  0  0  0  0  0  0  0  0  0  0  0
  156.8600  132.2690  182.7109 C   0  0  0  0  0  0  0  0  0  0  0  0
  157.4176  132.4470  181.4804 C   0  0  0  0  0  0  0  0  0  0  0  0
  158.9845  131.7692  181.0671 Cl  0  0  0  0  0  0  0  0  0  0  0  0
  156.7525  133.1720  180.5260 C   0  0  0  0  0  0  0  0  0  0  0  0
  155.5132  133.7159  180.8327 C   0  0  0  0  0  0  0  0  0  0  0  0
  148.6601  137.4077  184.4510 C   0  0  0  0  0  0  0  0  0  0  0  0
  147.3508  136.8198  184.0466 C   0  0  0  0  0  0  0  0  0  0  0  0
  147.4862  135.6547  183.1187 C   0  0  0  0  0  0  0  0  0  0  0  0
  148.7629  134.8837  183.3799 C   0  0  0  0  0  0  0  0  0  0  0  0
  149.8865  135.7765  183.1959 N   0  0  0  0  0  0  0  0  0  0  0  0
  149.6783  137.1866  183.3430 C   0  0  0  0  0  0  0  0  0  0  0  0
  148.3891  136.1096  186.5341 O   0  0  0  0  0  0  0  0  0  0  0  0
  149.1849  136.9214  185.7430 C   0  0  0  0  0  0  0  0  0  0  0  0
  150.3361  137.2264  186.1430 O   0  0  0  0  0  0  0  0  0  0  0  0
  148.7674  135.4234  187.1713 H   0  0  0  0  0  0  0  0  0  0  0  0
 20 21  1  0  0  0
 21 22  2  0  0  0
 21 14  1  0  0  0
 14 15  1  0  0  0
 15 16  1  0  0  0
 16 17  1  0  0  0
 17 18  1  0  0  0
 18 19  1  0  0  0
 18  1  1  0  0  0
  1  2  2  0  0  0
  2  3  1  0  0  0
  3  4  2  0  0  0
  4  5  1  0  0  0
  5  6  2  0  0  0
  4  7  1  0  0  0
  7  8  2  0  0  0
  8  9  1  0  0  0
  9 10  2  0  0  0
 10 11  1  0  0  0
 10 12  1  0  0  0
 12 13  2  0  0  0
 19 14  1  0  0  0
  6  1  1  0  0  0
 13  7  1  0  0  0
 20 23  1  0  0  0
M  END
> <minimizedAffinity>
-3.81024

> <CNNscore>
0.5396271944

> <CNNaffinity>
4.3198456764

> <CNN_VS>
2.3311061859

> <CNNaffinity_variance>
0.2767916322

$$$$
[H]OC(=O)[C@@]1([H])C([H])([H])N(c2c([H])c([H])c(-c3c([H])c([H])c(Cl)c([H])c3[H])c([H])c2[H])C([H])([H])C([H])([H])C1([H])[H]


 23 25  0  0  0  0  0  0  0  0999 V2000
  155.0840  138.1102  187.5290 C   0  0  0  0  0  0  0  0  0  0  0  0
  155.9187  138.3433  186.4716 C   0  0  0  0  0  0  0  0  0  0  0  0
  155.4071  138.6581  185.2181 C   0  0  0  0  0  0  0  0  0  0  0  0
  154.0487  138.7359  185.0391 C   0  0  0  0  0  0  0  0  0  0  0  0
  153.1981  138.5041  186.0938 C   0  0  0  0  0  0  0  0  0  0  0  0
  153.7106  138.1932  187.3304 C   0  0  0  0  0  0  0  0  0  0  0  0
  153.5072  139.0659  183.7264 C   0  0  0  0  0  0  0  0  0  0  0  0
  153.7798  140.2714  183.1401 C   0  0  0  0  0  0  0  0  0  0  0  0
  153.2339  140.5314  181.8820 C   0  0  0  0  0  0  0  0  0  0  0  0
  152.4488  139.6195  181.2426 C   0  0  0  0  0  0  0  0  0  0  0  0
  151.7587  139.9401  179.6595 Cl  0  0  0  0  0  0  0  0  0  0  0  0
  152.1792  138.4133  181.8354 C   0  0  0  0  0  0  0  0  0  0  0  0
  152.7150  138.1405  183.0861 C   0  0  0  0  0  0  0  0  0  0  0  0
  156.2795  136.0270  190.3060 C   0  0  0  0  0  0  0  0  0  0  0  0
  156.3351  136.9510  191.4750 C   0  0  0  0  0  0  0  0  0  0  0  0
  155.9810  138.3629  191.1311 C   0  0  0  0  0  0  0  0  0  0  0  0
  154.9770  138.4224  189.9993 C   0  0  0  0  0  0  0  0  0  0  0  0
  155.5512  137.7759  188.8392 N   0  0  0  0  0  0  0  0  0  0  0  0
  156.5841  136.8018  189.0331 C   0  0  0  0  0  0  0  0  0  0  0  0
  154.0998  135.2969  191.2081 O   0  0  0  0  0  0  0  0  0  0  0  0
  155.0139  135.2784  190.1678 C   0  0  0  0  0  0  0  0  0  0  0  0
  154.7458  134.6241  189.1293 O   0  0  0  0  0  0  0  0  0  0  0  0
  153.1051  135.1939  191.0665 H   0  0  0  0  0  0  0  0  0  0  0  0
 20 21  1  0  0  0
 21 22  2  0  0  0
 21 14  1  0  0  0
 14 15  1  0  0  0
 15 16  1  0  0  0
 16 17  1  0  0  0
 17 18  1  0  0  0
 18 19  1  0  0  0
 18  1  1  0  0  0
  1  2  2  0  0  0
  2  3  1  0  0  0
  3  4  2  0  0  0
  4  5  1  0  0  0
  5  6  2  0  0  0
  4  7  1  0  0  0
  7  8  2  0  0  0
  8  9  1  0  0  0
  9 10  2  0  0  0
 10 11  1  0  0  0
 10 12  1  0  0  0
 12 13  2  0  0  0
 19 14  1  0  0  0
  6  1  1  0  0  0
 13  7  1  0  0  0
 20 23  1  0  0  0
M  END
> <minimizedAffinity>
-7.41740

> <CNNscore>
0.5288661122

> <CNNaffinity>
4.8768320084

> <CNN_VS>
2.5791912079

> <CNNaffinity_variance>
0.1070159450

$$$$
[H]OC(=O)[C@@]1([H])C([H])([H])N(c2c([H])c([H])c(-c3c([H])c([H])c(Cl)c([H])c3[H])c([H])c2[H])C([H])([H])C([H])([H])C1([H])[H]


 23 25  0  0  0  0  0  0  0  0999 V2000
  154.5251  138.7285  185.3621 C   0  0  0  0  0  0  0  0  0  0  0  0
  153.9341  139.3331  184.2878 C   0  0  0  0  0  0  0  0  0  0  0  0
  154.6835  140.0976  183.4011 C   0  0  0  0  0  0  0  0  0  0  0  0
  156.0321  140.2474  183.6058 C   0  0  0  0  0  0  0  0  0  0  0  0
  156.6393  139.6447  184.6818 C   0  0  0  0  0  0  0  0  0  0  0  0
  155.8923  138.8904  185.5546 C   0  0  0  0  0  0  0  0  0  0  0  0
  156.8226  141.0480  182.6786 C   0  0  0  0  0  0  0  0  0  0  0  0
  156.5428  142.3728  182.4843 C   0  0  0  0  0  0  0  0  0  0  0  0
  157.3340  143.0889  181.5844 C   0  0  0  0  0  0  0  0  0  0  0  0
  158.3604  142.4985  180.9103 C   0  0  0  0  0  0  0  0  0  0  0  0
  159.3599  143.3935  179.7766 Cl  0  0  0  0  0  0  0  0  0  0  0  0
  158.6357  141.1705  181.1093 C   0  0  0  0  0  0  0  0  0  0  0  0
  157.8578  140.4456  182.0010 C   0  0  0  0  0  0  0  0  0  0  0  0
  152.2024  136.1848  186.6330 C   0  0  0  0  0  0  0  0  0  0  0  0
  152.1790  136.3979  188.1087 C   0  0  0  0  0  0  0  0  0  0  0  0
  153.1190  137.4670  188.5675 C   0  0  0  0  0  0  0  0  0  0  0  0
  153.2874  138.5447  187.5174 C   0  0  0  0  0  0  0  0  0  0  0  0
  153.8054  137.9362  186.3113 N   0  0  0  0  0  0  0  0  0  0  0  0
  153.5793  136.5383  186.0921 C   0  0  0  0  0  0  0  0  0  0  0  0
  151.2380  136.9892  184.5068 O   0  0  0  0  0  0  0  0  0  0  0  0
  151.1509  136.9046  185.8865 C   0  0  0  0  0  0  0  0  0  0  0  0
  150.1786  137.4429  186.4723 O   0  0  0  0  0  0  0  0  0  0  0  0
  150.4275  137.0689  183.9096 H   0  0  0  0  0  0  0  0  0  0  0  0
 20 21  1  0  0  0
 21 22  2  0  0  0
 21 14  1  0  0  0
 14 15  1  0  0  0
 15 16  1  0  0  0
 16 17  1  0  0  0
 17 18  1  0  0  0
 18 19  1  0  0  0
 18  1  1  0  0  0
  1  2  2  0  0  0
  2  3  1  0  0  0
  3  4  2  0  0  0
  4  5  1  0  0  0
  5  6  2  0  0  0
  4  7  1  0  0  0
  7  8  2  0  0  0
  8  9  1  0  0  0
  9 10  2  0  0  0
 10 11  1  0  0  0
 10 12  1  0  0  0
 12 13  2  0  0  0
 19 14  1  0  0  0
  6  1  1  0  0  0
 13  7  1  0  0  0
 20 23  1  0  0  0
M  END
> <minimizedAffinity>
-7.03475

> <CNNscore>
0.4731609523

> <CNNaffinity>
5.1472845078

> <CNN_VS>
2.4354939461

> <CNNaffinity_variance>
0.1276745498

$$$$
[H]OC(=O)[C@@]1([H])C([H])([H])N(c2c([H])c([H])c(-c3c([H])c([H])c(Cl)c([H])c3[H])c([H])c2[H])C([H])([H])C([H])([H])C1([H])[H]


 23 25  0  0  0  0  0  0  0  0999 V2000
  155.4919  139.1970  184.9809 C   0  0  0  0  0  0  0  0  0  0  0  0
  156.8467  139.3430  185.0908 C   0  0  0  0  0  0  0  0  0  0  0  0
  157.5567  140.1039  184.1693 C   0  0  0  0  0  0  0  0  0  0  0  0
  156.8907  140.7158  183.1372 C   0  0  0  0  0  0  0  0  0  0  0  0
  155.5285  140.5775  183.0150 C   0  0  0  0  0  0  0  0  0  0  0  0
  154.8328  139.8237  183.9295 C   0  0  0  0  0  0  0  0  0  0  0  0
  157.6308  141.5150  182.1682 C   0  0  0  0  0  0  0  0  0  0  0  0
  157.9671  140.9987  180.9468 C   0  0  0  0  0  0  0  0  0  0  0  0
  158.6757  141.8109  180.0599 C   0  0  0  0  0  0  0  0  0  0  0  0
  159.0302  143.0852  180.3872 C   0  0  0  0  0  0  0  0  0  0  0  0
  159.9218  144.1126  179.2760 Cl  0  0  0  0  0  0  0  0  0  0  0  0
  158.6904  143.5968  181.6126 C   0  0  0  0  0  0  0  0  0  0  0  0
  157.9858  142.8012  182.5050 C   0  0  0  0  0  0  0  0  0  0  0  0
  154.0289  136.2241  186.5628 C   0  0  0  0  0  0  0  0  0  0  0  0
  153.0536  136.7642  187.5531 C   0  0  0  0  0  0  0  0  0  0  0  0
  153.0509  138.2580  187.6273 C   0  0  0  0  0  0  0  0  0  0  0  0
  153.3952  138.8799  186.2904 C   0  0  0  0  0  0  0  0  0  0  0  0
  154.7091  138.4219  185.8937 N   0  0  0  0  0  0  0  0  0  0  0  0
  155.1994  137.1862  186.4284 C   0  0  0  0  0  0  0  0  0  0  0  0
  154.3083  135.5939  184.1916 O   0  0  0  0  0  0  0  0  0  0  0  0
  153.4576  135.9132  185.2369 C   0  0  0  0  0  0  0  0  0  0  0  0
  152.2180  135.9315  185.0332 O   0  0  0  0  0  0  0  0  0  0  0  0
  154.0368  134.9920  183.4274 H   0  0  0  0  0  0  0  0  0  0  0  0
 20 21  1  0  0  0
 21 22  2  0  0  0
 21 14  1  0  0  0
 14 15  1  0  0  0
 15 16  1  0  0  0
 16 17  1  0  0  0
 17 18  1  0  0  0
 18 19  1  0  0  0
 18  1  1  0  0  0
  1  2  2  0  0  0
  2  3  1  0  0  0
  3  4  2  0  0  0
  4  5  1  0  0  0
  5  6  2  0  0  0
  4  7  1  0  0  0
  7  8  2  0  0  0
  8  9  1  0  0  0
  9 10  2  0  0  0
 10 11  1  0  0  0
 10 12  1  0  0  0
 12 13  2  0  0  0
 19 14  1  0  0  0
  6  1  1  0  0  0
 13  7  1  0  0  0
 20 23  1  0  0  0
M  END
> <minimizedAffinity>
-6.87928

> <CNNscore>
0.4727352262

> <CNNaffinity>
5.2896356583

> <CNN_VS>
2.5005970001

> <CNNaffinity_variance>
0.1789714992

$$$$
[H]OC(=O)[C@@]1([H])C([H])([H])N(c2c([H])c([H])c(-c3c([H])c([H])c(Cl)c([H])c3[H])c([H])c2[H])C([H])([H])C([H])([H])C1([H])[H]


 23 25  0  0  0  0  0  0  0  0999 V2000
  151.3666  135.7429  184.8539 C   0  0  0  0  0  0  0  0  0  0  0  0
  152.3053  136.4099  184.1171 C   0  0  0  0  0  0  0  0  0  0  0  0
  152.8412  135.8423  182.9669 C   0  0  0  0  0  0  0  0  0  0  0  0
  152.4236  134.5981  182.5659 C   0  0  0  0  0  0  0  0  0  0  0  0
  151.4802  133.9164  183.2973 C   0  0  0  0  0  0  0  0  0  0  0  0
  150.9547  134.4835  184.4335 C   0  0  0  0  0  0  0  0  0  0  0  0
  152.9825  133.9984  181.3603 C   0  0  0  0  0  0  0  0  0  0  0  0
  152.1662  133.4573  180.4052 C   0  0  0  0  0  0  0  0  0  0  0  0
  152.7582  132.8974  179.2718 C   0  0  0  0  0  0  0  0  0  0  0  0
  154.1106  132.8826  179.1069 C   0  0  0  0  0  0  0  0  0  0  0  0
  154.8622  132.1798  177.6833 Cl  0  0  0  0  0  0  0  0  0  0  0  0
  154.9232  133.4264  180.0675 C   0  0  0  0  0  0  0  0  0  0  0  0
  154.3492  133.9867  181.1998 C   0  0  0  0  0  0  0  0  0  0  0  0
  148.7923  137.0916  187.0978 C   0  0  0  0  0  0  0  0  0  0  0  0
  149.5356  137.4969  188.3253 C   0  0  0  0  0  0  0  0  0  0  0  0
  150.9931  137.1653  188.2716 C   0  0  0  0  0  0  0  0  0  0  0  0
  151.5223  137.2215  186.8541 C   0  0  0  0  0  0  0  0  0  0  0  0
  150.7846  136.2725  186.0487 N   0  0  0  0  0  0  0  0  0  0  0  0
  149.4714  135.8838  186.4704 C   0  0  0  0  0  0  0  0  0  0  0  0
  148.6921  139.4864  186.5043 O   0  0  0  0  0  0  0  0  0  0  0  0
  148.6145  138.1645  186.0986 C   0  0  0  0  0  0  0  0  0  0  0  0
  148.3941  137.9077  184.8888 O   0  0  0  0  0  0  0  0  0  0  0  0
  148.9956  140.2312  185.8933 H   0  0  0  0  0  0  0  0  0  0  0  0
 20 21  1  0  0  0
 21 22  2  0  0  0
 21 14  1  0  0  0
 14 15  1  0  0  0
 15 16  1  0  0  0
 16 17  1  0  0  0
 17 18  1  0  0  0
 18 19  1  0  0  0
 18  1  1  0  0  0
  1  2  2  0  0  0
  2  3  1  0  0  0
  3  4  2  0  0  0
  4  5  1  0  0  0
  5  6  2  0  0  0
  4  7  1  0  0  0
  7  8  2  0  0  0
  8  9  1  0  0  0
  9 10  2  0  0  0
 10 11  1  0  0  0
 10 12  1  0  0  0
 12 13  2  0  0  0
 19 14  1  0  0  0
  6  1  1  0  0  0
 13  7  1  0  0  0
 20 23  1  0  0  0
M  END
> <minimizedAffinity>
1.40662

> <CNNscore>
0.4377409518

> <CNNaffinity>
4.2924585342

> <CNN_VS>
1.8789849281

> <CNNaffinity_variance>
0.8325523138

$$$$
[H]OC(=O)[C@@]1([H])C([H])([H])N(c2c([H])c([H])c(-c3c([H])c([H])c(Cl)c([H])c3[H])c([H])c2[H])C([H])([H])C([H])([H])C1([H])[H]


 23 25  0  0  0  0  0  0  0  0999 V2000
  154.3770  139.0379  184.8746 C   0  0  0  0  0  0  0  0  0  0  0  0
  153.8464  139.7176  183.8137 C   0  0  0  0  0  0  0  0  0  0  0  0
  154.6577  140.4770  182.9785 C   0  0  0  0  0  0  0  0  0  0  0  0
  156.0066  140.5456  183.2211 C   0  0  0  0  0  0  0  0  0  0  0  0
  156.5532  139.8670  184.2843 C   0  0  0  0  0  0  0  0  0  0  0  0
  155.7453  139.1182  185.1061 C   0  0  0  0  0  0  0  0  0  0  0  0
  156.8618  141.3406  182.3481 C   0  0  0  0  0  0  0  0  0  0  0  0
  156.6922  142.6941  182.2465 C   0  0  0  0  0  0  0  0  0  0  0  0
  157.5410  143.4031  181.3948 C   0  0  0  0  0  0  0  0  0  0  0  0
  158.5166  142.7781  180.6776 C   0  0  0  0  0  0  0  0  0  0  0  0
  159.5882  143.6640  179.6042 Cl  0  0  0  0  0  0  0  0  0  0  0  0
  158.6814  141.4215  180.7837 C   0  0  0  0  0  0  0  0  0  0  0  0
  157.8450  140.7032  181.6265 C   0  0  0  0  0  0  0  0  0  0  0  0
  153.1758  137.6502  188.0546 C   0  0  0  0  0  0  0  0  0  0  0  0
  152.2039  136.5900  187.6612 C   0  0  0  0  0  0  0  0  0  0  0  0
  151.9911  136.5006  186.1834 C   0  0  0  0  0  0  0  0  0  0  0  0
  153.2395  136.8884  185.4194 C   0  0  0  0  0  0  0  0  0  0  0  0
  153.5923  138.2466  185.7718 N   0  0  0  0  0  0  0  0  0  0  0  0
  153.1448  138.7718  187.0276 C   0  0  0  0  0  0  0  0  0  0  0  0
  155.5665  138.1020  188.4765 O   0  0  0  0  0  0  0  0  0  0  0  0
  154.5587  137.1761  188.2640 C   0  0  0  0  0  0  0  0  0  0  0  0
  154.8441  135.9527  188.2537 O   0  0  0  0  0  0  0  0  0  0  0  0
  156.3947  137.8974  189.0172 H   0  0  0  0  0  0  0  0  0  0  0  0
 20 21  1  0  0  0
 21 22  2  0  0  0
 21 14  1  0  0  0
 14 15  1  0  0  0
 15 16  1  0  0  0
 16 17  1  0  0  0
 17 18  1  0  0  0
 18 19  1  0  0  0
 18  1  1  0  0  0
  1  2  2  0  0  0
  2  3  1  0  0  0
  3  4  2  0  0  0
  4  5  1  0  0  0
  5  6  2  0  0  0
  4  7  1  0  0  0
  7  8  2  0  0  0
  8  9  1  0  0  0
  9 10  2  0  0  0
 10 11  1  0  0  0
 10 12  1  0  0  0
 12 13  2  0  0  0
 19 14  1  0  0  0
  6  1  1  0  0  0
 13  7  1  0  0  0
 20 23  1  0  0  0
M  END
> <minimizedAffinity>
-7.22527

> <CNNscore>
0.3678550422

> <CNNaffinity>
5.0631265640

> <CNN_VS>
1.8624966145

> <CNNaffinity_variance>
0.0727066994

$$$$
[H]OC(=O)[C@@]1([H])C([H])([H])N(c2c([H])c([H])c(-c3c([H])c([H])c(Cl)c([H])c3[H])c([H])c2[H])C([H])([H])C([H])([H])C1([H])[H]


 23 25  0  0  0  0  0  0  0  0999 V2000
  151.5357  139.0019  181.7753 C   0  0  0  0  0  0  0  0  0  0  0  0
  152.1421  138.2435  182.7377 C   0  0  0  0  0  0  0  0  0  0  0  0
  153.3287  138.6613  183.3291 C   0  0  0  0  0  0  0  0  0  0  0  0
  153.8984  139.8485  182.9431 C   0  0  0  0  0  0  0  0  0  0  0  0
  153.2992  140.6210  181.9767 C   0  0  0  0  0  0  0  0  0  0  0  0
  152.1262  140.2019  181.3961 C   0  0  0  0  0  0  0  0  0  0  0  0
  155.1428  140.2912  183.5604 C   0  0  0  0  0  0  0  0  0  0  0  0
  155.5492  141.5934  183.4592 C   0  0  0  0  0  0  0  0  0  0  0  0
  156.7494  141.9591  184.0710 C   0  0  0  0  0  0  0  0  0  0  0  0
  157.5066  141.0552  184.7538 C   0  0  0  0  0  0  0  0  0  0  0  0
  159.0177  141.5086  185.5260 Cl  0  0  0  0  0  0  0  0  0  0  0  0
  157.0939  139.7518  184.8515 C   0  0  0  0  0  0  0  0  0  0  0  0
  155.9028  139.3732  184.2485 C   0  0  0  0  0  0  0  0  0  0  0  0
  147.9757  139.0563  180.8785 C   0  0  0  0  0  0  0  0  0  0  0  0
  147.7834  137.8511  180.0217 C   0  0  0  0  0  0  0  0  0  0  0  0
  149.0514  137.1026  179.7593 C   0  0  0  0  0  0  0  0  0  0  0  0
  150.0155  137.2215  180.9208 C   0  0  0  0  0  0  0  0  0  0  0  0
  150.3187  138.6212  181.1267 N   0  0  0  0  0  0  0  0  0  0  0  0
  149.3797  139.6043  180.6737 C   0  0  0  0  0  0  0  0  0  0  0  0
  147.1493  137.6458  182.7292 O   0  0  0  0  0  0  0  0  0  0  0  0
  147.7054  138.8447  182.3149 C   0  0  0  0  0  0  0  0  0  0  0  0
  147.9671  139.7260  183.1711 O   0  0  0  0  0  0  0  0  0  0  0  0
  147.3113  137.2533  183.6456 H   0  0  0  0  0  0  0  0  0  0  0  0
 20 21  1  0  0  0
 21 22  2  0  0  0
 21 14  1  0  0  0
 14 15  1  0  0  0
 15 16  1  0  0  0
 16 17  1  0  0  0
 17 18  1  0  0  0
 18 19  1  0  0  0
 18  1  1  0  0  0
  1  2  2  0  0  0
  2  3  1  0  0  0
  3  4  2  0  0  0
  4  5  1  0  0  0
  5  6  2  0  0  0
  4  7  1  0  0  0
  7  8  2  0  0  0
  8  9  1  0  0  0
  9 10  2  0  0  0
 10 11  1  0  0  0
 10 12  1  0  0  0
 12 13  2  0  0  0
 19 14  1  0  0  0
  6  1  1  0  0  0
 13  7  1  0  0  0
 20 23  1  0  0  0
M  END
> <minimizedAffinity>
-7.28340

> <CNNscore>
0.3255099058

> <CNNaffinity>
4.8999924660

> <CNN_VS>
1.5949960947

> <CNNaffinity_variance>
0.0805054307

$$$$
[H]OC(=O)[C@@]1([H])C([H])([H])N(c2c([H])c([H])c(-c3c([H])c([H])c(Cl)c([H])c3[H])c([H])c2[H])C([H])([H])C([H])([H])C1([H])[H]


 23 25  0  0  0  0  0  0  0  0999 V2000
  154.7029  138.6473  185.7578 C   0  0  0  0  0  0  0  0  0  0  0  0
  154.0654  139.1956  184.6799 C   0  0  0  0  0  0  0  0  0  0  0  0
  154.7783  139.8926  183.7113 C   0  0  0  0  0  0  0  0  0  0  0  0
  156.1376  140.0323  183.8378 C   0  0  0  0  0  0  0  0  0  0  0  0
  156.7912  139.4858  184.9167 C   0  0  0  0  0  0  0  0  0  0  0  0
  156.0802  138.7980  185.8706 C   0  0  0  0  0  0  0  0  0  0  0  0
  156.8898  140.7623  182.8246 C   0  0  0  0  0  0  0  0  0  0  0  0
  157.9227  140.1655  182.1551 C   0  0  0  0  0  0  0  0  0  0  0  0
  158.6064  140.9138  181.1954 C   0  0  0  0  0  0  0  0  0  0  0  0
  158.2663  142.2046  180.9218 C   0  0  0  0  0  0  0  0  0  0  0  0
  159.1223  143.1519  179.7155 Cl  0  0  0  0  0  0  0  0  0  0  0  0
  157.2303  142.7970  181.5962 C   0  0  0  0  0  0  0  0  0  0  0  0
  156.5412  142.0655  182.5531 C   0  0  0  0  0  0  0  0  0  0  0  0
  153.7111  137.6451  189.1480 C   0  0  0  0  0  0  0  0  0  0  0  0
  152.8511  136.4431  188.9504 C   0  0  0  0  0  0  0  0  0  0  0  0
  152.6237  136.1079  187.5106 C   0  0  0  0  0  0  0  0  0  0  0  0
  153.8104  136.5007  186.6561 C   0  0  0  0  0  0  0  0  0  0  0  0
  154.0225  137.9258  186.7890 N   0  0  0  0  0  0  0  0  0  0  0  0
  153.5432  138.5877  187.9660 C   0  0  0  0  0  0  0  0  0  0  0  0
  155.5347  136.0456  189.6104 O   0  0  0  0  0  0  0  0  0  0  0  0
  155.1401  137.3531  189.3802 C   0  0  0  0  0  0  0  0  0  0  0  0
  156.0074  138.2619  189.3745 O   0  0  0  0  0  0  0  0  0  0  0  0
  156.4517  135.6983  189.3682 H   0  0  0  0  0  0  0  0  0  0  0  0
 20 21  1  0  0  0
 21 22  2  0  0  0
 21 14  1  0  0  0
 14 15  1  0  0  0
 15 16  1  0  0  0
 16 17  1  0  0  0
 17 18  1  0  0  0
 18 19  1  0  0  0
 18  1  1  0  0  0
  1  2  2  0  0  0
  2  3  1  0  0  0
  3  4  2  0  0  0
  4  5  1  0  0  0
  5  6  2  0  0  0
  4  7  1  0  0  0
  7  8  2  0  0  0
  8  9  1  0  0  0
  9 10  2  0  0  0
 10 11  1  0  0  0
 10 12  1  0  0  0
 12 13  2  0  0  0
 19 14  1  0  0  0
  6  1  1  0  0  0
 13  7  1  0  0  0
 20 23  1  0  0  0
M  END
> <minimizedAffinity>
-7.17390

> <CNNscore>
0.3245642781

> <CNNaffinity>
5.0854692459

> <CNN_VS>
1.6505616903

> <CNNaffinity_variance>
0.1225616485

$$$$
[H]OC(=O)[C@@]1([H])C([H])([H])N(c2c([H])c([H])c(-c3c([H])c([H])c(Cl)c([H])c3[H])c([H])c2[H])C([H])([H])C([H])([H])C1([H])[H]


 23 25  0  0  0  0  0  0  0  0999 V2000
  153.9407  138.8144  184.2393 C   0  0  0  0  0  0  0  0  0  0  0  0
  155.1839  138.9487  184.7919 C   0  0  0  0  0  0  0  0  0  0  0  0
  156.0567  139.9350  184.3472 C   0  0  0  0  0  0  0  0  0  0  0  0
  155.6665  140.7840  183.3421 C   0  0  0  0  0  0  0  0  0  0  0  0
  154.4192  140.6602  182.7778 C   0  0  0  0  0  0  0  0  0  0  0  0
  153.5614  139.6828  183.2222 C   0  0  0  0  0  0  0  0  0  0  0  0
  156.5781  141.8202  182.8723 C   0  0  0  0  0  0  0  0  0  0  0  0
  157.9170  141.5694  182.7465 C   0  0  0  0  0  0  0  0  0  0  0  0
  158.7411  142.6001  182.2916 C   0  0  0  0  0  0  0  0  0  0  0  0
  158.2407  143.8279  181.9774 C   0  0  0  0  0  0  0  0  0  0  0  0
  159.2720  145.1292  181.4044 Cl  0  0  0  0  0  0  0  0  0  0  0  0
  156.8982  144.0730  182.1057 C   0  0  0  0  0  0  0  0  0  0  0  0
  156.0662  143.0580  182.5568 C   0  0  0  0  0  0  0  0  0  0  0  0
  152.4578  136.1491  186.2834 C   0  0  0  0  0  0  0  0  0  0  0  0
  151.2875  135.6725  185.4917 C   0  0  0  0  0  0  0  0  0  0  0  0
  151.0689  136.4488  184.2321 C   0  0  0  0  0  0  0  0  0  0  0  0
  152.3750  136.9626  183.6642 C   0  0  0  0  0  0  0  0  0  0  0  0
  153.0027  137.8154  184.6502 N   0  0  0  0  0  0  0  0  0  0  0  0
  152.6682  137.6344  186.0318 C   0  0  0  0  0  0  0  0  0  0  0  0
  153.6684  134.2237  185.3215 O   0  0  0  0  0  0  0  0  0  0  0  0
  153.7095  135.4007  186.0505 C   0  0  0  0  0  0  0  0  0  0  0  0
  154.8116  135.8050  186.4978 O   0  0  0  0  0  0  0  0  0  0  0  0
  154.4494  133.8885  184.7759 H   0  0  0  0  0  0  0  0  0  0  0  0
 20 21  1  0  0  0
 21 22  2  0  0  0
 21 14  1  0  0  0
 14 15  1  0  0  0
 15 16  1  0  0  0
 16 17  1  0  0  0
 17 18  1  0  0  0
 18 19  1  0  0  0
 18  1  1  0  0  0
  1  2  2  0  0  0
  2  3  1  0  0  0
  3  4  2  0  0  0
  4  5  1  0  0  0
  5  6  2  0  0  0
  4  7  1  0  0  0
  7  8  2  0  0  0
  8  9  1  0  0  0
  9 10  2  0  0  0
 10 11  1  0  0  0
 10 12  1  0  0  0
 12 13  2  0  0  0
 19 14  1  0  0  0
  6  1  1  0  0  0
 13  7  1  0  0  0
 20 23  1  0  0  0
M  END
> <minimizedAffinity>
-6.20686

> <CNNscore>
0.3196411431

> <CNNaffinity>
5.0415210724

> <CNN_VS>
1.6114776134

> <CNNaffinity_variance>
0.1045637354

$$$$
[H]c1nc(N([H])c2c([H])c([H])c(N3C([H])([H])C([H])([H])C([H])(N4C([H])([H])C([H])([H])N(C([H])([H])C([H])([H])F)C([H])([H])C4([H])[H])C([H])([H])C3([H])[H])c([H])c2OC([H])([H])[H])nc(N([H])c2c([H])c([H])c([H])c([H])c2S(=O)(=O)C([H])(C([H])([H])[H])C([H])([H])[H])c1Cl


 46 50  0  0  0  0  0  0  0  0999 V2000
  153.5198  136.5535  187.2685 C   0  0  0  0  0  0  0  0  0  0  0  0
  153.1817  136.3509  188.5816 C   0  0  0  0  0  0  0  0  0  0  0  0
  153.9553  136.8152  189.6120 C   0  0  0  0  0  0  0  0  0  0  0  0
  155.0957  137.4980  189.2571 C   0  0  0  0  0  0  0  0  0  0  0  0
  155.4507  137.7113  187.9236 C   0  0  0  0  0  0  0  0  0  0  0  0
  154.6832  137.2519  186.8995 C   0  0  0  0  0  0  0  0  0  0  0  0
  153.5545  136.6203  190.9553 N   0  0  0  0  0  0  0  0  0  0  0  0
  152.3950  137.3057  191.4324 C   0  0  0  0  0  0  0  0  0  0  0  0
  151.5398  136.6034  192.4112 C   0  0  0  0  0  0  0  0  0  0  0  0
  152.0880  135.2547  192.7567 C   0  0  0  0  0  0  0  0  0  0  0  0
  153.5588  135.3610  193.0362 C   0  0  0  0  0  0  0  0  0  0  0  0
  154.3427  135.7231  191.7836 C   0  0  0  0  0  0  0  0  0  0  0  0
  151.4742  134.7012  193.9490 N   0  0  0  0  0  0  0  0  0  0  0  0
  152.2471  133.7754  194.6813 C   0  0  0  0  0  0  0  0  0  0  0  0
  151.8524  132.3561  194.4355 C   0  0  0  0  0  0  0  0  0  0  0  0
  150.4355  132.2046  194.4578 N   0  0  0  0  0  0  0  0  0  0  0  0
  149.6871  133.3661  194.8124 C   0  0  0  0  0  0  0  0  0  0  0  0
  150.0779  134.4827  193.8535 C   0  0  0  0  0  0  0  0  0  0  0  0
  149.9615  130.9648  194.9668 C   0  0  0  0  0  0  0  0  0  0  0  0
  148.9247  130.2956  194.0863 C   0  0  0  0  0  0  0  0  0  0  0  0
  148.9884  130.8007  192.8002 F   0  0  0  0  0  0  0  0  0  0  0  0
  151.4063  136.6049  186.0384 C   0  0  0  0  0  0  0  0  0  0  0  0
  152.6575  136.0356  186.2962 O   0  0  0  0  0  0  0  0  0  0  0  0
  154.9465  137.4244  185.5445 N   0  0  0  0  0  0  0  0  0  0  0  0
  155.2687  136.5201  185.0334 H   0  0  0  0  0  0  0  0  0  0  0  0
  154.8792  138.5635  184.7057 C   0  0  0  0  0  0  0  0  0  0  0  0
  153.7433  138.5673  183.9099 N   0  0  0  0  0  0  0  0  0  0  0  0
  153.5615  139.6209  183.1152 C   0  0  0  0  0  0  0  0  0  0  0  0
  154.4425  140.6643  183.0697 C   0  0  0  0  0  0  0  0  0  0  0  0
  154.1451  142.0398  181.9841 Cl  0  0  0  0  0  0  0  0  0  0  0  0
  155.5795  140.6358  183.8809 C   0  0  0  0  0  0  0  0  0  0  0  0
  155.7384  139.5664  184.6677 N   0  0  0  0  0  0  0  0  0  0  0  0
  156.4035  141.7847  183.8481 N   0  0  0  0  0  0  0  0  0  0  0  0
  155.9438  142.6618  183.4274 H   0  0  0  0  0  0  0  0  0  0  0  0
  157.7207  141.9603  184.2770 C   0  0  0  0  0  0  0  0  0  0  0  0
  158.2189  141.4983  185.4818 C   0  0  0  0  0  0  0  0  0  0  0  0
  159.5391  141.6682  185.8173 C   0  0  0  0  0  0  0  0  0  0  0  0
  160.4440  142.2931  184.9999 C   0  0  0  0  0  0  0  0  0  0  0  0
  159.9194  142.7498  183.7882 C   0  0  0  0  0  0  0  0  0  0  0  0
  158.6174  142.6078  183.4075 C   0  0  0  0  0  0  0  0  0  0  0  0
  158.0499  143.2031  181.8491 S   0  0  0  0  0  0  0  0  0  0  0  0
  159.0705  144.0258  181.1383 O   0  0  0  0  0  0  0  0  0  0  0  0
  156.7353  143.9326  181.9987 O   0  0  0  0  0  0  0  0  0  0  0  0
  157.6942  141.7837  180.8330 C   0  0  0  0  0  0  0  0  0  0  0  0
  158.0835  142.1098  179.3988 C   0  0  0  0  0  0  0  0  0  0  0  0
  158.5813  140.6008  181.2251 C   0  0  0  0  0  0  0  0  0  0  0  0
 22 23  1  0  0  0
 23  1  1  0  0  0
  1  2  2  0  0  0
  2  3  1  0  0  0
  3  4  2  0  0  0
  4  5  1  0  0  0
  5  6  2  0  0  0
  6 24  1  0  0  0
 24 26  1  0  0  0
 26 27  2  0  0  0
 27 28  1  0  0  0
 28 29  2  0  0  0
 29 30  1  0  0  0
 29 31  1  0  0  0
 31 33  1  0  0  0
 33 35  1  0  0  0
 35 36  2  0  0  0
 36 37  1  0  0  0
 37 38  2  0  0  0
 38 39  1  0  0  0
 39 40  2  0  0  0
 40 41  1  0  0  0
 41 42  2  0  0  0
 41 43  2  0  0  0
 41 44  1  0  0  0
 44 45  1  0  0  0
 44 46  1  0  0  0
 31 32  2  0  0  0
  3  7  1  0  0  0
  7  8  1  0  0  0
  8  9  1  0  0  0
  9 10  1  0  0  0
 10 11  1  0  0  0
 11 12  1  0  0  0
 10 13  1  0  0  0
 13 14  1  0  0  0
 14 15  1  0  0  0
 15 16  1  0  0  0
 16 19  1  0  0  0
 19 20  1  0  0  0
 20 21  1  0  0  0
 16 17  1  0  0  0
 17 18  1  0  0  0
  6  1  1  0  0  0
 32 26  1  0  0  0
 12  7  1  0  0  0
 18 13  1  0  0  0
 40 35  1  0  0  0
 24 25  1  0  0  0
 33 34  1  0  0  0
M  END
> <minimizedAffinity>
-8.12174

> <CNNscore>
0.2030350566

> <CNNaffinity>
6.7921266556

> <CNN_VS>
1.3790397644

> <CNNaffinity_variance>
0.1097348705

$$$$
[H]c1nc(N([H])c2c([H])c([H])c(N3C([H])([H])C([H])([H])C([H])(N4C([H])([H])C([H])([H])N(C([H])([H])C([H])([H])F)C([H])([H])C4([H])[H])C([H])([H])C3([H])[H])c([H])c2OC([H])([H])[H])nc(N([H])c2c([H])c([H])c([H])c([H])c2S(=O)(=O)C([H])(C([H])([H])[H])C([H])([H])[H])c1Cl


 46 50  0  0  0  0  0  0  0  0999 V2000
  152.2435  136.9270  184.6755 C   0  0  0  0  0  0  0  0  0  0  0  0
  151.5686  136.3164  185.7008 C   0  0  0  0  0  0  0  0  0  0  0  0
  152.1257  136.1489  186.9407 C   0  0  0  0  0  0  0  0  0  0  0  0
  153.4054  136.6275  187.1026 C   0  0  0  0  0  0  0  0  0  0  0  0
  154.1031  137.2516  186.0664 C   0  0  0  0  0  0  0  0  0  0  0  0
  153.5510  137.4196  184.8353 C   0  0  0  0  0  0  0  0  0  0  0  0
  151.3845  135.5482  187.9860 N   0  0  0  0  0  0  0  0  0  0  0  0
  152.0771  134.7521  188.9495 C   0  0  0  0  0  0  0  0  0  0  0  0
  151.5920  134.7908  190.3444 C   0  0  0  0  0  0  0  0  0  0  0  0
  150.3940  135.6757  190.4886 C   0  0  0  0  0  0  0  0  0  0  0  0
  149.4094  135.3790  189.3953 C   0  0  0  0  0  0  0  0  0  0  0  0
  149.9502  135.7782  188.0305 C   0  0  0  0  0  0  0  0  0  0  0  0
  149.7013  135.4619  191.7453 N   0  0  0  0  0  0  0  0  0  0  0  0
  150.3340  135.9602  192.9038 C   0  0  0  0  0  0  0  0  0  0  0  0
  151.0320  134.9018  193.6932 C   0  0  0  0  0  0  0  0  0  0  0  0
  150.2188  133.7391  193.8273 N   0  0  0  0  0  0  0  0  0  0  0  0
  148.8951  133.8372  193.3047 C   0  0  0  0  0  0  0  0  0  0  0  0
  149.0014  134.2339  191.8383 C   0  0  0  0  0  0  0  0  0  0  0  0
  150.3674  133.0270  195.0486 C   0  0  0  0  0  0  0  0  0  0  0  0
  150.5720  131.5357  194.8689 C   0  0  0  0  0  0  0  0  0  0  0  0
  149.3532  130.8973  194.7267 F   0  0  0  0  0  0  0  0  0  0  0  0
  150.2186  136.7512  183.3148 C   0  0  0  0  0  0  0  0  0  0  0  0
  151.5793  137.0450  183.4499 O   0  0  0  0  0  0  0  0  0  0  0  0
  154.1600  138.0372  183.7478 N   0  0  0  0  0  0  0  0  0  0  0  0
  154.6187  137.3483  183.0421 H   0  0  0  0  0  0  0  0  0  0  0  0
  154.3002  139.4005  183.3909 C   0  0  0  0  0  0  0  0  0  0  0  0
  153.2024  139.8792  182.6916 N   0  0  0  0  0  0  0  0  0  0  0  0
  153.2146  141.1662  182.3481 C   0  0  0  0  0  0  0  0  0  0  0  0
  154.2528  141.9976  182.6608 C   0  0  0  0  0  0  0  0  0  0  0  0
  154.2108  143.7052  182.1697 Cl  0  0  0  0  0  0  0  0  0  0  0  0
  155.3473  141.4905  183.3654 C   0  0  0  0  0  0  0  0  0  0  0  0
  155.3102  140.1955  183.6965 N   0  0  0  0  0  0  0  0  0  0  0  0
  156.3459  142.4229  183.7307 N   0  0  0  0  0  0  0  0  0  0  0  0
  156.0337  143.4524  183.7156 H   0  0  0  0  0  0  0  0  0  0  0  0
  157.6742  142.2173  184.1093 C   0  0  0  0  0  0  0  0  0  0  0  0
  158.0730  141.3955  185.1479 C   0  0  0  0  0  0  0  0  0  0  0  0
  159.4020  141.2056  185.4341 C   0  0  0  0  0  0  0  0  0  0  0  0
  160.4122  141.8017  184.7259 C   0  0  0  0  0  0  0  0  0  0  0  0
  159.9864  142.6255  183.6809 C   0  0  0  0  0  0  0  0  0  0  0  0
  158.6806  142.8486  183.3558 C   0  0  0  0  0  0  0  0  0  0  0  0
  158.2393  143.8936  182.0074 S   0  0  0  0  0  0  0  0  0  0  0  0
  159.3096  144.8724  181.6604 O   0  0  0  0  0  0  0  0  0  0  0  0
  156.9122  144.5691  182.2627 O   0  0  0  0  0  0  0  0  0  0  0  0
  157.9776  142.8504  180.5872 C   0  0  0  0  0  0  0  0  0  0  0  0
  159.0438  143.1731  179.5509 C   0  0  0  0  0  0  0  0  0  0  0  0
  158.2053  141.3806  180.9453 C   0  0  0  0  0  0  0  0  0  0  0  0
 22 23  1  0  0  0
 23  1  1  0  0  0
  1  2  2  0  0  0
  2  3  1  0  0  0
  3  4  2  0  0  0
  4  5  1  0  0  0
  5  6  2  0  0  0
  6 24  1  0  0  0
 24 26  1  0  0  0
 26 27  2  0  0  0
 27 28  1  0  0  0
 28 29  2  0  0  0
 29 30  1  0  0  0
 29 31  1  0  0  0
 31 33  1  0  0  0
 33 35  1  0  0  0
 35 36  2  0  0  0
 36 37  1  0  0  0
 37 38  2  0  0  0
 38 39  1  0  0  0
 39 40  2  0  0  0
 40 41  1  0  0  0
 41 42  2  0  0  0
 41 43  2  0  0  0
 41 44  1  0  0  0
 44 45  1  0  0  0
 44 46  1  0  0  0
 31 32  2  0  0  0
  3  7  1  0  0  0
  7  8  1  0  0  0
  8  9  1  0  0  0
  9 10  1  0  0  0
 10 11  1  0  0  0
 11 12  1  0  0  0
 10 13  1  0  0  0
 13 14  1  0  0  0
 14 15  1  0  0  0
 15 16  1  0  0  0
 16 19  1  0  0  0
 19 20  1  0  0  0
 20 21  1  0  0  0
 16 17  1  0  0  0
 17 18  1  0  0  0
  6  1  1  0  0  0
 32 26  1  0  0  0
 12  7  1  0  0  0
 18 13  1  0  0  0
 40 35  1  0  0  0
 24 25  1  0  0  0
 33 34  1  0  0  0
M  END
> <minimizedAffinity>
-7.57765

> <CNNscore>
0.1416789442

> <CNNaffinity>
6.6527318954

> <CNN_VS>
0.9425520301

> <CNNaffinity_variance>
0.0535425842

$$$$
[H]c1nc(N([H])c2c([H])c([H])c(N3C([H])([H])C([H])([H])C([H])(N4C([H])([H])C([H])([H])N(C([H])([H])C([H])([H])F)C([H])([H])C4([H])[H])C([H])([H])C3([H])[H])c([H])c2OC([H])([H])[H])nc(N([H])c2c([H])c([H])c([H])c([H])c2S(=O)(=O)C([H])(C([H])([H])[H])C([H])([H])[H])c1Cl


 46 50  0  0  0  0  0  0  0  0999 V2000
  151.5619  139.3833  181.6577 C   0  0  0  0  0  0  0  0  0  0  0  0
  152.6915  140.0823  181.9968 C   0  0  0  0  0  0  0  0  0  0  0  0
  153.5603  139.6390  182.9583 C   0  0  0  0  0  0  0  0  0  0  0  0
  153.2366  138.4495  183.5692 C   0  0  0  0  0  0  0  0  0  0  0  0
  152.0896  137.7280  183.2324 C   0  0  0  0  0  0  0  0  0  0  0  0
  151.2266  138.1663  182.2774 C   0  0  0  0  0  0  0  0  0  0  0  0
  154.7365  140.3682  183.2548 N   0  0  0  0  0  0  0  0  0  0  0  0
  155.8958  139.6545  183.6890 C   0  0  0  0  0  0  0  0  0  0  0  0
  157.2139  140.1644  183.2584 C   0  0  0  0  0  0  0  0  0  0  0  0
  157.0835  141.4058  182.4331 C   0  0  0  0  0  0  0  0  0  0  0  0
  156.1281  142.3564  183.0937 C   0  0  0  0  0  0  0  0  0  0  0  0
  154.7074  141.8124  183.0953 C   0  0  0  0  0  0  0  0  0  0  0  0
  158.3452  142.1086  182.2951 N   0  0  0  0  0  0  0  0  0  0  0  0
  159.5031  141.4029  182.6850 C   0  0  0  0  0  0  0  0  0  0  0  0
  160.0097  141.8035  184.0316 C   0  0  0  0  0  0  0  0  0  0  0  0
  160.0132  143.2210  184.1796 N   0  0  0  0  0  0  0  0  0  0  0  0
  159.6575  143.9723  183.0203 C   0  0  0  0  0  0  0  0  0  0  0  0
  158.2850  143.4986  182.5612 C   0  0  0  0  0  0  0  0  0  0  0  0
  161.0622  143.7491  184.9805 C   0  0  0  0  0  0  0  0  0  0  0  0
  161.7796  142.7083  185.8172 C   0  0  0  0  0  0  0  0  0  0  0  0
  162.4019  143.3064  186.8981 F   0  0  0  0  0  0  0  0  0  0  0  0
  151.1485  139.9899  179.3246 C   0  0  0  0  0  0  0  0  0  0  0  0
  150.7442  139.9283  180.6620 O   0  0  0  0  0  0  0  0  0  0  0  0
  150.0690  137.5141  181.8657 N   0  0  0  0  0  0  0  0  0  0  0  0
  149.2536  138.1804  181.5934 H   0  0  0  0  0  0  0  0  0  0  0  0
  149.7514  136.1395  181.7411 C   0  0  0  0  0  0  0  0  0  0  0  0
  148.4313  135.8702  182.0699 N   0  0  0  0  0  0  0  0  0  0  0  0
  148.0179  134.6104  181.9417 C   0  0  0  0  0  0  0  0  0  0  0  0
  148.8410  133.6104  181.5067 C   0  0  0  0  0  0  0  0  0  0  0  0
  148.2298  131.9479  181.3612 Cl  0  0  0  0  0  0  0  0  0  0  0  0
  150.1670  133.9078  181.1825 C   0  0  0  0  0  0  0  0  0  0  0  0
  150.5563  135.1795  181.3215 N   0  0  0  0  0  0  0  0  0  0  0  0
  150.9389  132.8453  180.6580 N   0  0  0  0  0  0  0  0  0  0  0  0
  151.2311  132.0986  181.3754 H   0  0  0  0  0  0  0  0  0  0  0  0
  151.3811  132.6121  179.3542 C   0  0  0  0  0  0  0  0  0  0  0  0
  150.5479  132.4710  178.2593 C   0  0  0  0  0  0  0  0  0  0  0  0
  151.0565  132.2889  176.9975 C   0  0  0  0  0  0  0  0  0  0  0  0
  152.4000  132.2364  176.7330 C   0  0  0  0  0  0  0  0  0  0  0  0
  153.2224  132.3829  177.8529 C   0  0  0  0  0  0  0  0  0  0  0  0
  152.7687  132.5649  179.1262 C   0  0  0  0  0  0  0  0  0  0  0  0
  153.8846  132.7569  180.4763 S   0  0  0  0  0  0  0  0  0  0  0  0
  153.7085  131.7112  181.5248 O   0  0  0  0  0  0  0  0  0  0  0  0
  153.8030  134.1535  181.0468 O   0  0  0  0  0  0  0  0  0  0  0  0
  155.5371  132.6024  179.8289 C   0  0  0  0  0  0  0  0  0  0  0  0
  156.4606  133.4873  180.6526 C   0  0  0  0  0  0  0  0  0  0  0  0
  156.0670  131.1814  180.0298 C   0  0  0  0  0  0  0  0  0  0  0  0
 22 23  1  0  0  0
 23  1  1  0  0  0
  1  2  2  0  0  0
  2  3  1  0  0  0
  3  4  2  0  0  0
  4  5  1  0  0  0
  5  6  2  0  0  0
  6 24  1  0  0  0
 24 26  1  0  0  0
 26 27  2  0  0  0
 27 28  1  0  0  0
 28 29  2  0  0  0
 29 30  1  0  0  0
 29 31  1  0  0  0
 31 33  1  0  0  0
 33 35  1  0  0  0
 35 36  2  0  0  0
 36 37  1  0  0  0
 37 38  2  0  0  0
 38 39  1  0  0  0
 39 40  2  0  0  0
 40 41  1  0  0  0
 41 42  2  0  0  0
 41 43  2  0  0  0
 41 44  1  0  0  0
 44 45  1  0  0  0
 44 46  1  0  0  0
 31 32  2  0  0  0
  3  7  1  0  0  0
  7  8  1  0  0  0
  8  9  1  0  0  0
  9 10  1  0  0  0
 10 11  1  0  0  0
 11 12  1  0  0  0
 10 13  1  0  0  0
 13 14  1  0  0  0
 14 15  1  0  0  0
 15 16  1  0  0  0
 16 19  1  0  0  0
 19 20  1  0  0  0
 20 21  1  0  0  0
 16 17  1  0  0  0
 17 18  1  0  0  0
  6  1  1  0  0  0
 32 26  1  0  0  0
 12  7  1  0  0  0
 18 13  1  0  0  0
 40 35  1  0  0  0
 24 25  1  0  0  0
 33 34  1  0  0  0
M  END
> <minimizedAffinity>
-7.72316

> <CNNscore>
0.1390708685

> <CNNaffinity>
7.1499466896

> <CNN_VS>
0.9943493009

> <CNNaffinity_variance>
0.0526164696

$$$$
[H]c1nc(N([H])c2c([H])c([H])c(N3C([H])([H])C([H])([H])C([H])(N4C([H])([H])C([H])([H])N(C([H])([H])C([H])([H])F)C([H])([H])C4([H])[H])C([H])([H])C3([H])[H])c([H])c2OC([H])([H])[H])nc(N([H])c2c([H])c([H])c([H])c([H])c2S(=O)(=O)C([H])(C([H])([H])[H])C([H])([H])[H])c1Cl


 46 50  0  0  0  0  0  0  0  0999 V2000
  152.3792  137.7405  183.6695 C   0  0  0  0  0  0  0  0  0  0  0  0
  153.4171  138.6252  183.8090 C   0  0  0  0  0  0  0  0  0  0  0  0
  153.6019  139.6721  182.9455 C   0  0  0  0  0  0  0  0  0  0  0  0
  152.6863  139.7882  181.9252 C   0  0  0  0  0  0  0  0  0  0  0  0
  151.6247  138.8941  181.7726 C   0  0  0  0  0  0  0  0  0  0  0  0
  151.4393  137.8549  182.6297 C   0  0  0  0  0  0  0  0  0  0  0  0
  154.6627  140.5878  183.1434 N   0  0  0  0  0  0  0  0  0  0  0  0
  155.6201  140.3183  184.1694 C   0  0  0  0  0  0  0  0  0  0  0  0
  157.0223  140.7083  183.9158 C   0  0  0  0  0  0  0  0  0  0  0  0
  157.1800  141.3680  182.5820 C   0  0  0  0  0  0  0  0  0  0  0  0
  156.1044  142.3980  182.3950 C   0  0  0  0  0  0  0  0  0  0  0  0
  154.7286  141.7582  182.2844 C   0  0  0  0  0  0  0  0  0  0  0  0
  158.4489  142.0603  182.4582 N   0  0  0  0  0  0  0  0  0  0  0  0
  159.6089  141.2584  182.5047 C   0  0  0  0  0  0  0  0  0  0  0  0
  160.2966  141.2964  183.8299 C   0  0  0  0  0  0  0  0  0  0  0  0
  160.3897  142.6301  184.3235 N   0  0  0  0  0  0  0  0  0  0  0  0
  159.9325  143.6564  183.4445 C   0  0  0  0  0  0  0  0  0  0  0  0
  158.4919  143.3386  183.0667 C   0  0  0  0  0  0  0  0  0  0  0  0
  161.5543  142.9198  185.0853 C   0  0  0  0  0  0  0  0  0  0  0  0
  161.3162  142.9546  186.5820 C   0  0  0  0  0  0  0  0  0  0  0  0
  162.5136  143.1158  187.2554 F   0  0  0  0  0  0  0  0  0  0  0  0
  151.7180  136.9051  185.8712 C   0  0  0  0  0  0  0  0  0  0  0  0
  152.2854  136.7075  184.6082 O   0  0  0  0  0  0  0  0  0  0  0  0
  150.4089  136.9226  182.5672 N   0  0  0  0  0  0  0  0  0  0  0  0
  149.4129  137.3586  182.5411 H   0  0  0  0  0  0  0  0  0  0  0  0
  150.4153  135.5067  182.5378 C   0  0  0  0  0  0  0  0  0  0  0  0
  151.1898  135.0031  181.5035 N   0  0  0  0  0  0  0  0  0  0  0  0
  151.2992  133.6784  181.4153 C   0  0  0  0  0  0  0  0  0  0  0  0
  150.6841  132.8329  182.2948 C   0  0  0  0  0  0  0  0  0  0  0  0
  150.8657  131.0735  182.1206 Cl  0  0  0  0  0  0  0  0  0  0  0  0
  149.9087  133.3655  183.3277 C   0  0  0  0  0  0  0  0  0  0  0  0
  149.8146  134.6978  183.3923 N   0  0  0  0  0  0  0  0  0  0  0  0
  149.3715  132.4393  184.2516 N   0  0  0  0  0  0  0  0  0  0  0  0
  149.4742  131.4058  183.9708 H   0  0  0  0  0  0  0  0  0  0  0  0
  148.7290  132.6555  185.4724 C   0  0  0  0  0  0  0  0  0  0  0  0
  147.3851  132.9538  185.6069 C   0  0  0  0  0  0  0  0  0  0  0  0
  146.8115  133.1085  186.8443 C   0  0  0  0  0  0  0  0  0  0  0  0
  147.5120  132.9795  188.0148 C   0  0  0  0  0  0  0  0  0  0  0  0
  148.8665  132.6764  187.8551 C   0  0  0  0  0  0  0  0  0  0  0  0
  149.4851  132.5136  186.6504 C   0  0  0  0  0  0  0  0  0  0  0  0
  151.1985  132.1154  186.5483 S   0  0  0  0  0  0  0  0  0  0  0  0
  152.0165  133.2243  185.9780 O   0  0  0  0  0  0  0  0  0  0  0  0
  151.4051  130.8163  185.8053 O   0  0  0  0  0  0  0  0  0  0  0  0
  151.7759  131.8132  188.2063 C   0  0  0  0  0  0  0  0  0  0  0  0
  152.3895  130.4219  188.2554 C   0  0  0  0  0  0  0  0  0  0  0  0
  152.9203  132.7636  188.5631 C   0  0  0  0  0  0  0  0  0  0  0  0
 22 23  1  0  0  0
 23  1  1  0  0  0
  1  2  2  0  0  0
  2  3  1  0  0  0
  3  4  2  0  0  0
  4  5  1  0  0  0
  5  6  2  0  0  0
  6 24  1  0  0  0
 24 26  1  0  0  0
 26 27  2  0  0  0
 27 28  1  0  0  0
 28 29  2  0  0  0
 29 30  1  0  0  0
 29 31  1  0  0  0
 31 33  1  0  0  0
 33 35  1  0  0  0
 35 36  2  0  0  0
 36 37  1  0  0  0
 37 38  2  0  0  0
 38 39  1  0  0  0
 39 40  2  0  0  0
 40 41  1  0  0  0
 41 42  2  0  0  0
 41 43  2  0  0  0
 41 44  1  0  0  0
 44 45  1  0  0  0
 44 46  1  0  0  0
 31 32  2  0  0  0
  3  7  1  0  0  0
  7  8  1  0  0  0
  8  9  1  0  0  0
  9 10  1  0  0  0
 10 11  1  0  0  0
 11 12  1  0  0  0
 10 13  1  0  0  0
 13 14  1  0  0  0
 14 15  1  0  0  0
 15 16  1  0  0  0
 16 19  1  0  0  0
 19 20  1  0  0  0
 20 21  1  0  0  0
 16 17  1  0  0  0
 17 18  1  0  0  0
  6  1  1  0  0  0
 32 26  1  0  0  0
 12  7  1  0  0  0
 18 13  1  0  0  0
 40 35  1  0  0  0
 24 25  1  0  0  0
 33 34  1  0  0  0
M  END
> <minimizedAffinity>
-5.84432

> <CNNscore>
0.1200050041

> <CNNaffinity>
7.0243997574

> <CNN_VS>
0.8429630995

> <CNNaffinity_variance>
0.6572634578

$$$$
[H]c1nc(N([H])c2c([H])c([H])c(N3C([H])([H])C([H])([H])C([H])(N4C([H])([H])C([H])([H])N(C([H])([H])C([H])([H])F)C([H])([H])C4([H])[H])C([H])([H])C3([H])[H])c([H])c2OC([H])([H])[H])nc(N([H])c2c([H])c([H])c([H])c([H])c2S(=O)(=O)C([H])(C([H])([H])[H])C([H])([H])[H])c1Cl


 46 50  0  0  0  0  0  0  0  0999 V2000
  155.1165  137.3600  188.7311 C   0  0  0  0  0  0  0  0  0  0  0  0
  155.4574  137.9020  187.5188 C   0  0  0  0  0  0  0  0  0  0  0  0
  154.5238  138.1700  186.5532 C   0  0  0  0  0  0  0  0  0  0  0  0
  153.2195  137.8637  186.8662 C   0  0  0  0  0  0  0  0  0  0  0  0
  152.8595  137.3120  188.0973 C   0  0  0  0  0  0  0  0  0  0  0  0
  153.7851  137.0463  189.0573 C   0  0  0  0  0  0  0  0  0  0  0  0
  154.9081  138.7654  185.3282 N   0  0  0  0  0  0  0  0  0  0  0  0
  153.9583  138.8169  184.2619 C   0  0  0  0  0  0  0  0  0  0  0  0
  153.9826  140.0027  183.3811 C   0  0  0  0  0  0  0  0  0  0  0  0
  155.0652  140.9591  183.7715 C   0  0  0  0  0  0  0  0  0  0  0  0
  156.3455  140.2101  184.0007 C   0  0  0  0  0  0  0  0  0  0  0  0
  156.2539  139.3029  185.2185 C   0  0  0  0  0  0  0  0  0  0  0  0
  155.3328  141.9385  182.7352 N   0  0  0  0  0  0  0  0  0  0  0  0
  156.0541  141.4828  181.6114 C   0  0  0  0  0  0  0  0  0  0  0  0
  157.4959  141.8711  181.6418 C   0  0  0  0  0  0  0  0  0  0  0  0
  157.6539  143.2346  182.0253 N   0  0  0  0  0  0  0  0  0  0  0  0
  156.4501  143.9821  182.1902 C   0  0  0  0  0  0  0  0  0  0  0  0
  155.5831  143.2508  183.2063 C   0  0  0  0  0  0  0  0  0  0  0  0
  158.7463  143.9161  181.4230 C   0  0  0  0  0  0  0  0  0  0  0  0
  159.2250  143.2868  180.1297 C   0  0  0  0  0  0  0  0  0  0  0  0
  159.9583  144.1999  179.3936 F   0  0  0  0  0  0  0  0  0  0  0  0
  156.5532  138.0956  190.5688 C   0  0  0  0  0  0  0  0  0  0  0  0
  156.1507  137.1268  189.6438 O   0  0  0  0  0  0  0  0  0  0  0  0
  153.5231  136.5107  190.3141 N   0  0  0  0  0  0  0  0  0  0  0  0
  153.1612  137.2339  191.0413 H   0  0  0  0  0  0  0  0  0  0  0  0
  153.6466  135.1961  190.8262 C   0  0  0  0  0  0  0  0  0  0  0  0
  152.5894  134.8501  191.6544 N   0  0  0  0  0  0  0  0  0  0  0  0
  152.5869  133.6147  192.1528 C   0  0  0  0  0  0  0  0  0  0  0  0
  153.5724  132.7105  191.8735 C   0  0  0  0  0  0  0  0  0  0  0  0
  153.5137  131.0781  192.5738 Cl  0  0  0  0  0  0  0  0  0  0  0  0
  154.6269  133.0842  191.0368 C   0  0  0  0  0  0  0  0  0  0  0  0
  154.6058  134.3300  190.5515 N   0  0  0  0  0  0  0  0  0  0  0  0
  155.5659  132.0751  190.7208 N   0  0  0  0  0  0  0  0  0  0  0  0
  155.3070  131.4622  189.8753 H   0  0  0  0  0  0  0  0  0  0  0  0
  156.7778  131.7495  191.3334 C   0  0  0  0  0  0  0  0  0  0  0  0
  156.8902  131.1453  192.5725 C   0  0  0  0  0  0  0  0  0  0  0  0
  158.1160  130.8125  193.0927 C   0  0  0  0  0  0  0  0  0  0  0  0
  159.2957  131.0469  192.4362 C   0  0  0  0  0  0  0  0  0  0  0  0
  159.1582  131.6559  191.1864 C   0  0  0  0  0  0  0  0  0  0  0  0
  157.9657  132.0074  190.6251 C   0  0  0  0  0  0  0  0  0  0  0  0
  157.8902  132.7581  189.0327 S   0  0  0  0  0  0  0  0  0  0  0  0
  157.4005  134.1659  189.0802 O   0  0  0  0  0  0  0  0  0  0  0  0
  157.0869  131.9088  188.0756 O   0  0  0  0  0  0  0  0  0  0  0  0
  159.5455  132.7818  188.3748 C   0  0  0  0  0  0  0  0  0  0  0  0
  159.5880  131.8827  187.1483 C   0  0  0  0  0  0  0  0  0  0  0  0
  159.9025  134.1761  187.8564 C   0  0  0  0  0  0  0  0  0  0  0  0
 22 23  1  0  0  0
 23  1  1  0  0  0
  1  2  2  0  0  0
  2  3  1  0  0  0
  3  4  2  0  0  0
  4  5  1  0  0  0
  5  6  2  0  0  0
  6 24  1  0  0  0
 24 26  1  0  0  0
 26 27  2  0  0  0
 27 28  1  0  0  0
 28 29  2  0  0  0
 29 30  1  0  0  0
 29 31  1  0  0  0
 31 33  1  0  0  0
 33 35  1  0  0  0
 35 36  2  0  0  0
 36 37  1  0  0  0
 37 38  2  0  0  0
 38 39  1  0  0  0
 39 40  2  0  0  0
 40 41  1  0  0  0
 41 42  2  0  0  0
 41 43  2  0  0  0
 41 44  1  0  0  0
 44 45  1  0  0  0
 44 46  1  0  0  0
 31 32  2  0  0  0
  3  7  1  0  0  0
  7  8  1  0  0  0
  8  9  1  0  0  0
  9 10  1  0  0  0
 10 11  1  0  0  0
 11 12  1  0  0  0
 10 13  1  0  0  0
 13 14  1  0  0  0
 14 15  1  0  0  0
 15 16  1  0  0  0
 16 19  1  0  0  0
 19 20  1  0  0  0
 20 21  1  0  0  0
 16 17  1  0  0  0
 17 18  1  0  0  0
  6  1  1  0  0  0
 32 26  1  0  0  0
 12  7  1  0  0  0
 18 13  1  0  0  0
 40 35  1  0  0  0
 24 25  1  0  0  0
 33 34  1  0  0  0
M  END
> <minimizedAffinity>
-7.38252

> <CNNscore>
0.1191864312

> <CNNaffinity>
6.8099465370

> <CNN_VS>
0.8116531968

> <CNNaffinity_variance>
0.1402038634

$$$$
[H]c1nc(N([H])c2c([H])c([H])c(N3C([H])([H])C([H])([H])C([H])(N4C([H])([H])C([H])([H])N(C([H])([H])C([H])([H])F)C([H])([H])C4([H])[H])C([H])([H])C3([H])[H])c([H])c2OC([H])([H])[H])nc(N([H])c2c([H])c([H])c([H])c([H])c2S(=O)(=O)C([H])(C([H])([H])[H])C([H])([H])[H])c1Cl


 46 50  0  0  0  0  0  0  0  0999 V2000
  152.5652  138.0605  183.3214 C   0  0  0  0  0  0  0  0  0  0  0  0
  153.5989  138.9316  183.5501 C   0  0  0  0  0  0  0  0  0  0  0  0
  153.8631  139.9830  182.7132 C   0  0  0  0  0  0  0  0  0  0  0  0
  153.0324  140.1182  181.6249 C   0  0  0  0  0  0  0  0  0  0  0  0
  151.9761  139.2381  181.3812 C   0  0  0  0  0  0  0  0  0  0  0  0
  151.7118  138.1944  182.2117 C   0  0  0  0  0  0  0  0  0  0  0  0
  154.9153  140.8843  183.0024 N   0  0  0  0  0  0  0  0  0  0  0  0
  155.8011  140.5822  184.0821 C   0  0  0  0  0  0  0  0  0  0  0  0
  157.2198  140.9656  183.9306 C   0  0  0  0  0  0  0  0  0  0  0  0
  157.4696  141.6552  182.6263 C   0  0  0  0  0  0  0  0  0  0  0  0
  156.4163  142.6988  182.3940 C   0  0  0  0  0  0  0  0  0  0  0  0
  155.0461  142.0740  182.1780 C   0  0  0  0  0  0  0  0  0  0  0  0
  158.7490  142.3389  182.6027 N   0  0  0  0  0  0  0  0  0  0  0  0
  159.8986  141.5217  182.6395 C   0  0  0  0  0  0  0  0  0  0  0  0
  160.5316  141.4586  183.9907 C   0  0  0  0  0  0  0  0  0  0  0  0
  160.6167  142.7534  184.5802 N   0  0  0  0  0  0  0  0  0  0  0  0
  160.2056  143.8440  183.7578 C   0  0  0  0  0  0  0  0  0  0  0  0
  158.7789  143.5710  183.3008 C   0  0  0  0  0  0  0  0  0  0  0  0
  161.7517  142.9749  185.4069 C   0  0  0  0  0  0  0  0  0  0  0  0
  161.4303  143.0391  186.8869 C   0  0  0  0  0  0  0  0  0  0  0  0
  160.0763  142.8462  187.0934 F   0  0  0  0  0  0  0  0  0  0  0  0
  152.8206  137.1229  185.5660 C   0  0  0  0  0  0  0  0  0  0  0  0
  152.3859  137.0213  184.2405 O   0  0  0  0  0  0  0  0  0  0  0  0
  150.6791  137.2750  182.0598 N   0  0  0  0  0  0  0  0  0  0  0  0
  149.7178  137.6166  182.4369 H   0  0  0  0  0  0  0  0  0  0  0  0
  150.6478  135.9704  181.5097 C   0  0  0  0  0  0  0  0  0  0  0  0
  149.4698  135.7139  180.8243 N   0  0  0  0  0  0  0  0  0  0  0  0
  149.3589  134.5274  180.2289 C   0  0  0  0  0  0  0  0  0  0  0  0
  150.3502  133.5884  180.2776 C   0  0  0  0  0  0  0  0  0  0  0  0
  150.1393  132.0216  179.4654 Cl  0  0  0  0  0  0  0  0  0  0  0  0
  151.5271  133.8712  180.9753 C   0  0  0  0  0  0  0  0  0  0  0  0
  151.6117  135.0685  181.5647 N   0  0  0  0  0  0  0  0  0  0  0  0
  152.5447  132.8911  180.9137 N   0  0  0  0  0  0  0  0  0  0  0  0
  152.9162  132.6831  179.9256 H   0  0  0  0  0  0  0  0  0  0  0  0
  153.1445  132.1510  181.9347 C   0  0  0  0  0  0  0  0  0  0  0  0
  152.4958  131.7336  183.0828 C   0  0  0  0  0  0  0  0  0  0  0  0
  153.1381  130.9684  184.0240 C   0  0  0  0  0  0  0  0  0  0  0  0
  154.4422  130.5671  183.8986 C   0  0  0  0  0  0  0  0  0  0  0  0
  155.0769  130.9984  182.7311 C   0  0  0  0  0  0  0  0  0  0  0  0
  154.4854  131.7599  181.7663 C   0  0  0  0  0  0  0  0  0  0  0  0
  155.3628  132.2431  180.3166 S   0  0  0  0  0  0  0  0  0  0  0  0
  155.5091  133.7223  180.1957 O   0  0  0  0  0  0  0  0  0  0  0  0
  154.7416  131.6306  179.0830 O   0  0  0  0  0  0  0  0  0  0  0  0
  156.9977  131.5437  180.4242 C   0  0  0  0  0  0  0  0  0  0  0  0
  157.3718  130.9843  179.0598 C   0  0  0  0  0  0  0  0  0  0  0  0
  158.0353  132.6324  180.7039 C   0  0  0  0  0  0  0  0  0  0  0  0
 22 23  1  0  0  0
 23  1  1  0  0  0
  1  2  2  0  0  0
  2  3  1  0  0  0
  3  4  2  0  0  0
  4  5  1  0  0  0
  5  6  2  0  0  0
  6 24  1  0  0  0
 24 26  1  0  0  0
 26 27  2  0  0  0
 27 28  1  0  0  0
 28 29  2  0  0  0
 29 30  1  0  0  0
 29 31  1  0  0  0
 31 33  1  0  0  0
 33 35  1  0  0  0
 35 36  2  0  0  0
 36 37  1  0  0  0
 37 38  2  0  0  0
 38 39  1  0  0  0
 39 40  2  0  0  0
 40 41  1  0  0  0
 41 42  2  0  0  0
 41 43  2  0  0  0
 41 44  1  0  0  0
 44 45  1  0  0  0
 44 46  1  0  0  0
 31 32  2  0  0  0
  3  7  1  0  0  0
  7  8  1  0  0  0
  8  9  1  0  0  0
  9 10  1  0  0  0
 10 11  1  0  0  0
 11 12  1  0  0  0
 10 13  1  0  0  0
 13 14  1  0  0  0
 14 15  1  0  0  0
 15 16  1  0  0  0
 16 19  1  0  0  0
 19 20  1  0  0  0
 20 21  1  0  0  0
 16 17  1  0  0  0
 17 18  1  0  0  0
  6  1  1  0  0  0
 32 26  1  0  0  0
 12  7  1  0  0  0
 18 13  1  0  0  0
 40 35  1  0  0  0
 24 25  1  0  0  0
 33 34  1  0  0  0
M  END
> <minimizedAffinity>
-7.17742

> <CNNscore>
0.0883741006

> <CNNaffinity>
7.0319290161

> <CNN_VS>
0.6214404106

> <CNNaffinity_variance>
0.0368752778

$$$$
[H]c1nc(N([H])c2c([H])c([H])c(N3C([H])([H])C([H])([H])C([H])(N4C([H])([H])C([H])([H])N(C([H])([H])C([H])([H])F)C([H])([H])C4([H])[H])C([H])([H])C3([H])[H])c([H])c2OC([H])([H])[H])nc(N([H])c2c([H])c([H])c([H])c([H])c2S(=O)(=O)C([H])(C([H])([H])[H])C([H])([H])[H])c1Cl


 46 50  0  0  0  0  0  0  0  0999 V2000
  155.5248  136.6842  188.7528 C   0  0  0  0  0  0  0  0  0  0  0  0
  155.7458  137.1736  187.4914 C   0  0  0  0  0  0  0  0  0  0  0  0
  154.8815  138.0487  186.8887 C   0  0  0  0  0  0  0  0  0  0  0  0
  153.7740  138.4110  187.6201 C   0  0  0  0  0  0  0  0  0  0  0  0
  153.5380  137.9200  188.9058 C   0  0  0  0  0  0  0  0  0  0  0  0
  154.3956  137.0520  189.5058 C   0  0  0  0  0  0  0  0  0  0  0  0
  155.1622  138.5627  185.6003 N   0  0  0  0  0  0  0  0  0  0  0  0
  154.1363  138.5228  184.6065 C   0  0  0  0  0  0  0  0  0  0  0  0
  154.0700  139.6439  183.6466 C   0  0  0  0  0  0  0  0  0  0  0  0
  155.1568  140.6436  183.8886 C   0  0  0  0  0  0  0  0  0  0  0  0
  156.4667  139.9345  184.0732 C   0  0  0  0  0  0  0  0  0  0  0  0
  156.4842  139.1140  185.3542 C   0  0  0  0  0  0  0  0  0  0  0  0
  155.3264  141.5520  182.7702 N   0  0  0  0  0  0  0  0  0  0  0  0
  156.5647  141.4941  182.0962 C   0  0  0  0  0  0  0  0  0  0  0  0
  157.4937  142.5994  182.4779 C   0  0  0  0  0  0  0  0  0  0  0  0
  156.8151  143.8521  182.5160 N   0  0  0  0  0  0  0  0  0  0  0  0
  155.4548  143.8406  182.0865 C   0  0  0  0  0  0  0  0  0  0  0  0
  154.7083  142.8164  182.9308 C   0  0  0  0  0  0  0  0  0  0  0  0
  157.5916  144.9796  182.1332 C   0  0  0  0  0  0  0  0  0  0  0  0
  159.0576  144.6672  181.9068 C   0  0  0  0  0  0  0  0  0  0  0  0
  159.5027  145.2679  180.7430 F   0  0  0  0  0  0  0  0  0  0  0  0
  157.3607  135.0970  188.4478 C   0  0  0  0  0  0  0  0  0  0  0  0
  156.4725  135.7956  189.2719 O   0  0  0  0  0  0  0  0  0  0  0  0
  154.2530  136.5194  190.7829 N   0  0  0  0  0  0  0  0  0  0  0  0
  155.1926  136.3505  191.3040 H   0  0  0  0  0  0  0  0  0  0  0  0
  153.1087  136.1489  191.5306 C   0  0  0  0  0  0  0  0  0  0  0  0
  153.0869  136.7336  192.7879 N   0  0  0  0  0  0  0  0  0  0  0  0
  152.0269  136.4849  193.5555 C   0  0  0  0  0  0  0  0  0  0  0  0
  150.9941  135.6914  193.1429 C   0  0  0  0  0  0  0  0  0  0  0  0
  149.6093  135.3946  194.2167 Cl  0  0  0  0  0  0  0  0  0  0  0  0
  151.0407  135.1135  191.8718 C   0  0  0  0  0  0  0  0  0  0  0  0
  152.1161  135.3783  191.1226 N   0  0  0  0  0  0  0  0  0  0  0  0
  149.9017  134.3748  191.4755 N   0  0  0  0  0  0  0  0  0  0  0  0
  149.6085  133.5930  192.1539 H   0  0  0  0  0  0  0  0  0  0  0  0
  149.0965  134.5013  190.3416 C   0  0  0  0  0  0  0  0  0  0  0  0
  148.7837  135.7043  189.7349 C   0  0  0  0  0  0  0  0  0  0  0  0
  148.0222  135.7482  188.5938 C   0  0  0  0  0  0  0  0  0  0  0  0
  147.5269  134.6269  187.9815 C   0  0  0  0  0  0  0  0  0  0  0  0
  147.8566  133.4236  188.6103 C   0  0  0  0  0  0  0  0  0  0  0  0
  148.6078  133.3249  189.7444 C   0  0  0  0  0  0  0  0  0  0  0  0
  148.9864  131.7587  190.4576 S   0  0  0  0  0  0  0  0  0  0  0  0
  150.3946  131.6686  190.9400 O   0  0  0  0  0  0  0  0  0  0  0  0
  148.6381  130.6370  189.5072 O   0  0  0  0  0  0  0  0  0  0  0  0
  147.9162  131.5404  191.8649 C   0  0  0  0  0  0  0  0  0  0  0  0
  146.9441  130.4109  191.5588 C   0  0  0  0  0  0  0  0  0  0  0  0
  148.7111  131.0603  193.0806 C   0  0  0  0  0  0  0  0  0  0  0  0
 22 23  1  0  0  0
 23  1  1  0  0  0
  1  2  2  0  0  0
  2  3  1  0  0  0
  3  4  2  0  0  0
  4  5  1  0  0  0
  5  6  2  0  0  0
  6 24  1  0  0  0
 24 26  1  0  0  0
 26 27  2  0  0  0
 27 28  1  0  0  0
 28 29  2  0  0  0
 29 30  1  0  0  0
 29 31  1  0  0  0
 31 33  1  0  0  0
 33 35  1  0  0  0
 35 36  2  0  0  0
 36 37  1  0  0  0
 37 38  2  0  0  0
 38 39  1  0  0  0
 39 40  2  0  0  0
 40 41  1  0  0  0
 41 42  2  0  0  0
 41 43  2  0  0  0
 41 44  1  0  0  0
 44 45  1  0  0  0
 44 46  1  0  0  0
 31 32  2  0  0  0
  3  7  1  0  0  0
  7  8  1  0  0  0
  8  9  1  0  0  0
  9 10  1  0  0  0
 10 11  1  0  0  0
 11 12  1  0  0  0
 10 13  1  0  0  0
 13 14  1  0  0  0
 14 15  1  0  0  0
 15 16  1  0  0  0
 16 19  1  0  0  0
 19 20  1  0  0  0
 20 21  1  0  0  0
 16 17  1  0  0  0
 17 18  1  0  0  0
  6  1  1  0  0  0
 32 26  1  0  0  0
 12  7  1  0  0  0
 18 13  1  0  0  0
 40 35  1  0  0  0
 24 25  1  0  0  0
 33 34  1  0  0  0
M  END
> <minimizedAffinity>
-6.83070

> <CNNscore>
0.0789522454

> <CNNaffinity>
6.6246962547

> <CNN_VS>
0.5230346322

> <CNNaffinity_variance>
0.0299623758

$$$$
[H]c1nc(N([H])c2c([H])c([H])c(N3C([H])([H])C([H])([H])C([H])(N4C([H])([H])C([H])([H])N(C([H])([H])C([H])([H])F)C([H])([H])C4([H])[H])C([H])([H])C3([H])[H])c([H])c2OC([H])([H])[H])nc(N([H])c2c([H])c([H])c([H])c([H])c2S(=O)(=O)C([H])(C([H])([H])[H])C([H])([H])[H])c1Cl


 46 50  0  0  0  0  0  0  0  0999 V2000
  151.6417  137.2961  183.9685 C   0  0  0  0  0  0  0  0  0  0  0  0
  151.4306  136.4169  184.9990 C   0  0  0  0  0  0  0  0  0  0  0  0
  152.4372  136.0305  185.8436 C   0  0  0  0  0  0  0  0  0  0  0  0
  153.6776  136.5737  185.6004 C   0  0  0  0  0  0  0  0  0  0  0  0
  153.9053  137.4704  184.5546 C   0  0  0  0  0  0  0  0  0  0  0  0
  152.9068  137.8557  183.7160 C   0  0  0  0  0  0  0  0  0  0  0  0
  152.1734  135.1506  186.9202 N   0  0  0  0  0  0  0  0  0  0  0  0
  152.8448  135.3655  188.1631 C   0  0  0  0  0  0  0  0  0  0  0  0
  152.0997  135.0672  189.4035 C   0  0  0  0  0  0  0  0  0  0  0  0
  150.7277  134.5457  189.1121 C   0  0  0  0  0  0  0  0  0  0  0  0
  150.8017  133.4891  188.0487 C   0  0  0  0  0  0  0  0  0  0  0  0
  151.2231  134.0717  186.7080 C   0  0  0  0  0  0  0  0  0  0  0  0
  150.1167  133.9283  190.2741 N   0  0  0  0  0  0  0  0  0  0  0  0
  149.1678  134.7051  190.9720 C   0  0  0  0  0  0  0  0  0  0  0  0
  149.7145  135.3199  192.2186 C   0  0  0  0  0  0  0  0  0  0  0  0
  150.4805  134.3774  192.9642 N   0  0  0  0  0  0  0  0  0  0  0  0
  150.4882  133.0414  192.4643 C   0  0  0  0  0  0  0  0  0  0  0  0
  150.9757  133.0864  191.0223 C   0  0  0  0  0  0  0  0  0  0  0  0
  150.4246  134.5257  194.3769 C   0  0  0  0  0  0  0  0  0  0  0  0
  151.7245  134.9994  194.9966 C   0  0  0  0  0  0  0  0  0  0  0  0
  152.6433  133.9661  195.0341 F   0  0  0  0  0  0  0  0  0  0  0  0
  149.2331  137.3047  183.5428 C   0  0  0  0  0  0  0  0  0  0  0  0
  150.5424  137.6217  183.1668 O   0  0  0  0  0  0  0  0  0  0  0  0
  153.0327  138.7496  182.6575 N   0  0  0  0  0  0  0  0  0  0  0  0
  152.4589  138.4794  181.7740 H   0  0  0  0  0  0  0  0  0  0  0  0
  153.7766  139.9460  182.5137 C   0  0  0  0  0  0  0  0  0  0  0  0
  152.9751  141.0764  182.5681 N   0  0  0  0  0  0  0  0  0  0  0  0
  153.5846  142.2582  182.4883 C   0  0  0  0  0  0  0  0  0  0  0  0
  154.9397  142.3758  182.3584 C   0  0  0  0  0  0  0  0  0  0  0  0
  155.6924  143.9823  182.2526 Cl  0  0  0  0  0  0  0  0  0  0  0  0
  155.7247  141.2215  182.3053 C   0  0  0  0  0  0  0  0  0  0  0  0
  155.0876  140.0486  182.3861 N   0  0  0  0  0  0  0  0  0  0  0  0
  157.1247  141.4156  182.2569 N   0  0  0  0  0  0  0  0  0  0  0  0
  157.6645  141.0463  183.1112 H   0  0  0  0  0  0  0  0  0  0  0  0
  157.9175  142.0109  181.2735 C   0  0  0  0  0  0  0  0  0  0  0  0
  157.6848  141.9090  179.9139 C   0  0  0  0  0  0  0  0  0  0  0  0
  158.4814  142.5604  179.0055 C   0  0  0  0  0  0  0  0  0  0  0  0
  159.5435  143.3459  179.3698 C   0  0  0  0  0  0  0  0  0  0  0  0
  159.7586  143.4357  180.7474 C   0  0  0  0  0  0  0  0  0  0  0  0
  158.9985  142.8088  181.6907 C   0  0  0  0  0  0  0  0  0  0  0  0
  159.3371  142.9949  183.4099 S   0  0  0  0  0  0  0  0  0  0  0  0
  158.1380  142.7570  184.2640 O   0  0  0  0  0  0  0  0  0  0  0  0
  159.9777  144.3343  183.6897 O   0  0  0  0  0  0  0  0  0  0  0  0
  160.5638  141.7793  183.8469 C   0  0  0  0  0  0  0  0  0  0  0  0
  161.2863  142.2542  185.0987 C   0  0  0  0  0  0  0  0  0  0  0  0
  159.9006  140.4606  184.2486 C   0  0  0  0  0  0  0  0  0  0  0  0
 22 23  1  0  0  0
 23  1  1  0  0  0
  1  2  2  0  0  0
  2  3  1  0  0  0
  3  4  2  0  0  0
  4  5  1  0  0  0
  5  6  2  0  0  0
  6 24  1  0  0  0
 24 26  1  0  0  0
 26 27  2  0  0  0
 27 28  1  0  0  0
 28 29  2  0  0  0
 29 30  1  0  0  0
 29 31  1  0  0  0
 31 33  1  0  0  0
 33 35  1  0  0  0
 35 36  2  0  0  0
 36 37  1  0  0  0
 37 38  2  0  0  0
 38 39  1  0  0  0
 39 40  2  0  0  0
 40 41  1  0  0  0
 41 42  2  0  0  0
 41 43  2  0  0  0
 41 44  1  0  0  0
 44 45  1  0  0  0
 44 46  1  0  0  0
 31 32  2  0  0  0
  3  7  1  0  0  0
  7  8  1  0  0  0
  8  9  1  0  0  0
  9 10  1  0  0  0
 10 11  1  0  0  0
 11 12  1  0  0  0
 10 13  1  0  0  0
 13 14  1  0  0  0
 14 15  1  0  0  0
 15 16  1  0  0  0
 16 19  1  0  0  0
 19 20  1  0  0  0
 20 21  1  0  0  0
 16 17  1  0  0  0
 17 18  1  0  0  0
  6  1  1  0  0  0
 32 26  1  0  0  0
 12  7  1  0  0  0
 18 13  1  0  0  0
 40 35  1  0  0  0
 24 25  1  0  0  0
 33 34  1  0  0  0
M  END
> <minimizedAffinity>
-6.84622

> <CNNscore>
0.0744833723

> <CNNaffinity>
6.5707955360

> <CNN_VS>
0.4894150198

> <CNNaffinity_variance>
0.0748221800

$$$$
[H]c1nc(N([H])c2c([H])c([H])c(N3C([H])([H])C([H])([H])C([H])(N4C([H])([H])C([H])([H])N(C([H])([H])C([H])([H])F)C([H])([H])C4([H])[H])C([H])([H])C3([H])[H])c([H])c2OC([H])([H])[H])nc(N([H])c2c([H])c([H])c([H])c([H])c2S(=O)(=O)C([H])(C([H])([H])[H])C([H])([H])[H])c1Cl


 46 50  0  0  0  0  0  0  0  0999 V2000
  151.9066  137.6080  183.4626 C   0  0  0  0  0  0  0  0  0  0  0  0
  152.9922  138.4293  183.6257 C   0  0  0  0  0  0  0  0  0  0  0  0
  153.2934  139.4232  182.7327 C   0  0  0  0  0  0  0  0  0  0  0  0
  152.4447  139.5531  181.6577 C   0  0  0  0  0  0  0  0  0  0  0  0
  151.3356  138.7234  181.4807 C   0  0  0  0  0  0  0  0  0  0  0  0
  151.0347  137.7370  182.3668 C   0  0  0  0  0  0  0  0  0  0  0  0
  154.4006  140.2764  182.9542 N   0  0  0  0  0  0  0  0  0  0  0  0
  155.4262  139.8511  183.8537 C   0  0  0  0  0  0  0  0  0  0  0  0
  156.8174  140.2319  183.5339 C   0  0  0  0  0  0  0  0  0  0  0  0
  156.8925  141.0530  182.2852 C   0  0  0  0  0  0  0  0  0  0  0  0
  155.8453  142.1276  182.3208 C   0  0  0  0  0  0  0  0  0  0  0  0
  154.4418  141.5452  182.2469 C   0  0  0  0  0  0  0  0  0  0  0  0
  158.1727  141.7205  182.1430 N   0  0  0  0  0  0  0  0  0  0  0  0
  159.2944  141.0465  182.6707 C   0  0  0  0  0  0  0  0  0  0  0  0
  159.7348  141.5846  183.9925 C   0  0  0  0  0  0  0  0  0  0  0  0
  159.7569  143.0095  183.9867 N   0  0  0  0  0  0  0  0  0  0  0  0
  159.4786  143.6350  182.7352 C   0  0  0  0  0  0  0  0  0  0  0  0
  158.1243  143.1318  182.2539 C   0  0  0  0  0  0  0  0  0  0  0  0
  160.7707  143.6081  184.7834 C   0  0  0  0  0  0  0  0  0  0  0  0
  161.8373  142.6377  185.2510 C   0  0  0  0  0  0  0  0  0  0  0  0
  161.6447  142.3172  186.5827 F   0  0  0  0  0  0  0  0  0  0  0  0
  152.7072  135.7512  184.8387 C   0  0  0  0  0  0  0  0  0  0  0  0
  151.6929  136.6255  184.4352 O   0  0  0  0  0  0  0  0  0  0  0  0
  149.9492  136.8711  182.2828 N   0  0  0  0  0  0  0  0  0  0  0  0
  148.9853  137.3692  182.2077 H   0  0  0  0  0  0  0  0  0  0  0  0
  149.8651  135.4574  182.2836 C   0  0  0  0  0  0  0  0  0  0  0  0
  149.3620  134.9587  183.4759 N   0  0  0  0  0  0  0  0  0  0  0  0
  149.1998  133.6393  183.5625 C   0  0  0  0  0  0  0  0  0  0  0  0
  149.5086  132.7946  182.5340 C   0  0  0  0  0  0  0  0  0  0  0  0
  149.2732  131.0422  182.7139 Cl  0  0  0  0  0  0  0  0  0  0  0  0
  150.0146  133.3222  181.3436 C   0  0  0  0  0  0  0  0  0  0  0  0
  150.1689  134.6491  181.2837 N   0  0  0  0  0  0  0  0  0  0  0  0
  150.2319  132.4028  180.2913 N   0  0  0  0  0  0  0  0  0  0  0  0
  149.6182  131.5197  180.3254 H   0  0  0  0  0  0  0  0  0  0  0  0
  151.1178  132.4612  179.2134 C   0  0  0  0  0  0  0  0  0  0  0  0
  152.4948  132.5062  179.3345 C   0  0  0  0  0  0  0  0  0  0  0  0
  153.3060  132.5163  178.2272 C   0  0  0  0  0  0  0  0  0  0  0  0
  152.8226  132.4811  176.9456 C   0  0  0  0  0  0  0  0  0  0  0  0
  151.4297  132.4342  176.8473 C   0  0  0  0  0  0  0  0  0  0  0  0
  150.5797  132.4233  177.9140 C   0  0  0  0  0  0  0  0  0  0  0  0
  148.8335  132.3465  177.6914 S   0  0  0  0  0  0  0  0  0  0  0  0
  148.1247  133.5238  178.2704 O   0  0  0  0  0  0  0  0  0  0  0  0
  148.2824  131.0391  178.2110 O   0  0  0  0  0  0  0  0  0  0  0  0
  148.5190  132.3329  175.9380 C   0  0  0  0  0  0  0  0  0  0  0  0
  147.7767  131.0505  175.5928 C   0  0  0  0  0  0  0  0  0  0  0  0
  147.5615  133.4613  175.5505 C   0  0  0  0  0  0  0  0  0  0  0  0
 22 23  1  0  0  0
 23  1  1  0  0  0
  1  2  2  0  0  0
  2  3  1  0  0  0
  3  4  2  0  0  0
  4  5  1  0  0  0
  5  6  2  0  0  0
  6 24  1  0  0  0
 24 26  1  0  0  0
 26 27  2  0  0  0
 27 28  1  0  0  0
 28 29  2  0  0  0
 29 30  1  0  0  0
 29 31  1  0  0  0
 31 33  1  0  0  0
 33 35  1  0  0  0
 35 36  2  0  0  0
 36 37  1  0  0  0
 37 38  2  0  0  0
 38 39  1  0  0  0
 39 40  2  0  0  0
 40 41  1  0  0  0
 41 42  2  0  0  0
 41 43  2  0  0  0
 41 44  1  0  0  0
 44 45  1  0  0  0
 44 46  1  0  0  0
 31 32  2  0  0  0
  3  7  1  0  0  0
  7  8  1  0  0  0
  8  9  1  0  0  0
  9 10  1  0  0  0
 10 11  1  0  0  0
 11 12  1  0  0  0
 10 13  1  0  0  0
 13 14  1  0  0  0
 14 15  1  0  0  0
 15 16  1  0  0  0
 16 19  1  0  0  0
 19 20  1  0  0  0
 20 21  1  0  0  0
 16 17  1  0  0  0
 17 18  1  0  0  0
  6  1  1  0  0  0
 32 26  1  0  0  0
 12  7  1  0  0  0
 18 13  1  0  0  0
 40 35  1  0  0  0
 24 25  1  0  0  0
 33 34  1  0  0  0
M  END
> <minimizedAffinity>
-6.56181

> <CNNscore>
0.0694163591

> <CNNaffinity>
6.8031082153

> <CNN_VS>
0.4722470045

> <CNNaffinity_variance>
0.2748766243

$$$$
[H]C1=C(C(=O)[O-])N2C(=O)/C(=C(\[H])c3nc4n(c3[H])C([H])([H])C([H])([H])C4([H])[H])[C@@]2([H])S1


 20 23  0  0  0  0  0  0  0  0999 V2000
  157.6512  133.7568  189.8805 C   0  0  0  0  0  0  0  0  0  0  0  0
  157.7052  133.4746  188.6013 C   0  0  0  0  0  0  0  0  0  0  0  0
  156.7974  134.8125  187.7899 S   0  0  0  0  0  0  0  0  0  0  0  0
  155.9029  135.3009  189.3306 C   0  0  0  0  0  0  0  0  0  0  0  0
  156.9860  134.9185  190.2513 N   0  0  0  0  0  0  0  0  0  0  0  0
  156.6304  136.0942  191.0050 C   0  0  0  0  0  0  0  0  0  0  0  0
  156.7374  136.4514  192.2031 O   0  0  0  0  0  0  0  0  0  0  0  0
  156.1015  136.6663  189.7668 C   0  0  0  0  0  0  0  0  0  0  0  0
  155.8996  137.8779  189.2778 C   0  0  0  0  0  0  0  0  0  0  0  0
  155.3247  137.9978  187.9444 C   0  0  0  0  0  0  0  0  0  0  0  0
  154.0369  137.7494  187.5180 C   0  0  0  0  0  0  0  0  0  0  0  0
  153.9326  137.9892  186.1963 N   0  0  0  0  0  0  0  0  0  0  0  0
  152.9789  137.9643  185.0942 C   0  0  0  0  0  0  0  0  0  0  0  0
  153.6691  138.7380  184.0044 C   0  0  0  0  0  0  0  0  0  0  0  0
  155.1438  138.6795  184.3349 C   0  0  0  0  0  0  0  0  0  0  0  0
  155.1305  138.3841  185.7817 C   0  0  0  0  0  0  0  0  0  0  0  0
  155.9893  138.3927  186.8430 N   0  0  0  0  0  0  0  0  0  0  0  0
  159.1847  131.8587  190.4907 O   0  0  0  0  0  0  0  0  0  0  0  0
  158.3007  132.8568  190.8674 C   0  0  0  0  0  0  0  0  0  0  0  0
  158.0813  132.9535  192.1073 O   0  0  0  0  0  0  0  0  0  0  0  0
 18 19  1  0  0  0
 19 20  2  0  0  0
 19  1  1  0  0  0
  1  2  2  0  0  0
  2  3  1  0  0  0
  3  4  1  0  0  0
  4  5  1  0  0  0
  5  6  1  0  0  0
  6  7  2  0  0  0
  6  8  1  0  0  0
  8  9  2  0  0  0
  9 10  1  0  0  0
 10 11  2  0  0  0
 11 12  1  0  0  0
 12 13  1  0  0  0
 13 14  1  0  0  0
 14 15  1  0  0  0
 15 16  1  0  0  0
 16 17  2  0  0  0
  5  1  1  0  0  0
 17 10  1  0  0  0
  8  4  1  0  0  0
 16 12  1  0  0  0
M  CHG 1  18  -1
M  END
> <minimizedAffinity>
-4.63740

> <CNNscore>
0.4147240222

> <CNNaffinity>
4.6862063408

> <CNN_VS>
1.9434823990

> <CNNaffinity_variance>
0.0531674810

$$$$
[H]C1=C(C(=O)[O-])N2C(=O)/C(=C(\[H])c3nc4n(c3[H])C([H])([H])C([H])([H])C4([H])[H])[C@@]2([H])S1


 20 23  0  0  0  0  0  0  0  0999 V2000
  154.2253  137.5428  186.5319 C   0  0  0  0  0  0  0  0  0  0  0  0
  153.1020  138.0067  187.0239 C   0  0  0  0  0  0  0  0  0  0  0  0
  153.0043  137.3175  188.6935 S   0  0  0  0  0  0  0  0  0  0  0  0
  154.2074  135.9627  188.3336 C   0  0  0  0  0  0  0  0  0  0  0  0
  154.9945  136.7281  187.3530 N   0  0  0  0  0  0  0  0  0  0  0  0
  156.1516  136.0879  187.9256 C   0  0  0  0  0  0  0  0  0  0  0  0
  157.3026  135.7974  187.5188 O   0  0  0  0  0  0  0  0  0  0  0  0
  155.3909  135.9356  189.1659 C   0  0  0  0  0  0  0  0  0  0  0  0
  155.6662  135.8238  190.4541 C   0  0  0  0  0  0  0  0  0  0  0  0
  154.5566  135.6839  191.3881 C   0  0  0  0  0  0  0  0  0  0  0  0
  153.9307  134.5424  191.8431 C   0  0  0  0  0  0  0  0  0  0  0  0
  152.9452  134.8664  192.7029 N   0  0  0  0  0  0  0  0  0  0  0  0
  151.9108  134.2754  193.5428 C   0  0  0  0  0  0  0  0  0  0  0  0
  151.4910  135.4046  194.4436 C   0  0  0  0  0  0  0  0  0  0  0  0
  151.8910  136.6718  193.7214 C   0  0  0  0  0  0  0  0  0  0  0  0
  152.9385  136.1906  192.7983 C   0  0  0  0  0  0  0  0  0  0  0  0
  153.9201  136.7005  191.9981 N   0  0  0  0  0  0  0  0  0  0  0  0
  155.3912  139.0368  184.8782 O   0  0  0  0  0  0  0  0  0  0  0  0
  154.6380  137.9068  185.1525 C   0  0  0  0  0  0  0  0  0  0  0  0
  154.3235  137.2032  184.1520 O   0  0  0  0  0  0  0  0  0  0  0  0
 18 19  1  0  0  0
 19 20  2  0  0  0
 19  1  1  0  0  0
  1  2  2  0  0  0
  2  3  1  0  0  0
  3  4  1  0  0  0
  4  5  1  0  0  0
  5  6  1  0  0  0
  6  7  2  0  0  0
  6  8  1  0  0  0
  8  9  2  0  0  0
  9 10  1  0  0  0
 10 11  2  0  0  0
 11 12  1  0  0  0
 12 13  1  0  0  0
 13 14  1  0  0  0
 14 15  1  0  0  0
 15 16  1  0  0  0
 16 17  2  0  0  0
  5  1  1  0  0  0
 17 10  1  0  0  0
  8  4  1  0  0  0
 16 12  1  0  0  0
M  CHG 1  18  -1
M  END
> <minimizedAffinity>
-4.22492

> <CNNscore>
0.3558949232

> <CNNaffinity>
4.5701761246

> <CNN_VS>
1.6265025139

> <CNNaffinity_variance>
0.0332477354

$$$$
[H]C1=C(C(=O)[O-])N2C(=O)/C(=C(\[H])c3nc4n(c3[H])C([H])([H])C([H])([H])C4([H])[H])[C@@]2([H])S1


 20 23  0  0  0  0  0  0  0  0999 V2000
  151.2577  136.9363  185.4276 C   0  0  0  0  0  0  0  0  0  0  0  0
  150.9161  136.5436  186.6309 C   0  0  0  0  0  0  0  0  0  0  0  0
  152.4534  136.5698  187.5839 S   0  0  0  0  0  0  0  0  0  0  0  0
  153.5261  136.5232  186.0808 C   0  0  0  0  0  0  0  0  0  0  0  0
  152.5914  137.2618  185.2160 N   0  0  0  0  0  0  0  0  0  0  0  0
  153.7587  137.9010  184.6631 C   0  0  0  0  0  0  0  0  0  0  0  0
  154.0431  138.4453  183.5688 O   0  0  0  0  0  0  0  0  0  0  0  0
  154.4427  137.6326  185.9281 C   0  0  0  0  0  0  0  0  0  0  0  0
  155.4415  138.1643  186.6118 C   0  0  0  0  0  0  0  0  0  0  0  0
  155.8125  137.5527  187.8812 C   0  0  0  0  0  0  0  0  0  0  0  0
  155.7000  138.0513  189.1620 C   0  0  0  0  0  0  0  0  0  0  0  0
  156.1653  137.1522  190.0512 N   0  0  0  0  0  0  0  0  0  0  0  0
  156.3716  136.9475  191.4796 C   0  0  0  0  0  0  0  0  0  0  0  0
  156.6362  135.4713  191.5962 C   0  0  0  0  0  0  0  0  0  0  0  0
  157.1050  135.0322  190.2270 C   0  0  0  0  0  0  0  0  0  0  0  0
  156.5689  136.0964  189.3547 C   0  0  0  0  0  0  0  0  0  0  0  0
  156.3576  136.3311  188.0264 N   0  0  0  0  0  0  0  0  0  0  0  0
  148.9444  136.5458  184.5205 O   0  0  0  0  0  0  0  0  0  0  0  0
  150.2307  137.0344  184.3591 C   0  0  0  0  0  0  0  0  0  0  0  0
  150.4760  137.5703  183.2422 O   0  0  0  0  0  0  0  0  0  0  0  0
 18 19  1  0  0  0
 19 20  2  0  0  0
 19  1  1  0  0  0
  1  2  2  0  0  0
  2  3  1  0  0  0
  3  4  1  0  0  0
  4  5  1  0  0  0
  5  6  1  0  0  0
  6  7  2  0  0  0
  6  8  1  0  0  0
  8  9  2  0  0  0
  9 10  1  0  0  0
 10 11  2  0  0  0
 11 12  1  0  0  0
 12 13  1  0  0  0
 13 14  1  0  0  0
 14 15  1  0  0  0
 15 16  1  0  0  0
 16 17  2  0  0  0
  5  1  1  0  0  0
 17 10  1  0  0  0
  8  4  1  0  0  0
 16 12  1  0  0  0
M  CHG 1  18  -1
M  END
> <minimizedAffinity>
-4.42712

> <CNNscore>
0.3106482327

> <CNNaffinity>
4.4854955673

> <CNN_VS>
1.3934112787

> <CNNaffinity_variance>
0.0043993308

$$$$
[H]C1=C(C(=O)[O-])N2C(=O)/C(=C(\[H])c3nc4n(c3[H])C([H])([H])C([H])([H])C4([H])[H])[C@@]2([H])S1


 20 23  0  0  0  0  0  0  0  0999 V2000
  152.9507  136.4659  191.7472 C   0  0  0  0  0  0  0  0  0  0  0  0
  151.9805  136.3199  190.8775 C   0  0  0  0  0  0  0  0  0  0  0  0
  152.7300  136.6974  189.2750 S   0  0  0  0  0  0  0  0  0  0  0  0
  154.1462  137.6199  190.0203 C   0  0  0  0  0  0  0  0  0  0  0  0
  154.2003  136.8229  191.2568 N   0  0  0  0  0  0  0  0  0  0  0  0
  155.6333  136.9338  191.1516 C   0  0  0  0  0  0  0  0  0  0  0  0
  156.5923  136.8948  191.9600 O   0  0  0  0  0  0  0  0  0  0  0  0
  155.4634  137.1078  189.7091 C   0  0  0  0  0  0  0  0  0  0  0  0
  156.1873  136.8938  188.6238 C   0  0  0  0  0  0  0  0  0  0  0  0
  155.6064  137.2255  187.3293 C   0  0  0  0  0  0  0  0  0  0  0  0
  154.8785  136.4348  186.4652 C   0  0  0  0  0  0  0  0  0  0  0  0
  154.5314  137.1418  185.3721 N   0  0  0  0  0  0  0  0  0  0  0  0
  153.8161  137.0274  184.1071 C   0  0  0  0  0  0  0  0  0  0  0  0
  153.6382  138.4540  183.6649 C   0  0  0  0  0  0  0  0  0  0  0  0
  154.7095  139.2407  184.3865 C   0  0  0  0  0  0  0  0  0  0  0  0
  155.0268  138.3633  185.5312 C   0  0  0  0  0  0  0  0  0  0  0  0
  155.6863  138.4251  186.7250 N   0  0  0  0  0  0  0  0  0  0  0  0
  151.9175  137.0934  193.9530 O   0  0  0  0  0  0  0  0  0  0  0  0
  152.6940  136.2349  193.1917 C   0  0  0  0  0  0  0  0  0  0  0  0
  153.1714  135.2399  193.8056 O   0  0  0  0  0  0  0  0  0  0  0  0
 18 19  1  0  0  0
 19 20  2  0  0  0
 19  1  1  0  0  0
  1  2  2  0  0  0
  2  3  1  0  0  0
  3  4  1  0  0  0
  4  5  1  0  0  0
  5  6  1  0  0  0
  6  7  2  0  0  0
  6  8  1  0  0  0
  8  9  2  0  0  0
  9 10  1  0  0  0
 10 11  2  0  0  0
 11 12  1  0  0  0
 12 13  1  0  0  0
 13 14  1  0  0  0
 14 15  1  0  0  0
 15 16  1  0  0  0
 16 17  2  0  0  0
  5  1  1  0  0  0
 17 10  1  0  0  0
  8  4  1  0  0  0
 16 12  1  0  0  0
M  CHG 1  18  -1
M  END
> <minimizedAffinity>
-5.16181

> <CNNscore>
0.2869651318

> <CNNaffinity>
4.7523884773

> <CNN_VS>
1.3637697697

> <CNNaffinity_variance>
0.0578826889

$$$$
[H]C1=C(C(=O)[O-])N2C(=O)/C(=C(\[H])c3nc4n(c3[H])C([H])([H])C([H])([H])C4([H])[H])[C@@]2([H])S1


 20 23  0  0  0  0  0  0  0  0999 V2000
  153.0229  138.0020  184.8023 C   0  0  0  0  0  0  0  0  0  0  0  0
  153.6443  138.7552  185.6773 C   0  0  0  0  0  0  0  0  0  0  0  0
  153.1733  138.0828  187.2893 S   0  0  0  0  0  0  0  0  0  0  0  0
  151.6800  137.2205  186.6269 C   0  0  0  0  0  0  0  0  0  0  0  0
  152.2458  136.9605  185.2930 N   0  0  0  0  0  0  0  0  0  0  0  0
  151.5754  135.6867  185.3626 C   0  0  0  0  0  0  0  0  0  0  0  0
  151.1331  134.8649  184.5237 O   0  0  0  0  0  0  0  0  0  0  0  0
  151.6445  135.7869  186.8204 C   0  0  0  0  0  0  0  0  0  0  0  0
  151.6639  134.9470  187.8412 C   0  0  0  0  0  0  0  0  0  0  0  0
  151.7405  135.4980  189.1879 C   0  0  0  0  0  0  0  0  0  0  0  0
  150.7266  135.7910  190.0755 C   0  0  0  0  0  0  0  0  0  0  0  0
  151.2405  136.2879  191.2176 N   0  0  0  0  0  0  0  0  0  0  0  0
  150.8538  136.7938  192.5288 C   0  0  0  0  0  0  0  0  0  0  0  0
  152.1435  136.8081  193.3028 C   0  0  0  0  0  0  0  0  0  0  0  0
  153.2417  136.8441  192.2636 C   0  0  0  0  0  0  0  0  0  0  0  0
  152.5593  136.3135  191.0663 C   0  0  0  0  0  0  0  0  0  0  0  0
  152.8757  135.8326  189.8283 N   0  0  0  0  0  0  0  0  0  0  0  0
  153.6868  139.4635  182.8659 O   0  0  0  0  0  0  0  0  0  0  0  0
  153.1784  138.2690  183.3496 C   0  0  0  0  0  0  0  0  0  0  0  0
  152.8543  137.4183  182.4743 O   0  0  0  0  0  0  0  0  0  0  0  0
 18 19  1  0  0  0
 19 20  2  0  0  0
 19  1  1  0  0  0
  1  2  2  0  0  0
  2  3  1  0  0  0
  3  4  1  0  0  0
  4  5  1  0  0  0
  5  6  1  0  0  0
  6  7  2  0  0  0
  6  8  1  0  0  0
  8  9  2  0  0  0
  9 10  1  0  0  0
 10 11  2  0  0  0
 11 12  1  0  0  0
 12 13  1  0  0  0
 13 14  1  0  0  0
 14 15  1  0  0  0
 15 16  1  0  0  0
 16 17  2  0  0  0
  5  1  1  0  0  0
 17 10  1  0  0  0
  8  4  1  0  0  0
 16 12  1  0  0  0
M  CHG 1  18  -1
M  END
> <minimizedAffinity>
-4.02452

> <CNNscore>
0.2793935537

> <CNNaffinity>
4.5082702637

> <CNN_VS>
1.2595816851

> <CNNaffinity_variance>
0.1403869390

$$$$
[H]C1=C(C(=O)[O-])N2C(=O)/C(=C(\[H])c3nc4n(c3[H])C([H])([H])C([H])([H])C4([H])[H])[C@@]2([H])S1


 20 23  0  0  0  0  0  0  0  0999 V2000
  151.9439  135.1638  191.4309 C   0  0  0  0  0  0  0  0  0  0  0  0
  152.1289  133.8898  191.1822 C   0  0  0  0  0  0  0  0  0  0  0  0
  153.8998  133.7322  190.8487 S   0  0  0  0  0  0  0  0  0  0  0  0
  154.1111  135.5289  190.4754 C   0  0  0  0  0  0  0  0  0  0  0  0
  153.0598  135.9903  191.3968 N   0  0  0  0  0  0  0  0  0  0  0  0
  153.9394  137.0919  191.6959 C   0  0  0  0  0  0  0  0  0  0  0  0
  153.7880  138.2668  192.1096 O   0  0  0  0  0  0  0  0  0  0  0  0
  155.0606  136.2363  191.3073 C   0  0  0  0  0  0  0  0  0  0  0  0
  156.3494  136.1541  191.5902 C   0  0  0  0  0  0  0  0  0  0  0  0
  157.1316  135.1046  190.9501 C   0  0  0  0  0  0  0  0  0  0  0  0
  157.6525  133.9462  191.4875 C   0  0  0  0  0  0  0  0  0  0  0  0
  158.3136  133.2529  190.5401 N   0  0  0  0  0  0  0  0  0  0  0  0
  159.0772  132.0288  190.3326 C   0  0  0  0  0  0  0  0  0  0  0  0
  159.1436  131.8963  188.8357 C   0  0  0  0  0  0  0  0  0  0  0  0
  158.9116  133.2888  188.2930 C   0  0  0  0  0  0  0  0  0  0  0  0
  158.2191  133.9527  189.4157 C   0  0  0  0  0  0  0  0  0  0  0  0
  157.4982  135.0870  189.6555 N   0  0  0  0  0  0  0  0  0  0  0  0
  149.5659  135.6992  190.8105 O   0  0  0  0  0  0  0  0  0  0  0  0
  150.5839  135.6682  191.7498 C   0  0  0  0  0  0  0  0  0  0  0  0
  150.2813  136.0974  192.8983 O   0  0  0  0  0  0  0  0  0  0  0  0
 18 19  1  0  0  0
 19 20  2  0  0  0
 19  1  1  0  0  0
  1  2  2  0  0  0
  2  3  1  0  0  0
  3  4  1  0  0  0
  4  5  1  0  0  0
  5  6  1  0  0  0
  6  7  2  0  0  0
  6  8  1  0  0  0
  8  9  2  0  0  0
  9 10  1  0  0  0
 10 11  2  0  0  0
 11 12  1  0  0  0
 12 13  1  0  0  0
 13 14  1  0  0  0
 14 15  1  0  0  0
 15 16  1  0  0  0
 16 17  2  0  0  0
  5  1  1  0  0  0
 17 10  1  0  0  0
  8  4  1  0  0  0
 16 12  1  0  0  0
M  CHG 1  18  -1
M  END
> <minimizedAffinity>
-4.10074

> <CNNscore>
0.2790323496

> <CNNaffinity>
4.4683990479

> <CNN_VS>
1.2468278408

> <CNNaffinity_variance>
0.0205137786

$$$$
[H]C1=C(C(=O)[O-])N2C(=O)/C(=C(\[H])c3nc4n(c3[H])C([H])([H])C([H])([H])C4([H])[H])[C@@]2([H])S1


 20 23  0  0  0  0  0  0  0  0999 V2000
  154.8102  138.0858  186.6066 C   0  0  0  0  0  0  0  0  0  0  0  0
  155.6772  137.9202  187.5762 C   0  0  0  0  0  0  0  0  0  0  0  0
  154.7196  137.2245  188.9442 S   0  0  0  0  0  0  0  0  0  0  0  0
  153.1026  137.8035  188.2642 C   0  0  0  0  0  0  0  0  0  0  0  0
  153.4980  137.7007  186.8499 N   0  0  0  0  0  0  0  0  0  0  0  0
  152.1589  137.2253  186.6097 C   0  0  0  0  0  0  0  0  0  0  0  0
  151.3788  137.2164  185.6269 O   0  0  0  0  0  0  0  0  0  0  0  0
  152.1257  136.7693  187.9993 C   0  0  0  0  0  0  0  0  0  0  0  0
  151.4902  135.8381  188.6899 C   0  0  0  0  0  0  0  0  0  0  0  0
  151.7666  135.7263  190.1161 C   0  0  0  0  0  0  0  0  0  0  0  0
  151.4332  136.5823  191.1447 C   0  0  0  0  0  0  0  0  0  0  0  0
  151.8851  136.0953  192.3169 N   0  0  0  0  0  0  0  0  0  0  0  0
  151.9305  136.3892  193.7439 C   0  0  0  0  0  0  0  0  0  0  0  0
  152.3519  135.0860  194.3657 C   0  0  0  0  0  0  0  0  0  0  0  0
  153.0404  134.3126  193.2633 C   0  0  0  0  0  0  0  0  0  0  0  0
  152.4969  134.9485  192.0463 C   0  0  0  0  0  0  0  0  0  0  0  0
  152.4303  134.7135  190.7031 N   0  0  0  0  0  0  0  0  0  0  0  0
  154.5596  138.4214  184.1265 O   0  0  0  0  0  0  0  0  0  0  0  0
  155.2504  138.6504  185.3054 C   0  0  0  0  0  0  0  0  0  0  0  0
  156.2818  139.3720  185.2034 O   0  0  0  0  0  0  0  0  0  0  0  0
 18 19  1  0  0  0
 19 20  2  0  0  0
 19  1  1  0  0  0
  1  2  2  0  0  0
  2  3  1  0  0  0
  3  4  1  0  0  0
  4  5  1  0  0  0
  5  6  1  0  0  0
  6  7  2  0  0  0
  6  8  1  0  0  0
  8  9  2  0  0  0
  9 10  1  0  0  0
 10 11  2  0  0  0
 11 12  1  0  0  0
 12 13  1  0  0  0
 13 14  1  0  0  0
 14 15  1  0  0  0
 15 16  1  0  0  0
 16 17  2  0  0  0
  5  1  1  0  0  0
 17 10  1  0  0  0
  8  4  1  0  0  0
 16 12  1  0  0  0
M  CHG 1  18  -1
M  END
> <minimizedAffinity>
-4.26707

> <CNNscore>
0.2734596431

> <CNNaffinity>
4.4762582779

> <CNN_VS>
1.2240760326

> <CNNaffinity_variance>
0.0469555184

$$$$
[H]C1=C(C(=O)[O-])N2C(=O)/C(=C(\[H])c3nc4n(c3[H])C([H])([H])C([H])([H])C4([H])[H])[C@@]2([H])S1


 20 23  0  0  0  0  0  0  0  0999 V2000
  155.1365  137.8023  189.5504 C   0  0  0  0  0  0  0  0  0  0  0  0
  155.8372  138.0746  188.4763 C   0  0  0  0  0  0  0  0  0  0  0  0
  154.8849  137.3726  187.1079 S   0  0  0  0  0  0  0  0  0  0  0  0
  153.9261  136.2340  188.2019 C   0  0  0  0  0  0  0  0  0  0  0  0
  153.9383  137.1214  189.3764 N   0  0  0  0  0  0  0  0  0  0  0  0
  152.5869  136.6769  189.6064 C   0  0  0  0  0  0  0  0  0  0  0  0
  151.8387  136.5799  190.6090 O   0  0  0  0  0  0  0  0  0  0  0  0
  152.4886  136.3978  188.1737 C   0  0  0  0  0  0  0  0  0  0  0  0
  151.5237  136.3278  187.2726 C   0  0  0  0  0  0  0  0  0  0  0  0
  151.8840  136.0050  185.8982 C   0  0  0  0  0  0  0  0  0  0  0  0
  152.2224  134.7894  185.3417 C   0  0  0  0  0  0  0  0  0  0  0  0
  152.4854  134.9387  184.0287 N   0  0  0  0  0  0  0  0  0  0  0  0
  152.8797  134.1897  182.8419 C   0  0  0  0  0  0  0  0  0  0  0  0
  152.5922  135.1357  181.7084 C   0  0  0  0  0  0  0  0  0  0  0  0
  152.5814  136.5173  182.3237 C   0  0  0  0  0  0  0  0  0  0  0  0
  152.3191  136.2255  183.7474 C   0  0  0  0  0  0  0  0  0  0  0  0
  151.9513  136.8866  184.8839 N   0  0  0  0  0  0  0  0  0  0  0  0
  155.0985  139.3306  191.5478 O   0  0  0  0  0  0  0  0  0  0  0  0
  155.6251  138.2339  190.8849 C   0  0  0  0  0  0  0  0  0  0  0  0
  156.5502  137.6222  191.4890 O   0  0  0  0  0  0  0  0  0  0  0  0
 18 19  1  0  0  0
 19 20  2  0  0  0
 19  1  1  0  0  0
  1  2  2  0  0  0
  2  3  1  0  0  0
  3  4  1  0  0  0
  4  5  1  0  0  0
  5  6  1  0  0  0
  6  7  2  0  0  0
  6  8  1  0  0  0
  8  9  2  0  0  0
  9 10  1  0  0  0
 10 11  2  0  0  0
 11 12  1  0  0  0
 12 13  1  0  0  0
 13 14  1  0  0  0
 14 15  1  0  0  0
 15 16  1  0  0  0
 16 17  2  0  0  0
  5  1  1  0  0  0
 17 10  1  0  0  0
  8  4  1  0  0  0
 16 12  1  0  0  0
M  CHG 1  18  -1
M  END
> <minimizedAffinity>
-4.12261

> <CNNscore>
0.2705197334

> <CNNaffinity>
4.4235296249

> <CNN_VS>
1.1966520548

> <CNNaffinity_variance>
0.0531444773

$$$$
[H]C1=C(C(=O)[O-])N2C(=O)/C(=C(\[H])c3nc4n(c3[H])C([H])([H])C([H])([H])C4([H])[H])[C@@]2([H])S1


 20 23  0  0  0  0  0  0  0  0999 V2000
  153.9258  135.7569  184.9244 C   0  0  0  0  0  0  0  0  0  0  0  0
  153.1151  134.9856  184.2410 C   0  0  0  0  0  0  0  0  0  0  0  0
  152.2495  136.1031  183.1122 S   0  0  0  0  0  0  0  0  0  0  0  0
  152.6358  137.6066  184.1134 C   0  0  0  0  0  0  0  0  0  0  0  0
  153.9265  137.1122  184.6203 N   0  0  0  0  0  0  0  0  0  0  0  0
  154.3985  138.4642  184.4588 C   0  0  0  0  0  0  0  0  0  0  0  0
  155.2985  139.1631  184.9843 O   0  0  0  0  0  0  0  0  0  0  0  0
  153.3757  138.6447  183.4286 C   0  0  0  0  0  0  0  0  0  0  0  0
  153.2098  139.4095  182.3631 C   0  0  0  0  0  0  0  0  0  0  0  0
  151.9869  139.2559  181.5860 C   0  0  0  0  0  0  0  0  0  0  0  0
  151.8269  139.0625  180.2300 C   0  0  0  0  0  0  0  0  0  0  0  0
  150.5172  138.9710  179.9269 N   0  0  0  0  0  0  0  0  0  0  0  0
  149.6066  138.7812  178.8046 C   0  0  0  0  0  0  0  0  0  0  0  0
  148.2906  138.4626  179.4599 C   0  0  0  0  0  0  0  0  0  0  0  0
  148.3887  139.0197  180.8626 C   0  0  0  0  0  0  0  0  0  0  0  0
  149.8490  139.1031  181.0665 C   0  0  0  0  0  0  0  0  0  0  0  0
  150.7384  139.2779  182.0874 N   0  0  0  0  0  0  0  0  0  0  0  0
  155.3840  135.9349  186.9661 O   0  0  0  0  0  0  0  0  0  0  0  0
  154.8080  135.1698  185.9649 C   0  0  0  0  0  0  0  0  0  0  0  0
  155.0815  133.9371  185.9930 O   0  0  0  0  0  0  0  0  0  0  0  0
 18 19  1  0  0  0
 19 20  2  0  0  0
 19  1  1  0  0  0
  1  2  2  0  0  0
  2  3  1  0  0  0
  3  4  1  0  0  0
  4  5  1  0  0  0
  5  6  1  0  0  0
  6  7  2  0  0  0
  6  8  1  0  0  0
  8  9  2  0  0  0
  9 10  1  0  0  0
 10 11  2  0  0  0
 11 12  1  0  0  0
 12 13  1  0  0  0
 13 14  1  0  0  0
 14 15  1  0  0  0
 15 16  1  0  0  0
 16 17  2  0  0  0
  5  1  1  0  0  0
 17 10  1  0  0  0
  8  4  1  0  0  0
 16 12  1  0  0  0
M  CHG 1  18  -1
M  END
> <minimizedAffinity>
-4.42988

> <CNNscore>
0.2591292560

> <CNNaffinity>
4.3921403885

> <CNN_VS>
1.1381320953

> <CNNaffinity_variance>
0.0264684409

$$$$
[H]c1c([H])c([H])c2c(c1[H])c1c3c(c4c5c([H])c([H])c([H])c([H])c5n5c4c1n2[C@]1([H])O[C@]5(C([H])([H])[H])[C@]([H])(OC([H])([H])[H])[C@@]([H])(N([H])C([H])([H])[H])C1([H])[H])C([H])([H])N([H])C3=O


 37 44  0  0  0  0  0  0  0  0999 V2000
  156.5614  137.3383  189.2241 C   0  0  0  0  0  0  0  0  0  0  0  0
  155.8358  137.6275  187.8691 C   0  0  0  0  0  0  0  0  0  0  0  0
  154.5322  137.3498  188.1986 C   0  0  0  0  0  0  0  0  0  0  0  0
  154.2493  138.2505  189.2212 O   0  0  0  0  0  0  0  0  0  0  0  0
  154.3383  137.4992  190.4354 C   0  0  0  0  0  0  0  0  0  0  0  0
  154.4182  138.6478  191.4708 C   0  0  0  0  0  0  0  0  0  0  0  0
  155.5863  136.7754  190.2968 C   0  0  0  0  0  0  0  0  0  0  0  0
  153.0468  136.8512  190.5292 N   0  0  0  0  0  0  0  0  0  0  0  0
  152.4149  136.5140  191.6819 C   0  0  0  0  0  0  0  0  0  0  0  0
  152.8120  136.5415  192.9880 C   0  0  0  0  0  0  0  0  0  0  0  0
  151.9552  136.1255  193.9989 C   0  0  0  0  0  0  0  0  0  0  0  0
  150.6639  135.6658  193.7214 C   0  0  0  0  0  0  0  0  0  0  0  0
  150.2539  135.6335  192.4051 C   0  0  0  0  0  0  0  0  0  0  0  0
  151.1313  136.0540  191.4290 C   0  0  0  0  0  0  0  0  0  0  0  0
  150.9560  136.0991  190.0935 C   0  0  0  0  0  0  0  0  0  0  0  0
  149.9157  135.8246  189.1928 C   0  0  0  0  0  0  0  0  0  0  0  0
  148.5714  135.3132  189.5065 C   0  0  0  0  0  0  0  0  0  0  0  0
  147.9090  135.1986  188.2324 N   0  0  0  0  0  0  0  0  0  0  0  0
  148.7976  135.6345  187.1824 C   0  0  0  0  0  0  0  0  0  0  0  0
  148.4052  135.6189  186.0053 O   0  0  0  0  0  0  0  0  0  0  0  0
  150.0327  136.0133  187.8273 C   0  0  0  0  0  0  0  0  0  0  0  0
  151.2155  136.4905  187.2799 C   0  0  0  0  0  0  0  0  0  0  0  0
  151.7056  136.7474  186.0300 C   0  0  0  0  0  0  0  0  0  0  0  0
  151.1653  136.6771  184.7882 C   0  0  0  0  0  0  0  0  0  0  0  0
  151.9788  137.0270  183.6952 C   0  0  0  0  0  0  0  0  0  0  0  0
  153.2818  137.4276  183.8901 C   0  0  0  0  0  0  0  0  0  0  0  0
  153.8238  137.4958  185.1666 C   0  0  0  0  0  0  0  0  0  0  0  0
  153.0129  137.1503  186.2142 C   0  0  0  0  0  0  0  0  0  0  0  0
  153.3287  137.1492  187.5044 N   0  0  0  0  0  0  0  0  0  0  0  0
  152.2174  136.7503  188.1781 C   0  0  0  0  0  0  0  0  0  0  0  0
  152.0970  136.5670  189.5666 C   0  0  0  0  0  0  0  0  0  0  0  0
  146.9295  134.8451  188.1472 H   0  0  0  0  0  0  0  0  0  0  0  0
  156.8633  135.0288  188.6512 C   0  0  0  0  0  0  0  0  0  0  0  0
  157.5023  136.2752  188.9249 N   0  0  0  0  0  0  0  0  0  0  0  0
  158.1758  136.1791  189.7435 H   0  0  0  0  0  0  0  0  0  0  0  0
  156.3415  137.0351  191.4786 O   0  0  0  0  0  0  0  0  0  0  0  0
  156.5615  135.9299  192.2380 C   0  0  0  0  0  0  0  0  0  0  0  0
 33 34  1  0  0  0
 34  1  1  0  0  0
  1  2  1  0  0  0
  2  3  1  0  0  0
  3  4  1  0  0  0
  4  5  1  0  0  0
  5  6  1  0  0  0
  5  7  1  0  0  0
  7 36  1  0  0  0
 36 37  1  0  0  0
  5  8  1  0  0  0
  8  9  1  0  0  0
  9 10  2  0  0  0
 10 11  1  0  0  0
 11 12  2  0  0  0
 12 13  1  0  0  0
 13 14  2  0  0  0
 14 15  1  0  0  0
 15 16  2  0  0  0
 16 17  1  0  0  0
 17 18  1  0  0  0
 18 19  1  0  0  0
 19 20  2  0  0  0
 19 21  1  0  0  0
 21 22  2  0  0  0
 22 23  1  0  0  0
 23 24  2  0  0  0
 24 25  1  0  0  0
 25 26  2  0  0  0
 26 27  1  0  0  0
 27 28  2  0  0  0
 28 29  1  0  0  0
 29 30  1  0  0  0
 30 31  2  0  0  0
  7  1  1  0  0  0
 31  8  1  0  0  0
 29  3  1  0  0  0
 14  9  1  0  0  0
 31 15  1  0  0  0
 21 16  1  0  0  0
 30 22  1  0  0  0
 28 23  1  0  0  0
 34 35  1  0  0  0
 18 32  1  0  0  0
M  END
> <minimizedAffinity>
-7.59095

> <CNNscore>
0.4655369818

> <CNNaffinity>
5.7936415672

> <CNN_VS>
2.6971545219

> <CNNaffinity_variance>
0.5290058851

$$$$
[H]c1c([H])c([H])c2c(c1[H])c1c3c(c4c5c([H])c([H])c([H])c([H])c5n5c4c1n2[C@]1([H])O[C@]5(C([H])([H])[H])[C@]([H])(OC([H])([H])[H])[C@@]([H])(N([H])C([H])([H])[H])C1([H])[H])C([H])([H])N([H])C3=O


 37 44  0  0  0  0  0  0  0  0999 V2000
  148.1795  134.2685  188.0040 C   0  0  0  0  0  0  0  0  0  0  0  0
  148.5776  134.7860  189.4253 C   0  0  0  0  0  0  0  0  0  0  0  0
  149.7280  135.4812  189.1449 C   0  0  0  0  0  0  0  0  0  0  0  0
  149.3114  136.4671  188.2554 O   0  0  0  0  0  0  0  0  0  0  0  0
  149.7007  136.0081  186.9575 C   0  0  0  0  0  0  0  0  0  0  0  0
  148.8478  136.9406  186.0626 C   0  0  0  0  0  0  0  0  0  0  0  0
  149.2472  134.6317  186.9333 C   0  0  0  0  0  0  0  0  0  0  0  0
  151.0944  136.3904  186.8661 N   0  0  0  0  0  0  0  0  0  0  0  0
  151.7529  136.7052  185.7221 C   0  0  0  0  0  0  0  0  0  0  0  0
  151.3937  136.6325  184.4067 C   0  0  0  0  0  0  0  0  0  0  0  0
  152.2777  137.0188  183.4076 C   0  0  0  0  0  0  0  0  0  0  0  0
  153.5591  137.4926  183.7065 C   0  0  0  0  0  0  0  0  0  0  0  0
  153.9315  137.5689  185.0320 C   0  0  0  0  0  0  0  0  0  0  0  0
  153.0279  137.1769  185.9961 C   0  0  0  0  0  0  0  0  0  0  0  0
  153.1737  137.1535  187.3356 C   0  0  0  0  0  0  0  0  0  0  0  0
  154.1652  137.5190  188.2589 C   0  0  0  0  0  0  0  0  0  0  0  0
  155.5009  138.0656  187.9690 C   0  0  0  0  0  0  0  0  0  0  0  0
  156.1156  138.2525  189.2583 N   0  0  0  0  0  0  0  0  0  0  0  0
  155.1959  137.8550  190.2967 C   0  0  0  0  0  0  0  0  0  0  0  0
  155.5394  137.9500  191.4853 O   0  0  0  0  0  0  0  0  0  0  0  0
  153.9980  137.4057  189.6275 C   0  0  0  0  0  0  0  0  0  0  0  0
  152.8137  136.9098  190.1548 C   0  0  0  0  0  0  0  0  0  0  0  0
  152.3177  136.6163  191.3943 C   0  0  0  0  0  0  0  0  0  0  0  0
  152.8105  136.7599  192.6495 C   0  0  0  0  0  0  0  0  0  0  0  0
  152.0053  136.3425  193.7249 C   0  0  0  0  0  0  0  0  0  0  0  0
  150.7569  135.8065  193.5001 C   0  0  0  0  0  0  0  0  0  0  0  0
  150.2631  135.6648  192.2102 C   0  0  0  0  0  0  0  0  0  0  0  0
  151.0649  136.0778  191.1801 C   0  0  0  0  0  0  0  0  0  0  0  0
  150.7861  136.0355  189.8822 N   0  0  0  0  0  0  0  0  0  0  0  0
  151.8608  136.5585  189.2346 C   0  0  0  0  0  0  0  0  0  0  0  0
  152.0263  136.6810  187.8441 C   0  0  0  0  0  0  0  0  0  0  0  0
  157.0866  138.6245  189.3602 H   0  0  0  0  0  0  0  0  0  0  0  0
  147.5867  132.3573  189.3265 C   0  0  0  0  0  0  0  0  0  0  0  0
  148.1859  132.8221  188.1175 N   0  0  0  0  0  0  0  0  0  0  0  0
  149.1915  132.4812  188.0427 H   0  0  0  0  0  0  0  0  0  0  0  0
  148.4703  134.4794  185.7471 O   0  0  0  0  0  0  0  0  0  0  0  0
  149.0483  133.6745  184.8172 C   0  0  0  0  0  0  0  0  0  0  0  0
 33 34  1  0  0  0
 34  1  1  0  0  0
  1  2  1  0  0  0
  2  3  1  0  0  0
  3  4  1  0  0  0
  4  5  1  0  0  0
  5  6  1  0  0  0
  5  7  1  0  0  0
  7 36  1  0  0  0
 36 37  1  0  0  0
  5  8  1  0  0  0
  8  9  1  0  0  0
  9 10  2  0  0  0
 10 11  1  0  0  0
 11 12  2  0  0  0
 12 13  1  0  0  0
 13 14  2  0  0  0
 14 15  1  0  0  0
 15 16  2  0  0  0
 16 17  1  0  0  0
 17 18  1  0  0  0
 18 19  1  0  0  0
 19 20  2  0  0  0
 19 21  1  0  0  0
 21 22  2  0  0  0
 22 23  1  0  0  0
 23 24  2  0  0  0
 24 25  1  0  0  0
 25 26  2  0  0  0
 26 27  1  0  0  0
 27 28  2  0  0  0
 28 29  1  0  0  0
 29 30  1  0  0  0
 30 31  2  0  0  0
  7  1  1  0  0  0
 31  8  1  0  0  0
 29  3  1  0  0  0
 14  9  1  0  0  0
 31 15  1  0  0  0
 21 16  1  0  0  0
 30 22  1  0  0  0
 28 23  1  0  0  0
 34 35  1  0  0  0
 18 32  1  0  0  0
M  END
> <minimizedAffinity>
-6.76804

> <CNNscore>
0.3598614633

> <CNNaffinity>
5.4663696289

> <CNN_VS>
1.9671357870

> <CNNaffinity_variance>
0.3634103835

$$$$
[H]c1c([H])c([H])c2c(c1[H])c1c3c(c4c5c([H])c([H])c([H])c([H])c5n5c4c1n2[C@]1([H])O[C@]5(C([H])([H])[H])[C@]([H])(OC([H])([H])[H])[C@@]([H])(N([H])C([H])([H])[H])C1([H])[H])C([H])([H])N([H])C3=O


 37 44  0  0  0  0  0  0  0  0999 V2000
  151.3215  137.2040  185.8914 C   0  0  0  0  0  0  0  0  0  0  0  0
  152.2652  137.7915  186.9916 C   0  0  0  0  0  0  0  0  0  0  0  0
  153.3468  136.9516  186.8934 C   0  0  0  0  0  0  0  0  0  0  0  0
  153.7870  137.1289  185.5851 O   0  0  0  0  0  0  0  0  0  0  0  0
  153.2990  135.9993  184.8553 C   0  0  0  0  0  0  0  0  0  0  0  0
  153.4827  136.5031  183.4027 C   0  0  0  0  0  0  0  0  0  0  0  0
  151.9077  135.9133  185.2520 C   0  0  0  0  0  0  0  0  0  0  0  0
  154.2739  134.9663  185.1369 N   0  0  0  0  0  0  0  0  0  0  0  0
  154.6059  133.9468  184.3050 C   0  0  0  0  0  0  0  0  0  0  0  0
  154.0816  133.5235  183.1174 C   0  0  0  0  0  0  0  0  0  0  0  0
  154.6147  132.4231  182.4586 C   0  0  0  0  0  0  0  0  0  0  0  0
  155.6992  131.7113  182.9811 C   0  0  0  0  0  0  0  0  0  0  0  0
  156.2351  132.1306  184.1806 C   0  0  0  0  0  0  0  0  0  0  0  0
  155.6800  133.2265  184.8055 C   0  0  0  0  0  0  0  0  0  0  0  0
  156.0254  133.8014  185.9744 C   0  0  0  0  0  0  0  0  0  0  0  0
  157.0160  133.6109  186.9499 C   0  0  0  0  0  0  0  0  0  0  0  0
  158.0587  132.5721  186.9761 C   0  0  0  0  0  0  0  0  0  0  0  0
  158.7971  132.8150  188.1889 N   0  0  0  0  0  0  0  0  0  0  0  0
  158.2460  133.9606  188.8715 C   0  0  0  0  0  0  0  0  0  0  0  0
  158.7538  134.3373  189.9392 O   0  0  0  0  0  0  0  0  0  0  0  0
  157.1409  134.4210  188.0643 C   0  0  0  0  0  0  0  0  0  0  0  0
  156.2664  135.4793  188.2686 C   0  0  0  0  0  0  0  0  0  0  0  0
  156.0517  136.4263  189.2307 C   0  0  0  0  0  0  0  0  0  0  0  0
  156.6872  136.7344  190.3884 C   0  0  0  0  0  0  0  0  0  0  0  0
  156.1825  137.8023  191.1526 C   0  0  0  0  0  0  0  0  0  0  0  0
  155.0774  138.5070  190.7299 C   0  0  0  0  0  0  0  0  0  0  0  0
  154.4354  138.1820  189.5425 C   0  0  0  0  0  0  0  0  0  0  0  0
  154.9447  137.1391  188.8163 C   0  0  0  0  0  0  0  0  0  0  0  0
  154.4887  136.6707  187.6600 N   0  0  0  0  0  0  0  0  0  0  0  0
  155.3071  135.6452  187.3041 C   0  0  0  0  0  0  0  0  0  0  0  0
  155.1843  134.8279  186.1670 C   0  0  0  0  0  0  0  0  0  0  0  0
  159.6025  132.2149  188.4767 H   0  0  0  0  0  0  0  0  0  0  0  0
  148.9763  137.5704  186.2364 C   0  0  0  0  0  0  0  0  0  0  0  0
  150.1223  136.8029  186.6029 N   0  0  0  0  0  0  0  0  0  0  0  0
  150.3069  136.8811  187.6482 H   0  0  0  0  0  0  0  0  0  0  0  0
  151.1432  135.8637  184.0490 O   0  0  0  0  0  0  0  0  0  0  0  0
  150.5395  134.6649  183.8365 C   0  0  0  0  0  0  0  0  0  0  0  0
 33 34  1  0  0  0
 34  1  1  0  0  0
  1  2  1  0  0  0
  2  3  1  0  0  0
  3  4  1  0  0  0
  4  5  1  0  0  0
  5  6  1  0  0  0
  5  7  1  0  0  0
  7 36  1  0  0  0
 36 37  1  0  0  0
  5  8  1  0  0  0
  8  9  1  0  0  0
  9 10  2  0  0  0
 10 11  1  0  0  0
 11 12  2  0  0  0
 12 13  1  0  0  0
 13 14  2  0  0  0
 14 15  1  0  0  0
 15 16  2  0  0  0
 16 17  1  0  0  0
 17 18  1  0  0  0
 18 19  1  0  0  0
 19 20  2  0  0  0
 19 21  1  0  0  0
 21 22  2  0  0  0
 22 23  1  0  0  0
 23 24  2  0  0  0
 24 25  1  0  0  0
 25 26  2  0  0  0
 26 27  1  0  0  0
 27 28  2  0  0  0
 28 29  1  0  0  0
 29 30  1  0  0  0
 30 31  2  0  0  0
  7  1  1  0  0  0
 31  8  1  0  0  0
 29  3  1  0  0  0
 14  9  1  0  0  0
 31 15  1  0  0  0
 21 16  1  0  0  0
 30 22  1  0  0  0
 28 23  1  0  0  0
 34 35  1  0  0  0
 18 32  1  0  0  0
M  END
> <minimizedAffinity>
-6.70441

> <CNNscore>
0.3564025760

> <CNNaffinity>
5.4327888489

> <CNN_VS>
1.9362599850

> <CNNaffinity_variance>
0.3507146239

$$$$
[H]c1c([H])c([H])c2c(c1[H])c1c3c(c4c5c([H])c([H])c([H])c([H])c5n5c4c1n2[C@]1([H])O[C@]5(C([H])([H])[H])[C@]([H])(OC([H])([H])[H])[C@@]([H])(N([H])C([H])([H])[H])C1([H])[H])C([H])([H])N([H])C3=O


 37 44  0  0  0  0  0  0  0  0999 V2000
  157.4334  134.5867  188.4289 C   0  0  0  0  0  0  0  0  0  0  0  0
  156.8280  134.5475  186.9874 C   0  0  0  0  0  0  0  0  0  0  0  0
  155.5177  134.8722  187.2381 C   0  0  0  0  0  0  0  0  0  0  0  0
  155.5932  136.1387  187.8101 O   0  0  0  0  0  0  0  0  0  0  0  0
  155.4369  135.9384  189.2180 C   0  0  0  0  0  0  0  0  0  0  0  0
  155.9396  137.3017  189.7529 C   0  0  0  0  0  0  0  0  0  0  0  0
  156.3455  134.8472  189.5092 C   0  0  0  0  0  0  0  0  0  0  0  0
  154.0021  135.8491  189.3910 N   0  0  0  0  0  0  0  0  0  0  0  0
  153.3166  136.2202  190.5019 C   0  0  0  0  0  0  0  0  0  0  0  0
  153.7256  136.6215  191.7413 C   0  0  0  0  0  0  0  0  0  0  0  0
  152.7989  136.9446  192.7240 C   0  0  0  0  0  0  0  0  0  0  0  0
  151.4228  136.8719  192.4853 C   0  0  0  0  0  0  0  0  0  0  0  0
  150.9998  136.4669  191.2368 C   0  0  0  0  0  0  0  0  0  0  0  0
  151.9482  136.1544  190.2868 C   0  0  0  0  0  0  0  0  0  0  0  0
  151.7717  135.7301  189.0199 C   0  0  0  0  0  0  0  0  0  0  0  0
  150.6824  135.4894  188.1686 C   0  0  0  0  0  0  0  0  0  0  0  0
  149.2512  135.6209  188.4869 C   0  0  0  0  0  0  0  0  0  0  0  0
  148.5640  135.2457  187.2778 N   0  0  0  0  0  0  0  0  0  0  0  0
  149.5266  134.9138  186.2554 C   0  0  0  0  0  0  0  0  0  0  0  0
  149.1290  134.5716  185.1308 O   0  0  0  0  0  0  0  0  0  0  0  0
  150.8293  135.0793  186.8557 C   0  0  0  0  0  0  0  0  0  0  0  0
  152.0925  134.8810  186.3157 C   0  0  0  0  0  0  0  0  0  0  0  0
  152.6150  134.4501  185.1283 C   0  0  0  0  0  0  0  0  0  0  0  0
  152.0582  134.0851  183.9469 C   0  0  0  0  0  0  0  0  0  0  0  0
  152.9194  133.6876  182.9079 C   0  0  0  0  0  0  0  0  0  0  0  0
  154.2838  133.6734  183.0941 C   0  0  0  0  0  0  0  0  0  0  0  0
  154.8420  134.0497  184.3083 C   0  0  0  0  0  0  0  0  0  0  0  0
  153.9839  134.4323  185.3043 C   0  0  0  0  0  0  0  0  0  0  0  0
  154.3065  134.8299  186.5298 N   0  0  0  0  0  0  0  0  0  0  0  0
  153.1406  135.1209  187.1655 C   0  0  0  0  0  0  0  0  0  0  0  0
  152.9929  135.5457  188.4973 C   0  0  0  0  0  0  0  0  0  0  0  0
  147.5212  135.2354  187.2138 H   0  0  0  0  0  0  0  0  0  0  0  0
  159.3437  133.1374  188.4870 C   0  0  0  0  0  0  0  0  0  0  0  0
  157.9314  133.2440  188.6618 N   0  0  0  0  0  0  0  0  0  0  0  0
  157.4216  132.5759  188.0085 H   0  0  0  0  0  0  0  0  0  0  0  0
  157.1687  135.2799  190.5905 O   0  0  0  0  0  0  0  0  0  0  0  0
  157.1676  134.4290  191.6500 C   0  0  0  0  0  0  0  0  0  0  0  0
 33 34  1  0  0  0
 34  1  1  0  0  0
  1  2  1  0  0  0
  2  3  1  0  0  0
  3  4  1  0  0  0
  4  5  1  0  0  0
  5  6  1  0  0  0
  5  7  1  0  0  0
  7 36  1  0  0  0
 36 37  1  0  0  0
  5  8  1  0  0  0
  8  9  1  0  0  0
  9 10  2  0  0  0
 10 11  1  0  0  0
 11 12  2  0  0  0
 12 13  1  0  0  0
 13 14  2  0  0  0
 14 15  1  0  0  0
 15 16  2  0  0  0
 16 17  1  0  0  0
 17 18  1  0  0  0
 18 19  1  0  0  0
 19 20  2  0  0  0
 19 21  1  0  0  0
 21 22  2  0  0  0
 22 23  1  0  0  0
 23 24  2  0  0  0
 24 25  1  0  0  0
 25 26  2  0  0  0
 26 27  1  0  0  0
 27 28  2  0  0  0
 28 29  1  0  0  0
 29 30  1  0  0  0
 30 31  2  0  0  0
  7  1  1  0  0  0
 31  8  1  0  0  0
 29  3  1  0  0  0
 14  9  1  0  0  0
 31 15  1  0  0  0
 21 16  1  0  0  0
 30 22  1  0  0  0
 28 23  1  0  0  0
 34 35  1  0  0  0
 18 32  1  0  0  0
M  END
> <minimizedAffinity>
-5.63976

> <CNNscore>
0.3548015058

> <CNNaffinity>
5.6931867599

> <CNN_VS>
2.0199513435

> <CNNaffinity_variance>
0.1447004229

$$$$
[H]c1c([H])c([H])c2c(c1[H])c1c3c(c4c5c([H])c([H])c([H])c([H])c5n5c4c1n2[C@]1([H])O[C@]5(C([H])([H])[H])[C@]([H])(OC([H])([H])[H])[C@@]([H])(N([H])C([H])([H])[H])C1([H])[H])C([H])([H])N([H])C3=O


 37 44  0  0  0  0  0  0  0  0999 V2000
  156.3905  136.6107  189.9947 C   0  0  0  0  0  0  0  0  0  0  0  0
  156.2299  137.4683  188.6967 C   0  0  0  0  0  0  0  0  0  0  0  0
  154.8945  137.2986  188.4268 C   0  0  0  0  0  0  0  0  0  0  0  0
  154.2602  137.8130  189.5537 O   0  0  0  0  0  0  0  0  0  0  0  0
  153.8775  136.6777  190.3356 C   0  0  0  0  0  0  0  0  0  0  0  0
  153.5779  137.3598  191.6930 C   0  0  0  0  0  0  0  0  0  0  0  0
  155.0770  135.8646  190.3642 C   0  0  0  0  0  0  0  0  0  0  0  0
  152.6370  136.2475  189.7250 N   0  0  0  0  0  0  0  0  0  0  0  0
  151.6145  135.6281  190.3673 C   0  0  0  0  0  0  0  0  0  0  0  0
  151.4930  135.1310  191.6333 C   0  0  0  0  0  0  0  0  0  0  0  0
  150.3142  134.5239  192.0468 C   0  0  0  0  0  0  0  0  0  0  0  0
  149.2156  134.3985  191.1907 C   0  0  0  0  0  0  0  0  0  0  0  0
  149.3289  134.8967  189.9098 C   0  0  0  0  0  0  0  0  0  0  0  0
  150.5138  135.4926  189.5348 C   0  0  0  0  0  0  0  0  0  0  0  0
  150.8529  136.0325  188.3475 C   0  0  0  0  0  0  0  0  0  0  0  0
  150.2230  136.2588  187.1142 C   0  0  0  0  0  0  0  0  0  0  0  0
  148.8528  135.8853  186.7269 C   0  0  0  0  0  0  0  0  0  0  0  0
  148.7153  136.3320  185.3642 N   0  0  0  0  0  0  0  0  0  0  0  0
  149.9385  136.9663  184.9357 C   0  0  0  0  0  0  0  0  0  0  0  0
  150.0162  137.4282  183.7866 O   0  0  0  0  0  0  0  0  0  0  0  0
  150.8461  136.8963  186.0564 C   0  0  0  0  0  0  0  0  0  0  0  0
  152.1540  137.3456  186.1751 C   0  0  0  0  0  0  0  0  0  0  0  0
  153.0805  137.9474  185.3700 C   0  0  0  0  0  0  0  0  0  0  0  0
  153.0445  138.4046  184.0939 C   0  0  0  0  0  0  0  0  0  0  0  0
  154.2132  138.9865  183.5696 C   0  0  0  0  0  0  0  0  0  0  0  0
  155.3529  139.0847  184.3362 C   0  0  0  0  0  0  0  0  0  0  0  0
  155.3773  138.6130  185.6419 C   0  0  0  0  0  0  0  0  0  0  0  0
  154.2282  138.0508  186.1298 C   0  0  0  0  0  0  0  0  0  0  0  0
  154.0369  137.5456  187.3432 N   0  0  0  0  0  0  0  0  0  0  0  0
  152.7490  137.1128  187.3875 C   0  0  0  0  0  0  0  0  0  0  0  0
  152.1142  136.4726  188.4659 C   0  0  0  0  0  0  0  0  0  0  0  0
  147.8349  136.1882  184.8204 H   0  0  0  0  0  0  0  0  0  0  0  0
  156.8300  134.5886  188.7817 C   0  0  0  0  0  0  0  0  0  0  0  0
  157.3612  135.5889  189.6500 N   0  0  0  0  0  0  0  0  0  0  0  0
  157.7242  135.1500  190.5492 H   0  0  0  0  0  0  0  0  0  0  0  0
  155.3369  135.5698  191.7352 O   0  0  0  0  0  0  0  0  0  0  0  0
  156.4780  136.1370  192.2074 C   0  0  0  0  0  0  0  0  0  0  0  0
 33 34  1  0  0  0
 34  1  1  0  0  0
  1  2  1  0  0  0
  2  3  1  0  0  0
  3  4  1  0  0  0
  4  5  1  0  0  0
  5  6  1  0  0  0
  5  7  1  0  0  0
  7 36  1  0  0  0
 36 37  1  0  0  0
  5  8  1  0  0  0
  8  9  1  0  0  0
  9 10  2  0  0  0
 10 11  1  0  0  0
 11 12  2  0  0  0
 12 13  1  0  0  0
 13 14  2  0  0  0
 14 15  1  0  0  0
 15 16  2  0  0  0
 16 17  1  0  0  0
 17 18  1  0  0  0
 18 19  1  0  0  0
 19 20  2  0  0  0
 19 21  1  0  0  0
 21 22  2  0  0  0
 22 23  1  0  0  0
 23 24  2  0  0  0
 24 25  1  0  0  0
 25 26  2  0  0  0
 26 27  1  0  0  0
 27 28  2  0  0  0
 28 29  1  0  0  0
 29 30  1  0  0  0
 30 31  2  0  0  0
  7  1  1  0  0  0
 31  8  1  0  0  0
 29  3  1  0  0  0
 14  9  1  0  0  0
 31 15  1  0  0  0
 21 16  1  0  0  0
 30 22  1  0  0  0
 28 23  1  0  0  0
 34 35  1  0  0  0
 18 32  1  0  0  0
M  END
> <minimizedAffinity>
-7.26384

> <CNNscore>
0.3411999345

> <CNNaffinity>
5.6708898544

> <CNN_VS>
1.9349071980

> <CNNaffinity_variance>
0.3619394898

$$$$
[H]c1c([H])c([H])c2c(c1[H])c1c3c(c4c5c([H])c([H])c([H])c([H])c5n5c4c1n2[C@]1([H])O[C@]5(C([H])([H])[H])[C@]([H])(OC([H])([H])[H])[C@@]([H])(N([H])C([H])([H])[H])C1([H])[H])C([H])([H])N([H])C3=O


 37 44  0  0  0  0  0  0  0  0999 V2000
  153.8780  133.8026  188.9969 C   0  0  0  0  0  0  0  0  0  0  0  0
  152.3675  134.1748  189.1585 C   0  0  0  0  0  0  0  0  0  0  0  0
  152.0238  134.4691  187.8623 C   0  0  0  0  0  0  0  0  0  0  0  0
  152.2671  133.2825  187.1769 O   0  0  0  0  0  0  0  0  0  0  0  0
  153.5175  133.4703  186.5079 C   0  0  0  0  0  0  0  0  0  0  0  0
  153.8652  132.0054  186.1463 C   0  0  0  0  0  0  0  0  0  0  0  0
  154.3764  134.0169  187.5395 C   0  0  0  0  0  0  0  0  0  0  0  0
  153.1547  134.1929  185.3066 N   0  0  0  0  0  0  0  0  0  0  0  0
  153.8058  134.1249  184.1179 C   0  0  0  0  0  0  0  0  0  0  0  0
  154.9761  133.5282  183.7453 C   0  0  0  0  0  0  0  0  0  0  0  0
  155.4329  133.6180  182.4368 C   0  0  0  0  0  0  0  0  0  0  0  0
  154.7191  134.3171  181.4582 C   0  0  0  0  0  0  0  0  0  0  0  0
  153.5364  134.9238  181.8249 C   0  0  0  0  0  0  0  0  0  0  0  0
  153.1144  134.8134  183.1324 C   0  0  0  0  0  0  0  0  0  0  0  0
  152.0123  135.3264  183.7140 C   0  0  0  0  0  0  0  0  0  0  0  0
  150.8966  136.0717  183.3029 C   0  0  0  0  0  0  0  0  0  0  0  0
  150.6135  136.5898  181.9545 C   0  0  0  0  0  0  0  0  0  0  0  0
  149.3596  137.2880  182.0786 N   0  0  0  0  0  0  0  0  0  0  0  0
  148.8828  137.1915  183.4371 C   0  0  0  0  0  0  0  0  0  0  0  0
  147.8058  137.7255  183.7451 O   0  0  0  0  0  0  0  0  0  0  0  0
  149.8713  136.4274  184.1607 C   0  0  0  0  0  0  0  0  0  0  0  0
  149.9084  136.0546  185.4972 C   0  0  0  0  0  0  0  0  0  0  0  0
  149.1414  136.2529  186.6112 C   0  0  0  0  0  0  0  0  0  0  0  0
  147.9592  136.8819  186.8247 C   0  0  0  0  0  0  0  0  0  0  0  0
  147.4447  136.8905  188.1340 C   0  0  0  0  0  0  0  0  0  0  0  0
  148.1274  136.2764  189.1602 C   0  0  0  0  0  0  0  0  0  0  0  0
  149.3371  135.6353  188.9291 C   0  0  0  0  0  0  0  0  0  0  0  0
  149.8176  135.6404  187.6470 C   0  0  0  0  0  0  0  0  0  0  0  0
  150.9439  135.0868  187.2121 N   0  0  0  0  0  0  0  0  0  0  0  0
  151.0074  135.3288  185.8759 C   0  0  0  0  0  0  0  0  0  0  0  0
  152.0458  134.9595  185.0034 C   0  0  0  0  0  0  0  0  0  0  0  0
  148.9130  137.7729  181.2680 H   0  0  0  0  0  0  0  0  0  0  0  0
  155.0354  134.2087  191.0581 C   0  0  0  0  0  0  0  0  0  0  0  0
  154.5896  134.7620  189.8205 N   0  0  0  0  0  0  0  0  0  0  0  0
  153.9539  135.5985  189.9914 H   0  0  0  0  0  0  0  0  0  0  0  0
  155.5532  133.2114  187.5592 O   0  0  0  0  0  0  0  0  0  0  0  0
  156.6705  133.8695  187.1527 C   0  0  0  0  0  0  0  0  0  0  0  0
 33 34  1  0  0  0
 34  1  1  0  0  0
  1  2  1  0  0  0
  2  3  1  0  0  0
  3  4  1  0  0  0
  4  5  1  0  0  0
  5  6  1  0  0  0
  5  7  1  0  0  0
  7 36  1  0  0  0
 36 37  1  0  0  0
  5  8  1  0  0  0
  8  9  1  0  0  0
  9 10  2  0  0  0
 10 11  1  0  0  0
 11 12  2  0  0  0
 12 13  1  0  0  0
 13 14  2  0  0  0
 14 15  1  0  0  0
 15 16  2  0  0  0
 16 17  1  0  0  0
 17 18  1  0  0  0
 18 19  1  0  0  0
 19 20  2  0  0  0
 19 21  1  0  0  0
 21 22  2  0  0  0
 22 23  1  0  0  0
 23 24  2  0  0  0
 24 25  1  0  0  0
 25 26  2  0  0  0
 26 27  1  0  0  0
 27 28  2  0  0  0
 28 29  1  0  0  0
 29 30  1  0  0  0
 30 31  2  0  0  0
  7  1  1  0  0  0
 31  8  1  0  0  0
 29  3  1  0  0  0
 14  9  1  0  0  0
 31 15  1  0  0  0
 21 16  1  0  0  0
 30 22  1  0  0  0
 28 23  1  0  0  0
 34 35  1  0  0  0
 18 32  1  0  0  0
M  END
> <minimizedAffinity>
-4.13127

> <CNNscore>
0.3389994800

> <CNNaffinity>
5.6890792847

> <CNN_VS>
1.9285949469

> <CNNaffinity_variance>
0.2435445338

$$$$
[H]c1c([H])c([H])c2c(c1[H])c1c3c(c4c5c([H])c([H])c([H])c([H])c5n5c4c1n2[C@]1([H])O[C@]5(C([H])([H])[H])[C@]([H])(OC([H])([H])[H])[C@@]([H])(N([H])C([H])([H])[H])C1([H])[H])C([H])([H])N([H])C3=O


 37 44  0  0  0  0  0  0  0  0999 V2000
  154.8515  136.0558  191.4457 C   0  0  0  0  0  0  0  0  0  0  0  0
  156.2165  135.4322  191.0052 C   0  0  0  0  0  0  0  0  0  0  0  0
  155.9904  135.2088  189.6695 C   0  0  0  0  0  0  0  0  0  0  0  0
  155.7319  136.4779  189.1600 O   0  0  0  0  0  0  0  0  0  0  0  0
  154.3105  136.5569  189.0184 C   0  0  0  0  0  0  0  0  0  0  0  0
  154.1293  138.0859  188.8548 C   0  0  0  0  0  0  0  0  0  0  0  0
  153.8144  136.0615  190.2870 C   0  0  0  0  0  0  0  0  0  0  0  0
  154.0583  135.9007  187.7525 N   0  0  0  0  0  0  0  0  0  0  0  0
  153.0348  136.1832  186.9073 C   0  0  0  0  0  0  0  0  0  0  0  0
  151.9417  136.9924  187.0281 C   0  0  0  0  0  0  0  0  0  0  0  0
  151.0209  137.0999  185.9939 C   0  0  0  0  0  0  0  0  0  0  0  0
  151.1753  136.3896  184.7991 C   0  0  0  0  0  0  0  0  0  0  0  0
  152.2758  135.5690  184.6679 C   0  0  0  0  0  0  0  0  0  0  0  0
  153.1682  135.4876  185.7151 C   0  0  0  0  0  0  0  0  0  0  0  0
  154.2929  134.7520  185.8155 C   0  0  0  0  0  0  0  0  0  0  0  0
  155.0163  133.8788  184.9888 C   0  0  0  0  0  0  0  0  0  0  0  0
  154.6743  133.4501  183.6227 C   0  0  0  0  0  0  0  0  0  0  0  0
  155.7319  132.5508  183.2380 N   0  0  0  0  0  0  0  0  0  0  0  0
  156.6908  132.4421  184.3108 C   0  0  0  0  0  0  0  0  0  0  0  0
  157.6865  131.7155  184.1680 O   0  0  0  0  0  0  0  0  0  0  0  0
  156.2033  133.2843  185.3775 C   0  0  0  0  0  0  0  0  0  0  0  0
  156.7377  133.5317  186.6344 C   0  0  0  0  0  0  0  0  0  0  0  0
  157.8146  133.1095  187.3629 C   0  0  0  0  0  0  0  0  0  0  0  0
  158.8532  132.2814  187.0898 C   0  0  0  0  0  0  0  0  0  0  0  0
  159.8085  132.0680  188.1003 C   0  0  0  0  0  0  0  0  0  0  0  0
  159.6845  132.6853  189.3250 C   0  0  0  0  0  0  0  0  0  0  0  0
  158.6166  133.5313  189.5925 C   0  0  0  0  0  0  0  0  0  0  0  0
  157.6998  133.7233  188.5938 C   0  0  0  0  0  0  0  0  0  0  0  0
  156.6154  134.4890  188.6391 N   0  0  0  0  0  0  0  0  0  0  0  0
  156.0139  134.3862  187.4243 C   0  0  0  0  0  0  0  0  0  0  0  0
  154.8119  134.9975  187.0274 C   0  0  0  0  0  0  0  0  0  0  0  0
  155.7457  132.0783  182.3063 H   0  0  0  0  0  0  0  0  0  0  0  0
  153.9189  133.8967  191.9165 C   0  0  0  0  0  0  0  0  0  0  0  0
  154.3355  135.1507  192.4555 N   0  0  0  0  0  0  0  0  0  0  0  0
  153.5283  135.6291  192.9581 H   0  0  0  0  0  0  0  0  0  0  0  0
  152.9004  137.0404  190.7775 O   0  0  0  0  0  0  0  0  0  0  0  0
  151.6391  136.5670  190.9554 C   0  0  0  0  0  0  0  0  0  0  0  0
 33 34  1  0  0  0
 34  1  1  0  0  0
  1  2  1  0  0  0
  2  3  1  0  0  0
  3  4  1  0  0  0
  4  5  1  0  0  0
  5  6  1  0  0  0
  5  7  1  0  0  0
  7 36  1  0  0  0
 36 37  1  0  0  0
  5  8  1  0  0  0
  8  9  1  0  0  0
  9 10  2  0  0  0
 10 11  1  0  0  0
 11 12  2  0  0  0
 12 13  1  0  0  0
 13 14  2  0  0  0
 14 15  1  0  0  0
 15 16  2  0  0  0
 16 17  1  0  0  0
 17 18  1  0  0  0
 18 19  1  0  0  0
 19 20  2  0  0  0
 19 21  1  0  0  0
 21 22  2  0  0  0
 22 23  1  0  0  0
 23 24  2  0  0  0
 24 25  1  0  0  0
 25 26  2  0  0  0
 26 27  1  0  0  0
 27 28  2  0  0  0
 28 29  1  0  0  0
 29 30  1  0  0  0
 30 31  2  0  0  0
  7  1  1  0  0  0
 31  8  1  0  0  0
 29  3  1  0  0  0
 14  9  1  0  0  0
 31 15  1  0  0  0
 21 16  1  0  0  0
 30 22  1  0  0  0
 28 23  1  0  0  0
 34 35  1  0  0  0
 18 32  1  0  0  0
M  END
> <minimizedAffinity>
-6.44327

> <CNNscore>
0.3152838945

> <CNNaffinity>
5.5001296997

> <CNN_VS>
1.7341023684

> <CNNaffinity_variance>
0.2066027373

$$$$
[H]c1c([H])c([H])c2c(c1[H])c1c3c(c4c5c([H])c([H])c([H])c([H])c5n5c4c1n2[C@]1([H])O[C@]5(C([H])([H])[H])[C@]([H])(OC([H])([H])[H])[C@@]([H])(N([H])C([H])([H])[H])C1([H])[H])C([H])([H])N([H])C3=O


 37 44  0  0  0  0  0  0  0  0999 V2000
  154.1624  136.1774  192.1909 C   0  0  0  0  0  0  0  0  0  0  0  0
  154.2517  136.9913  190.8584 C   0  0  0  0  0  0  0  0  0  0  0  0
  153.0590  136.6624  190.2630 C   0  0  0  0  0  0  0  0  0  0  0  0
  152.1015  137.1152  191.1657 O   0  0  0  0  0  0  0  0  0  0  0  0
  151.6555  135.9544  191.8730 C   0  0  0  0  0  0  0  0  0  0  0  0
  150.9408  136.6164  193.0765 C   0  0  0  0  0  0  0  0  0  0  0  0
  152.8879  135.2880  192.2442 C   0  0  0  0  0  0  0  0  0  0  0  0
  150.6709  135.3730  190.9845 N   0  0  0  0  0  0  0  0  0  0  0  0
  149.5909  134.6474  191.3702 C   0  0  0  0  0  0  0  0  0  0  0  0
  149.1998  134.1579  192.5835 C   0  0  0  0  0  0  0  0  0  0  0  0
  148.0278  133.4230  192.7076 C   0  0  0  0  0  0  0  0  0  0  0  0
  147.2098  133.1572  191.6049 C   0  0  0  0  0  0  0  0  0  0  0  0
  147.5967  133.6466  190.3751 C   0  0  0  0  0  0  0  0  0  0  0  0
  148.7658  134.3717  190.2902 C   0  0  0  0  0  0  0  0  0  0  0  0
  149.3405  134.9303  189.2068 C   0  0  0  0  0  0  0  0  0  0  0  0
  149.0317  135.0632  187.8444 C   0  0  0  0  0  0  0  0  0  0  0  0
  147.8585  134.5262  187.1357 C   0  0  0  0  0  0  0  0  0  0  0  0
  148.0316  134.9337  185.7650 N   0  0  0  0  0  0  0  0  0  0  0  0
  149.2471  135.7007  185.6365 C   0  0  0  0  0  0  0  0  0  0  0  0
  149.5696  136.1518  184.5264 O   0  0  0  0  0  0  0  0  0  0  0  0
  149.8345  135.7539  186.9544 C   0  0  0  0  0  0  0  0  0  0  0  0
  151.0094  136.3551  187.3843 C   0  0  0  0  0  0  0  0  0  0  0  0
  152.0415  137.0495  186.8177 C   0  0  0  0  0  0  0  0  0  0  0  0
  152.2885  137.4807  185.5560 C   0  0  0  0  0  0  0  0  0  0  0  0
  153.4822  138.1878  185.3235 C   0  0  0  0  0  0  0  0  0  0  0  0
  154.3659  138.4301  186.3515 C   0  0  0  0  0  0  0  0  0  0  0  0
  154.1018  137.9836  187.6393 C   0  0  0  0  0  0  0  0  0  0  0  0
  152.9341  137.2977  187.8409 C   0  0  0  0  0  0  0  0  0  0  0  0
  152.4906  136.7914  188.9860 N   0  0  0  0  0  0  0  0  0  0  0  0
  151.2908  136.2112  188.7178 C   0  0  0  0  0  0  0  0  0  0  0  0
  150.4717  135.5168  189.6248 C   0  0  0  0  0  0  0  0  0  0  0  0
  147.3439  134.6799  185.0206 H   0  0  0  0  0  0  0  0  0  0  0  0
  156.4885  135.8945  191.6786 C   0  0  0  0  0  0  0  0  0  0  0  0
  155.2951  135.2715  192.1523 N   0  0  0  0  0  0  0  0  0  0  0  0
  155.0405  134.4372  191.5423 H   0  0  0  0  0  0  0  0  0  0  0  0
  152.8134  135.0457  193.6478 O   0  0  0  0  0  0  0  0  0  0  0  0
  152.6208  133.7385  193.9653 C   0  0  0  0  0  0  0  0  0  0  0  0
 33 34  1  0  0  0
 34  1  1  0  0  0
  1  2  1  0  0  0
  2  3  1  0  0  0
  3  4  1  0  0  0
  4  5  1  0  0  0
  5  6  1  0  0  0
  5  7  1  0  0  0
  7 36  1  0  0  0
 36 37  1  0  0  0
  5  8  1  0  0  0
  8  9  1  0  0  0
  9 10  2  0  0  0
 10 11  1  0  0  0
 11 12  2  0  0  0
 12 13  1  0  0  0
 13 14  2  0  0  0
 14 15  1  0  0  0
 15 16  2  0  0  0
 16 17  1  0  0  0
 17 18  1  0  0  0
 18 19  1  0  0  0
 19 20  2  0  0  0
 19 21  1  0  0  0
 21 22  2  0  0  0
 22 23  1  0  0  0
 23 24  2  0  0  0
 24 25  1  0  0  0
 25 26  2  0  0  0
 26 27  1  0  0  0
 27 28  2  0  0  0
 28 29  1  0  0  0
 29 30  1  0  0  0
 30 31  2  0  0  0
  7  1  1  0  0  0
 31  8  1  0  0  0
 29  3  1  0  0  0
 14  9  1  0  0  0
 31 15  1  0  0  0
 21 16  1  0  0  0
 30 22  1  0  0  0
 28 23  1  0  0  0
 34 35  1  0  0  0
 18 32  1  0  0  0
M  END
> <minimizedAffinity>
-6.65213

> <CNNscore>
0.3115539253

> <CNNaffinity>
5.5375456810

> <CNN_VS>
1.7252440453

> <CNNaffinity_variance>
0.2093853951

$$$$
[H]c1c([H])c([H])c2c(c1[H])c1c3c(c4c5c([H])c([H])c([H])c([H])c5n5c4c1n2[C@]1([H])O[C@]5(C([H])([H])[H])[C@]([H])(OC([H])([H])[H])[C@@]([H])(N([H])C([H])([H])[H])C1([H])[H])C([H])([H])N([H])C3=O


 37 44  0  0  0  0  0  0  0  0999 V2000
  153.0262  136.2961  191.7795 C   0  0  0  0  0  0  0  0  0  0  0  0
  151.7494  135.4426  191.4837 C   0  0  0  0  0  0  0  0  0  0  0  0
  151.5892  135.6579  190.1372 C   0  0  0  0  0  0  0  0  0  0  0  0
  152.7665  135.1675  189.5803 O   0  0  0  0  0  0  0  0  0  0  0  0
  153.5722  136.3165  189.3022 C   0  0  0  0  0  0  0  0  0  0  0  0
  154.9525  135.6472  189.0918 C   0  0  0  0  0  0  0  0  0  0  0  0
  153.4989  137.0877  190.5273 C   0  0  0  0  0  0  0  0  0  0  0  0
  153.0635  136.7884  188.0313 N   0  0  0  0  0  0  0  0  0  0  0  0
  153.7848  137.4438  187.0869 C   0  0  0  0  0  0  0  0  0  0  0  0
  155.0543  137.9467  187.0868 C   0  0  0  0  0  0  0  0  0  0  0  0
  155.5604  138.5948  185.9674 C   0  0  0  0  0  0  0  0  0  0  0  0
  154.7967  138.7568  184.8072 C   0  0  0  0  0  0  0  0  0  0  0  0
  153.5130  138.2530  184.7979 C   0  0  0  0  0  0  0  0  0  0  0  0
  153.0448  137.6160  185.9268 C   0  0  0  0  0  0  0  0  0  0  0  0
  151.8360  137.0629  186.1486 C   0  0  0  0  0  0  0  0  0  0  0  0
  150.6594  136.8567  185.4122 C   0  0  0  0  0  0  0  0  0  0  0  0
  150.3841  137.2767  184.0285 C   0  0  0  0  0  0  0  0  0  0  0  0
  149.0393  136.8331  183.7644 N   0  0  0  0  0  0  0  0  0  0  0  0
  148.5146  136.1562  184.9258 C   0  0  0  0  0  0  0  0  0  0  0  0
  147.3650  135.6902  184.8930 O   0  0  0  0  0  0  0  0  0  0  0  0
  149.5569  136.1965  185.9242 C   0  0  0  0  0  0  0  0  0  0  0  0
  149.5699  135.7023  187.2212 C   0  0  0  0  0  0  0  0  0  0  0  0
  148.6942  135.0678  188.0573 C   0  0  0  0  0  0  0  0  0  0  0  0
  147.4273  134.6102  187.9011 C   0  0  0  0  0  0  0  0  0  0  0  0
  146.8116  133.9875  189.0020 C   0  0  0  0  0  0  0  0  0  0  0  0
  147.4826  133.8510  190.1968 C   0  0  0  0  0  0  0  0  0  0  0  0
  148.7798  134.3235  190.3444 C   0  0  0  0  0  0  0  0  0  0  0  0
  149.3578  134.9259  189.2593 C   0  0  0  0  0  0  0  0  0  0  0  0
  150.5807  135.4391  189.1856 N   0  0  0  0  0  0  0  0  0  0  0  0
  150.7284  135.9163  187.9213 C   0  0  0  0  0  0  0  0  0  0  0  0
  151.8525  136.5797  187.3995 C   0  0  0  0  0  0  0  0  0  0  0  0
  148.5688  137.0064  182.8478 H   0  0  0  0  0  0  0  0  0  0  0  0
  151.7196  136.7450  193.7402 C   0  0  0  0  0  0  0  0  0  0  0  0
  152.5987  137.2832  192.7532 N   0  0  0  0  0  0  0  0  0  0  0  0
  152.1332  138.0889  192.2363 H   0  0  0  0  0  0  0  0  0  0  0  0
  154.8428  137.3753  190.9088 O   0  0  0  0  0  0  0  0  0  0  0  0
  155.1707  138.6894  190.7985 C   0  0  0  0  0  0  0  0  0  0  0  0
 33 34  1  0  0  0
 34  1  1  0  0  0
  1  2  1  0  0  0
  2  3  1  0  0  0
  3  4  1  0  0  0
  4  5  1  0  0  0
  5  6  1  0  0  0
  5  7  1  0  0  0
  7 36  1  0  0  0
 36 37  1  0  0  0
  5  8  1  0  0  0
  8  9  1  0  0  0
  9 10  2  0  0  0
 10 11  1  0  0  0
 11 12  2  0  0  0
 12 13  1  0  0  0
 13 14  2  0  0  0
 14 15  1  0  0  0
 15 16  2  0  0  0
 16 17  1  0  0  0
 17 18  1  0  0  0
 18 19  1  0  0  0
 19 20  2  0  0  0
 19 21  1  0  0  0
 21 22  2  0  0  0
 22 23  1  0  0  0
 23 24  2  0  0  0
 24 25  1  0  0  0
 25 26  2  0  0  0
 26 27  1  0  0  0
 27 28  2  0  0  0
 28 29  1  0  0  0
 29 30  1  0  0  0
 30 31  2  0  0  0
  7  1  1  0  0  0
 31  8  1  0  0  0
 29  3  1  0  0  0
 14  9  1  0  0  0
 31 15  1  0  0  0
 21 16  1  0  0  0
 30 22  1  0  0  0
 28 23  1  0  0  0
 34 35  1  0  0  0
 18 32  1  0  0  0
M  END
> <minimizedAffinity>
-6.59536

> <CNNscore>
0.3046957552

> <CNNaffinity>
5.6380624771

> <CNN_VS>
1.7178937197

> <CNNaffinity_variance>
0.2099213153

$$$$
[H]c1c([H])c([H])c2c(c1[H])c1c3c(c4c5c([H])c([H])c([H])c([H])c5n5c4c1n2[C@@]1(C([H])([H])[H])O[C@]5([H])C([H])([H])[C@@]([H])(N(C([H])([H])[H])C([H])([H])[H])[C@@]1([H])OC([H])([H])[H])C(=O)N([H])C3([H])[H]


 37 44  0  0  0  0  0  0  0  0999 V2000
  152.1494  134.9570  192.4808 C   0  0  0  0  0  0  0  0  0  0  0  0
  150.7921  134.3174  192.8494 C   0  0  0  0  0  0  0  0  0  0  0  0
  150.1667  134.0047  191.4918 C   0  0  0  0  0  0  0  0  0  0  0  0
  149.7688  135.3631  190.9754 C   0  0  0  0  0  0  0  0  0  0  0  0
  150.4196  136.3894  191.6126 O   0  0  0  0  0  0  0  0  0  0  0  0
  151.8058  136.2340  191.8004 C   0  0  0  0  0  0  0  0  0  0  0  0
  152.0689  137.3430  192.8646 C   0  0  0  0  0  0  0  0  0  0  0  0
  152.4851  136.5734  190.5773 N   0  0  0  0  0  0  0  0  0  0  0  0
  153.7411  137.0974  190.4710 C   0  0  0  0  0  0  0  0  0  0  0  0
  154.7352  137.3338  191.3770 C   0  0  0  0  0  0  0  0  0  0  0  0
  155.9489  137.8660  191.0044 C   0  0  0  0  0  0  0  0  0  0  0  0
  156.1969  138.1779  189.6941 C   0  0  0  0  0  0  0  0  0  0  0  0
  155.2095  137.9508  188.7429 C   0  0  0  0  0  0  0  0  0  0  0  0
  154.0226  137.4217  189.1538 C   0  0  0  0  0  0  0  0  0  0  0  0
  152.9017  137.0806  188.4165 C   0  0  0  0  0  0  0  0  0  0  0  0
  152.5933  137.1452  187.0708 C   0  0  0  0  0  0  0  0  0  0  0  0
  153.4322  137.6841  185.9681 C   0  0  0  0  0  0  0  0  0  0  0  0
  152.5958  137.5682  184.8105 N   0  0  0  0  0  0  0  0  0  0  0  0
  151.3394  136.9387  185.1546 C   0  0  0  0  0  0  0  0  0  0  0  0
  150.4328  136.6859  184.3351 O   0  0  0  0  0  0  0  0  0  0  0  0
  151.3726  136.6902  186.5698 C   0  0  0  0  0  0  0  0  0  0  0  0
  150.4807  136.1645  187.5037 C   0  0  0  0  0  0  0  0  0  0  0  0
  149.2360  135.5983  187.3694 C   0  0  0  0  0  0  0  0  0  0  0  0
  148.4072  135.3510  186.3145 C   0  0  0  0  0  0  0  0  0  0  0  0
  147.1837  134.7216  186.5678 C   0  0  0  0  0  0  0  0  0  0  0  0
  146.8121  134.3582  187.8372 C   0  0  0  0  0  0  0  0  0  0  0  0
  147.6497  134.6095  188.8954 C   0  0  0  0  0  0  0  0  0  0  0  0
  148.8556  135.2265  188.6605 C   0  0  0  0  0  0  0  0  0  0  0  0
  149.7879  135.5353  189.5444 N   0  0  0  0  0  0  0  0  0  0  0  0
  150.7919  136.1062  188.8629 C   0  0  0  0  0  0  0  0  0  0  0  0
  152.0058  136.5742  189.2874 C   0  0  0  0  0  0  0  0  0  0  0  0
  152.7894  137.8712  183.8211 H   0  0  0  0  0  0  0  0  0  0  0  0
  150.7603  133.3661  193.8347 N   0  0  0  0  0  0  0  0  0  0  0  0
  150.4041  132.0694  193.2936 C   0  0  0  0  0  0  0  0  0  0  0  0
  151.7401  133.2427  194.8256 C   0  0  0  0  0  0  0  0  0  0  0  0
  154.0598  133.7423  191.9922 C   0  0  0  0  0  0  0  0  0  0  0  0
  152.7585  134.0216  191.6645 O   0  0  0  0  0  0  0  0  0  0  0  0
 36 37  1  0  0  0
 37  1  1  0  0  0
  1  2  1  0  0  0
  2  3  1  0  0  0
  3  4  1  0  0  0
  4  5  1  0  0  0
  5  6  1  0  0  0
  6  7  1  0  0  0
  6  8  1  0  0  0
  8  9  1  0  0  0
  9 10  2  0  0  0
 10 11  1  0  0  0
 11 12  2  0  0  0
 12 13  1  0  0  0
 13 14  2  0  0  0
 14 15  1  0  0  0
 15 16  2  0  0  0
 16 17  1  0  0  0
 17 18  1  0  0  0
 18 19  1  0  0  0
 19 20  2  0  0  0
 19 21  1  0  0  0
 21 22  2  0  0  0
 22 23  1  0  0  0
 23 24  2  0  0  0
 24 25  1  0  0  0
 25 26  2  0  0  0
 26 27  1  0  0  0
 27 28  2  0  0  0
 28 29  1  0  0  0
 29 30  1  0  0  0
 30 31  2  0  0  0
  2 33  1  0  0  0
 33 34  1  0  0  0
 33 35  1  0  0  0
  6  1  1  0  0  0
 31  8  1  0  0  0
 29  4  1  0  0  0
 14  9  1  0  0  0
 31 15  1  0  0  0
 21 16  1  0  0  0
 30 22  1  0  0  0
 28 23  1  0  0  0
 18 32  1  0  0  0
M  END
> <minimizedAffinity>
-7.25286

> <CNNscore>
0.3753862977

> <CNNaffinity>
5.5405874252

> <CNN_VS>
2.0798606873

> <CNNaffinity_variance>
0.4816492498

$$$$
[H]c1c([H])c([H])c2c(c1[H])c1c3c(c4c5c([H])c([H])c([H])c([H])c5n5c4c1n2[C@@]1(C([H])([H])[H])O[C@]5([H])C([H])([H])[C@@]([H])(N(C([H])([H])[H])C([H])([H])[H])[C@@]1([H])OC([H])([H])[H])C(=O)N([H])C3([H])[H]


 37 44  0  0  0  0  0  0  0  0999 V2000
  152.0019  136.7574  187.3124 C   0  0  0  0  0  0  0  0  0  0  0  0
  151.3637  136.3486  185.9660 C   0  0  0  0  0  0  0  0  0  0  0  0
  152.1308  135.0864  185.5782 C   0  0  0  0  0  0  0  0  0  0  0  0
  153.4787  135.6169  185.1637 C   0  0  0  0  0  0  0  0  0  0  0  0
  153.7228  136.8831  185.6328 O   0  0  0  0  0  0  0  0  0  0  0  0
  153.4045  137.1254  186.9823 C   0  0  0  0  0  0  0  0  0  0  0  0
  153.4281  138.6846  186.9986 C   0  0  0  0  0  0  0  0  0  0  0  0
  154.4679  136.6219  187.8120 N   0  0  0  0  0  0  0  0  0  0  0  0
  154.8452  137.1156  189.0274 C   0  0  0  0  0  0  0  0  0  0  0  0
  154.3214  138.0693  189.8526 C   0  0  0  0  0  0  0  0  0  0  0  0
  154.8942  138.3771  191.0661 C   0  0  0  0  0  0  0  0  0  0  0  0
  156.0229  137.7249  191.4858 C   0  0  0  0  0  0  0  0  0  0  0  0
  156.5848  136.7474  190.6733 C   0  0  0  0  0  0  0  0  0  0  0  0
  155.9858  136.4728  189.4803 C   0  0  0  0  0  0  0  0  0  0  0  0
  156.3238  135.5426  188.5123 C   0  0  0  0  0  0  0  0  0  0  0  0
  157.3326  134.6038  188.4073 C   0  0  0  0  0  0  0  0  0  0  0  0
  158.4440  134.3492  189.3613 C   0  0  0  0  0  0  0  0  0  0  0  0
  159.2215  133.3304  188.7207 N   0  0  0  0  0  0  0  0  0  0  0  0
  158.6022  132.9278  187.4767 C   0  0  0  0  0  0  0  0  0  0  0  0
  159.0488  132.0366  186.7259 O   0  0  0  0  0  0  0  0  0  0  0  0
  157.4292  133.7421  187.3135 C   0  0  0  0  0  0  0  0  0  0  0  0
  156.4487  133.8801  186.3319 C   0  0  0  0  0  0  0  0  0  0  0  0
  156.2100  133.1915  185.1672 C   0  0  0  0  0  0  0  0  0  0  0  0
  156.8217  132.1530  184.5282 C   0  0  0  0  0  0  0  0  0  0  0  0
  156.2644  131.6926  183.3304 C   0  0  0  0  0  0  0  0  0  0  0  0
  155.1347  132.2605  182.7987 C   0  0  0  0  0  0  0  0  0  0  0  0
  154.5230  133.3055  183.4455 C   0  0  0  0  0  0  0  0  0  0  0  0
  155.0595  133.7672  184.6242 C   0  0  0  0  0  0  0  0  0  0  0  0
  154.6059  134.7464  185.3865 N   0  0  0  0  0  0  0  0  0  0  0  0
  155.4347  134.8333  186.4371 C   0  0  0  0  0  0  0  0  0  0  0  0
  155.4016  135.6499  187.5348 C   0  0  0  0  0  0  0  0  0  0  0  0
  160.1214  132.8863  189.0390 H   0  0  0  0  0  0  0  0  0  0  0  0
  149.9982  136.3609  185.8558 N   0  0  0  0  0  0  0  0  0  0  0  0
  149.4683  135.0125  185.8113 C   0  0  0  0  0  0  0  0  0  0  0  0
  149.1671  137.2006  186.6052 C   0  0  0  0  0  0  0  0  0  0  0  0
  151.2908  135.8547  189.3232 C   0  0  0  0  0  0  0  0  0  0  0  0
  151.8793  135.6312  188.1056 O   0  0  0  0  0  0  0  0  0  0  0  0
 36 37  1  0  0  0
 37  1  1  0  0  0
  1  2  1  0  0  0
  2  3  1  0  0  0
  3  4  1  0  0  0
  4  5  1  0  0  0
  5  6  1  0  0  0
  6  7  1  0  0  0
  6  8  1  0  0  0
  8  9  1  0  0  0
  9 10  2  0  0  0
 10 11  1  0  0  0
 11 12  2  0  0  0
 12 13  1  0  0  0
 13 14  2  0  0  0
 14 15  1  0  0  0
 15 16  2  0  0  0
 16 17  1  0  0  0
 17 18  1  0  0  0
 18 19  1  0  0  0
 19 20  2  0  0  0
 19 21  1  0  0  0
 21 22  2  0  0  0
 22 23  1  0  0  0
 23 24  2  0  0  0
 24 25  1  0  0  0
 25 26  2  0  0  0
 26 27  1  0  0  0
 27 28  2  0  0  0
 28 29  1  0  0  0
 29 30  1  0  0  0
 30 31  2  0  0  0
  2 33  1  0  0  0
 33 34  1  0  0  0
 33 35  1  0  0  0
  6  1  1  0  0  0
 31  8  1  0  0  0
 29  4  1  0  0  0
 14  9  1  0  0  0
 31 15  1  0  0  0
 21 16  1  0  0  0
 30 22  1  0  0  0
 28 23  1  0  0  0
 18 32  1  0  0  0
M  END
> <minimizedAffinity>
-6.87756

> <CNNscore>
0.3367446661

> <CNNaffinity>
5.5169348717

> <CNN_VS>
1.8577983379

> <CNNaffinity_variance>
0.3414646089

$$$$
[H]c1c([H])c([H])c2c(c1[H])c1c3c(c4c5c([H])c([H])c([H])c([H])c5n5c4c1n2[C@@]1(C([H])([H])[H])O[C@]5([H])C([H])([H])[C@@]([H])(N(C([H])([H])[H])C([H])([H])[H])[C@@]1([H])OC([H])([H])[H])C(=O)N([H])C3([H])[H]


 37 44  0  0  0  0  0  0  0  0999 V2000
  149.3205  136.3742  183.6395 C   0  0  0  0  0  0  0  0  0  0  0  0
  149.4771  135.4584  184.8740 C   0  0  0  0  0  0  0  0  0  0  0  0
  150.5576  136.1551  185.6981 C   0  0  0  0  0  0  0  0  0  0  0  0
  151.8160  135.8825  184.9158 C   0  0  0  0  0  0  0  0  0  0  0  0
  151.5696  135.5145  183.6171 O   0  0  0  0  0  0  0  0  0  0  0  0
  150.6171  136.2788  182.9174 C   0  0  0  0  0  0  0  0  0  0  0  0
  150.3378  135.3360  181.7071 C   0  0  0  0  0  0  0  0  0  0  0  0
  151.2407  137.4885  182.4478 N   0  0  0  0  0  0  0  0  0  0  0  0
  150.9044  138.1850  181.3230 C   0  0  0  0  0  0  0  0  0  0  0  0
  149.8868  138.0676  180.4200 C   0  0  0  0  0  0  0  0  0  0  0  0
  149.7550  138.9297  179.3547 C   0  0  0  0  0  0  0  0  0  0  0  0
  150.6549  139.9451  179.1684 C   0  0  0  0  0  0  0  0  0  0  0  0
  151.7039  140.0968  180.0672 C   0  0  0  0  0  0  0  0  0  0  0  0
  151.7974  139.2224  181.1085 C   0  0  0  0  0  0  0  0  0  0  0  0
  152.7170  139.1699  182.1419 C   0  0  0  0  0  0  0  0  0  0  0  0
  153.8131  139.9412  182.4790 C   0  0  0  0  0  0  0  0  0  0  0  0
  154.3732  141.1024  181.7386 C   0  0  0  0  0  0  0  0  0  0  0  0
  155.5355  141.4647  182.4940 N   0  0  0  0  0  0  0  0  0  0  0  0
  155.6593  140.6259  183.6664 C   0  0  0  0  0  0  0  0  0  0  0  0
  156.5636  140.7391  184.5188 O   0  0  0  0  0  0  0  0  0  0  0  0
  154.5704  139.6887  183.6240 C   0  0  0  0  0  0  0  0  0  0  0  0
  154.1582  138.6140  184.4108 C   0  0  0  0  0  0  0  0  0  0  0  0
  154.6268  138.1124  185.6009 C   0  0  0  0  0  0  0  0  0  0  0  0
  155.6490  138.4436  186.4415 C   0  0  0  0  0  0  0  0  0  0  0  0
  155.8154  137.6912  187.6092 C   0  0  0  0  0  0  0  0  0  0  0  0
  154.9828  136.6447  187.9143 C   0  0  0  0  0  0  0  0  0  0  0  0
  153.9559  136.3154  187.0650 C   0  0  0  0  0  0  0  0  0  0  0  0
  153.7802  137.0471  185.9144 C   0  0  0  0  0  0  0  0  0  0  0  0
  152.8479  136.8862  184.9921 N   0  0  0  0  0  0  0  0  0  0  0  0
  153.0548  137.8325  184.0648 C   0  0  0  0  0  0  0  0  0  0  0  0
  152.3588  138.1328  182.9254 C   0  0  0  0  0  0  0  0  0  0  0  0
  156.2465  142.2152  182.2954 H   0  0  0  0  0  0  0  0  0  0  0  0
  148.3476  135.0032  185.5016 N   0  0  0  0  0  0  0  0  0  0  0  0
  148.1861  135.6291  186.7990 C   0  0  0  0  0  0  0  0  0  0  0  0
  147.1125  134.8516  184.8620 C   0  0  0  0  0  0  0  0  0  0  0  0
  147.9367  138.2312  183.6606 C   0  0  0  0  0  0  0  0  0  0  0  0
  149.0540  137.6228  184.1708 O   0  0  0  0  0  0  0  0  0  0  0  0
 36 37  1  0  0  0
 37  1  1  0  0  0
  1  2  1  0  0  0
  2  3  1  0  0  0
  3  4  1  0  0  0
  4  5  1  0  0  0
  5  6  1  0  0  0
  6  7  1  0  0  0
  6  8  1  0  0  0
  8  9  1  0  0  0
  9 10  2  0  0  0
 10 11  1  0  0  0
 11 12  2  0  0  0
 12 13  1  0  0  0
 13 14  2  0  0  0
 14 15  1  0  0  0
 15 16  2  0  0  0
 16 17  1  0  0  0
 17 18  1  0  0  0
 18 19  1  0  0  0
 19 20  2  0  0  0
 19 21  1  0  0  0
 21 22  2  0  0  0
 22 23  1  0  0  0
 23 24  2  0  0  0
 24 25  1  0  0  0
 25 26  2  0  0  0
 26 27  1  0  0  0
 27 28  2  0  0  0
 28 29  1  0  0  0
 29 30  1  0  0  0
 30 31  2  0  0  0
  2 33  1  0  0  0
 33 34  1  0  0  0
 33 35  1  0  0  0
  6  1  1  0  0  0
 31  8  1  0  0  0
 29  4  1  0  0  0
 14  9  1  0  0  0
 31 15  1  0  0  0
 21 16  1  0  0  0
 30 22  1  0  0  0
 28 23  1  0  0  0
 18 32  1  0  0  0
M  END
> <minimizedAffinity>
-8.66576

> <CNNscore>
0.3277919590

> <CNNaffinity>
5.8527507782

> <CNN_VS>
1.9184846878

> <CNNaffinity_variance>
0.3631179631

$$$$
[H]c1c([H])c([H])c2c(c1[H])c1c3c(c4c5c([H])c([H])c([H])c([H])c5n5c4c1n2[C@@]1(C([H])([H])[H])O[C@]5([H])C([H])([H])[C@@]([H])(N(C([H])([H])[H])C([H])([H])[H])[C@@]1([H])OC([H])([H])[H])C(=O)N([H])C3([H])[H]


 37 44  0  0  0  0  0  0  0  0999 V2000
  151.8381  135.9301  185.5856 C   0  0  0  0  0  0  0  0  0  0  0  0
  150.3293  136.0737  185.2860 C   0  0  0  0  0  0  0  0  0  0  0  0
  149.6773  135.9016  186.6561 C   0  0  0  0  0  0  0  0  0  0  0  0
  149.8273  134.4269  186.9256 C   0  0  0  0  0  0  0  0  0  0  0  0
  150.7905  133.8360  186.1471 O   0  0  0  0  0  0  0  0  0  0  0  0
  152.0139  134.5224  186.0321 C   0  0  0  0  0  0  0  0  0  0  0  0
  152.6338  133.7837  184.8066 C   0  0  0  0  0  0  0  0  0  0  0  0
  152.8101  134.2596  187.2024 N   0  0  0  0  0  0  0  0  0  0  0  0
  154.1736  134.2279  187.2597 C   0  0  0  0  0  0  0  0  0  0  0  0
  155.1544  134.5308  186.3591 C   0  0  0  0  0  0  0  0  0  0  0  0
  156.4905  134.4315  186.6761 C   0  0  0  0  0  0  0  0  0  0  0  0
  156.8789  134.0198  187.9232 C   0  0  0  0  0  0  0  0  0  0  0  0
  155.9092  133.7032  188.8670 C   0  0  0  0  0  0  0  0  0  0  0  0
  154.5980  133.8160  188.5125 C   0  0  0  0  0  0  0  0  0  0  0  0
  153.4552  133.5900  189.2604 C   0  0  0  0  0  0  0  0  0  0  0  0
  153.2367  133.1924  190.5659 C   0  0  0  0  0  0  0  0  0  0  0  0
  154.2510  132.8265  191.5893 C   0  0  0  0  0  0  0  0  0  0  0  0
  153.4694  132.4299  192.7228 N   0  0  0  0  0  0  0  0  0  0  0  0
  152.0587  132.5975  192.4487 C   0  0  0  0  0  0  0  0  0  0  0  0
  151.1502  132.3564  193.2697 O   0  0  0  0  0  0  0  0  0  0  0  0
  151.9513  133.0729  191.0967 C   0  0  0  0  0  0  0  0  0  0  0  0
  150.8982  133.3790  190.2357 C   0  0  0  0  0  0  0  0  0  0  0  0
  149.5375  133.4133  190.4229 C   0  0  0  0  0  0  0  0  0  0  0  0
  148.7109  133.1567  191.4774 C   0  0  0  0  0  0  0  0  0  0  0  0
  147.3338  133.3214  191.2938 C   0  0  0  0  0  0  0  0  0  0  0  0
  146.8128  133.7276  190.0917 C   0  0  0  0  0  0  0  0  0  0  0  0
  147.6489  133.9844  189.0336 C   0  0  0  0  0  0  0  0  0  0  0  0
  149.0046  133.8276  189.2005 C   0  0  0  0  0  0  0  0  0  0  0  0
  149.9556  134.0379  188.3076 N   0  0  0  0  0  0  0  0  0  0  0  0
  151.1212  133.7741  188.9159 C   0  0  0  0  0  0  0  0  0  0  0  0
  152.4076  133.8664  188.4581 C   0  0  0  0  0  0  0  0  0  0  0  0
  153.7936  132.0596  193.6534 H   0  0  0  0  0  0  0  0  0  0  0  0
  149.9155  137.0957  184.4728 N   0  0  0  0  0  0  0  0  0  0  0  0
  150.7303  137.1700  183.2763 C   0  0  0  0  0  0  0  0  0  0  0  0
  148.5729  137.3596  184.1811 C   0  0  0  0  0  0  0  0  0  0  0  0
  153.0401  137.7998  186.2363 C   0  0  0  0  0  0  0  0  0  0  0  0
  152.0842  136.8742  186.5656 O   0  0  0  0  0  0  0  0  0  0  0  0
 36 37  1  0  0  0
 37  1  1  0  0  0
  1  2  1  0  0  0
  2  3  1  0  0  0
  3  4  1  0  0  0
  4  5  1  0  0  0
  5  6  1  0  0  0
  6  7  1  0  0  0
  6  8  1  0  0  0
  8  9  1  0  0  0
  9 10  2  0  0  0
 10 11  1  0  0  0
 11 12  2  0  0  0
 12 13  1  0  0  0
 13 14  2  0  0  0
 14 15  1  0  0  0
 15 16  2  0  0  0
 16 17  1  0  0  0
 17 18  1  0  0  0
 18 19  1  0  0  0
 19 20  2  0  0  0
 19 21  1  0  0  0
 21 22  2  0  0  0
 22 23  1  0  0  0
 23 24  2  0  0  0
 24 25  1  0  0  0
 25 26  2  0  0  0
 26 27  1  0  0  0
 27 28  2  0  0  0
 28 29  1  0  0  0
 29 30  1  0  0  0
 30 31  2  0  0  0
  2 33  1  0  0  0
 33 34  1  0  0  0
 33 35  1  0  0  0
  6  1  1  0  0  0
 31  8  1  0  0  0
 29  4  1  0  0  0
 14  9  1  0  0  0
 31 15  1  0  0  0
 21 16  1  0  0  0
 30 22  1  0  0  0
 28 23  1  0  0  0
 18 32  1  0  0  0
M  END
> <minimizedAffinity>
-3.14216

> <CNNscore>
0.3246009648

> <CNNaffinity>
5.8222398758

> <CNN_VS>
1.8899047375

> <CNNaffinity_variance>
0.5967768431

$$$$
[H]c1c([H])c([H])c2c(c1[H])c1c3c(c4c5c([H])c([H])c([H])c([H])c5n5c4c1n2[C@@]1(C([H])([H])[H])O[C@]5([H])C([H])([H])[C@@]([H])(N(C([H])([H])[H])C([H])([H])[H])[C@@]1([H])OC([H])([H])[H])C(=O)N([H])C3([H])[H]


 37 44  0  0  0  0  0  0  0  0999 V2000
  156.7205  135.3141  189.4543 C   0  0  0  0  0  0  0  0  0  0  0  0
  156.8984  134.5462  190.7831 C   0  0  0  0  0  0  0  0  0  0  0  0
  155.5322  133.9014  191.0061 C   0  0  0  0  0  0  0  0  0  0  0  0
  154.6633  135.0659  191.4048 C   0  0  0  0  0  0  0  0  0  0  0  0
  155.1991  136.2788  191.0521 O   0  0  0  0  0  0  0  0  0  0  0  0
  155.7251  136.3788  189.7504 C   0  0  0  0  0  0  0  0  0  0  0  0
  156.5614  137.6877  189.8875 C   0  0  0  0  0  0  0  0  0  0  0  0
  154.6446  136.5959  188.8241 N   0  0  0  0  0  0  0  0  0  0  0  0
  154.7176  137.2825  187.6466 C   0  0  0  0  0  0  0  0  0  0  0  0
  155.7542  137.8302  186.9464 C   0  0  0  0  0  0  0  0  0  0  0  0
  155.5627  138.4707  185.7429 C   0  0  0  0  0  0  0  0  0  0  0  0
  154.3073  138.5778  185.2060 C   0  0  0  0  0  0  0  0  0  0  0  0
  153.2272  138.0321  185.8894 C   0  0  0  0  0  0  0  0  0  0  0  0
  153.4606  137.4058  187.0771 C   0  0  0  0  0  0  0  0  0  0  0  0
  152.5776  136.7667  187.9305 C   0  0  0  0  0  0  0  0  0  0  0  0
  151.2148  136.5402  187.8928 C   0  0  0  0  0  0  0  0  0  0  0  0
  150.2428  136.9975  186.8651 C   0  0  0  0  0  0  0  0  0  0  0  0
  148.9772  136.5465  187.3630 N   0  0  0  0  0  0  0  0  0  0  0  0
  149.1525  135.7999  188.5898 C   0  0  0  0  0  0  0  0  0  0  0  0
  148.2214  135.2654  189.2260 O   0  0  0  0  0  0  0  0  0  0  0  0
  150.5580  135.8171  188.8898 C   0  0  0  0  0  0  0  0  0  0  0  0
  151.3548  135.3340  189.9270 C   0  0  0  0  0  0  0  0  0  0  0  0
  151.0647  134.5650  191.0280 C   0  0  0  0  0  0  0  0  0  0  0  0
  149.9262  134.0060  191.5304 C   0  0  0  0  0  0  0  0  0  0  0  0
  150.0228  133.2482  192.7025 C   0  0  0  0  0  0  0  0  0  0  0  0
  151.2222  133.0644  193.3423 C   0  0  0  0  0  0  0  0  0  0  0  0
  152.3649  133.6293  192.8327 C   0  0  0  0  0  0  0  0  0  0  0  0
  152.2845  134.3755  191.6808 C   0  0  0  0  0  0  0  0  0  0  0  0
  153.2708  134.9799  191.0422 N   0  0  0  0  0  0  0  0  0  0  0  0
  152.7298  135.5696  189.9662 C   0  0  0  0  0  0  0  0  0  0  0  0
  153.3096  136.2905  188.9577 C   0  0  0  0  0  0  0  0  0  0  0  0
  148.0163  136.6940  186.9588 H   0  0  0  0  0  0  0  0  0  0  0  0
  158.0293  133.7937  190.9605 N   0  0  0  0  0  0  0  0  0  0  0  0
  157.7143  132.5192  191.5748 C   0  0  0  0  0  0  0  0  0  0  0  0
  159.0244  133.6479  189.9879 C   0  0  0  0  0  0  0  0  0  0  0  0
  156.9493  134.3439  187.3638 C   0  0  0  0  0  0  0  0  0  0  0  0
  156.2809  134.3549  188.5604 O   0  0  0  0  0  0  0  0  0  0  0  0
 36 37  1  0  0  0
 37  1  1  0  0  0
  1  2  1  0  0  0
  2  3  1  0  0  0
  3  4  1  0  0  0
  4  5  1  0  0  0
  5  6  1  0  0  0
  6  7  1  0  0  0
  6  8  1  0  0  0
  8  9  1  0  0  0
  9 10  2  0  0  0
 10 11  1  0  0  0
 11 12  2  0  0  0
 12 13  1  0  0  0
 13 14  2  0  0  0
 14 15  1  0  0  0
 15 16  2  0  0  0
 16 17  1  0  0  0
 17 18  1  0  0  0
 18 19  1  0  0  0
 19 20  2  0  0  0
 19 21  1  0  0  0
 21 22  2  0  0  0
 22 23  1  0  0  0
 23 24  2  0  0  0
 24 25  1  0  0  0
 25 26  2  0  0  0
 26 27  1  0  0  0
 27 28  2  0  0  0
 28 29  1  0  0  0
 29 30  1  0  0  0
 30 31  2  0  0  0
  2 33  1  0  0  0
 33 34  1  0  0  0
 33 35  1  0  0  0
  6  1  1  0  0  0
 31  8  1  0  0  0
 29  4  1  0  0  0
 14  9  1  0  0  0
 31 15  1  0  0  0
 21 16  1  0  0  0
 30 22  1  0  0  0
 28 23  1  0  0  0
 18 32  1  0  0  0
M  END
> <minimizedAffinity>
-7.00651

> <CNNscore>
0.3127227426

> <CNNaffinity>
5.6443557739

> <CNN_VS>
1.7651183605

> <CNNaffinity_variance>
0.3137922883

$$$$
[H]c1c([H])c([H])c2c(c1[H])c1c3c(c4c5c([H])c([H])c([H])c([H])c5n5c4c1n2[C@@]1(C([H])([H])[H])O[C@]5([H])C([H])([H])[C@@]([H])(N(C([H])([H])[H])C([H])([H])[H])[C@@]1([H])OC([H])([H])[H])C(=O)N([H])C3([H])[H]


 37 44  0  0  0  0  0  0  0  0999 V2000
  151.2794  135.3141  186.9475 C   0  0  0  0  0  0  0  0  0  0  0  0
  149.9276  135.6543  186.2812 C   0  0  0  0  0  0  0  0  0  0  0  0
  149.9242  134.7889  185.0229 C   0  0  0  0  0  0  0  0  0  0  0  0
  150.9222  135.4780  184.1290 C   0  0  0  0  0  0  0  0  0  0  0  0
  151.7619  136.3201  184.8136 O   0  0  0  0  0  0  0  0  0  0  0  0
  152.3147  135.8215  186.0081 C   0  0  0  0  0  0  0  0  0  0  0  0
  152.8300  137.1456  186.6507 C   0  0  0  0  0  0  0  0  0  0  0  0
  153.4358  134.9767  185.6885 N   0  0  0  0  0  0  0  0  0  0  0  0
  154.5396  134.7732  186.4654 C   0  0  0  0  0  0  0  0  0  0  0  0
  154.8721  135.1514  187.7347 C   0  0  0  0  0  0  0  0  0  0  0  0
  156.0696  134.7931  188.3116 C   0  0  0  0  0  0  0  0  0  0  0  0
  156.9748  134.0351  187.6175 C   0  0  0  0  0  0  0  0  0  0  0  0
  156.6715  133.6304  186.3231 C   0  0  0  0  0  0  0  0  0  0  0  0
  155.4748  134.0061  185.7898 C   0  0  0  0  0  0  0  0  0  0  0  0
  154.9274  133.7191  184.5511 C   0  0  0  0  0  0  0  0  0  0  0  0
  155.3666  132.9870  183.4643 C   0  0  0  0  0  0  0  0  0  0  0  0
  156.6700  132.2910  183.3006 C   0  0  0  0  0  0  0  0  0  0  0  0
  156.6150  131.7650  181.9690 N   0  0  0  0  0  0  0  0  0  0  0  0
  155.3349  132.0576  181.3614 C   0  0  0  0  0  0  0  0  0  0  0  0
  155.0016  131.6929  180.2155 O   0  0  0  0  0  0  0  0  0  0  0  0
  154.5839  132.8201  182.3207 C   0  0  0  0  0  0  0  0  0  0  0  0
  153.3317  133.4329  182.3363 C   0  0  0  0  0  0  0  0  0  0  0  0
  152.3026  133.4456  181.4260 C   0  0  0  0  0  0  0  0  0  0  0  0
  152.1126  132.8994  180.1904 C   0  0  0  0  0  0  0  0  0  0  0  0
  150.8878  133.1196  179.5510 C   0  0  0  0  0  0  0  0  0  0  0  0
  149.8953  133.8637  180.1365 C   0  0  0  0  0  0  0  0  0  0  0  0
  150.0917  134.4113  181.3799 C   0  0  0  0  0  0  0  0  0  0  0  0
  151.2902  134.2020  182.0201 C   0  0  0  0  0  0  0  0  0  0  0  0
  151.6519  134.6358  183.2146 N   0  0  0  0  0  0  0  0  0  0  0  0
  152.8930  134.1771  183.4323 C   0  0  0  0  0  0  0  0  0  0  0  0
  153.7132  134.3044  184.5204 C   0  0  0  0  0  0  0  0  0  0  0  0
  157.3516  131.2341  181.4361 H   0  0  0  0  0  0  0  0  0  0  0  0
  148.8034  135.7012  187.0628 N   0  0  0  0  0  0  0  0  0  0  0  0
  148.1750  137.0055  186.9916 C   0  0  0  0  0  0  0  0  0  0  0  0
  147.8430  134.6846  187.1018 C   0  0  0  0  0  0  0  0  0  0  0  0
  151.4281  133.4909  188.3679 C   0  0  0  0  0  0  0  0  0  0  0  0
  151.2577  133.9381  187.0835 O   0  0  0  0  0  0  0  0  0  0  0  0
 36 37  1  0  0  0
 37  1  1  0  0  0
  1  2  1  0  0  0
  2  3  1  0  0  0
  3  4  1  0  0  0
  4  5  1  0  0  0
  5  6  1  0  0  0
  6  7  1  0  0  0
  6  8  1  0  0  0
  8  9  1  0  0  0
  9 10  2  0  0  0
 10 11  1  0  0  0
 11 12  2  0  0  0
 12 13  1  0  0  0
 13 14  2  0  0  0
 14 15  1  0  0  0
 15 16  2  0  0  0
 16 17  1  0  0  0
 17 18  1  0  0  0
 18 19  1  0  0  0
 19 20  2  0  0  0
 19 21  1  0  0  0
 21 22  2  0  0  0
 22 23  1  0  0  0
 23 24  2  0  0  0
 24 25  1  0  0  0
 25 26  2  0  0  0
 26 27  1  0  0  0
 27 28  2  0  0  0
 28 29  1  0  0  0
 29 30  1  0  0  0
 30 31  2  0  0  0
  2 33  1  0  0  0
 33 34  1  0  0  0
 33 35  1  0  0  0
  6  1  1  0  0  0
 31  8  1  0  0  0
 29  4  1  0  0  0
 14  9  1  0  0  0
 31 15  1  0  0  0
 21 16  1  0  0  0
 30 22  1  0  0  0
 28 23  1  0  0  0
 18 32  1  0  0  0
M  END
> <minimizedAffinity>
-4.03246

> <CNNscore>
0.3124795854

> <CNNaffinity>
5.5243024826

> <CNN_VS>
1.7262316942

> <CNNaffinity_variance>
0.1424059570

$$$$
[H]c1c([H])c([H])c2c(c1[H])c1c3c(c4c5c([H])c([H])c([H])c([H])c5n5c4c1n2[C@@]1(C([H])([H])[H])O[C@]5([H])C([H])([H])[C@@]([H])(N(C([H])([H])[H])C([H])([H])[H])[C@@]1([H])OC([H])([H])[H])C(=O)N([H])C3([H])[H]


 37 44  0  0  0  0  0  0  0  0999 V2000
  156.3493  135.5632  187.6286 C   0  0  0  0  0  0  0  0  0  0  0  0
  157.0637  135.4491  188.9938 C   0  0  0  0  0  0  0  0  0  0  0  0
  155.9682  134.9361  189.9259 C   0  0  0  0  0  0  0  0  0  0  0  0
  155.0817  136.1403  190.1102 C   0  0  0  0  0  0  0  0  0  0  0  0
  155.2635  137.0923  189.1389 O   0  0  0  0  0  0  0  0  0  0  0  0
  155.3298  136.6304  187.8110 C   0  0  0  0  0  0  0  0  0  0  0  0
  155.9292  137.8869  187.1084 C   0  0  0  0  0  0  0  0  0  0  0  0
  153.9930  136.4034  187.3268 N   0  0  0  0  0  0  0  0  0  0  0  0
  153.5744  136.5149  186.0324 C   0  0  0  0  0  0  0  0  0  0  0  0
  154.2292  136.7272  184.8530 C   0  0  0  0  0  0  0  0  0  0  0  0
  153.5633  136.7803  183.6492 C   0  0  0  0  0  0  0  0  0  0  0  0
  152.2042  136.6190  183.6005 C   0  0  0  0  0  0  0  0  0  0  0  0
  151.5031  136.4003  184.7803 C   0  0  0  0  0  0  0  0  0  0  0  0
  152.2008  136.3540  185.9502 C   0  0  0  0  0  0  0  0  0  0  0  0
  151.7532  136.1287  187.2407 C   0  0  0  0  0  0  0  0  0  0  0  0
  150.5074  135.8801  187.7849 C   0  0  0  0  0  0  0  0  0  0  0  0
  149.1989  135.8281  187.0809 C   0  0  0  0  0  0  0  0  0  0  0  0
  148.2502  135.6107  188.1325 N   0  0  0  0  0  0  0  0  0  0  0  0
  148.9266  135.4717  189.4039 C   0  0  0  0  0  0  0  0  0  0  0  0
  148.3480  135.2458  190.4863 O   0  0  0  0  0  0  0  0  0  0  0  0
  150.3304  135.6458  189.1494 C   0  0  0  0  0  0  0  0  0  0  0  0
  151.4824  135.6751  189.9341 C   0  0  0  0  0  0  0  0  0  0  0  0
  151.6885  135.4519  191.2741 C   0  0  0  0  0  0  0  0  0  0  0  0
  150.8785  135.1417  192.3271 C   0  0  0  0  0  0  0  0  0  0  0  0
  151.4660  134.9673  193.5847 C   0  0  0  0  0  0  0  0  0  0  0  0
  152.8182  135.1029  193.7710 C   0  0  0  0  0  0  0  0  0  0  0  0
  153.6289  135.4153  192.7081 C   0  0  0  0  0  0  0  0  0  0  0  0
  153.0648  135.5884  191.4663 C   0  0  0  0  0  0  0  0  0  0  0  0
  153.6822  135.8774  190.3345 N   0  0  0  0  0  0  0  0  0  0  0  0
  152.7386  135.9327  189.3833 C   0  0  0  0  0  0  0  0  0  0  0  0
  152.8404  136.1585  188.0373 C   0  0  0  0  0  0  0  0  0  0  0  0
  147.2009  135.5492  188.0748 H   0  0  0  0  0  0  0  0  0  0  0  0
  158.3047  134.8706  189.0395 N   0  0  0  0  0  0  0  0  0  0  0  0
  158.2688  133.6210  189.7731 C   0  0  0  0  0  0  0  0  0  0  0  0
  159.1583  134.7780  187.9349 C   0  0  0  0  0  0  0  0  0  0  0  0
  156.1655  133.7442  186.2068 C   0  0  0  0  0  0  0  0  0  0  0  0
  155.8232  134.3030  187.4108 O   0  0  0  0  0  0  0  0  0  0  0  0
 36 37  1  0  0  0
 37  1  1  0  0  0
  1  2  1  0  0  0
  2  3  1  0  0  0
  3  4  1  0  0  0
  4  5  1  0  0  0
  5  6  1  0  0  0
  6  7  1  0  0  0
  6  8  1  0  0  0
  8  9  1  0  0  0
  9 10  2  0  0  0
 10 11  1  0  0  0
 11 12  2  0  0  0
 12 13  1  0  0  0
 13 14  2  0  0  0
 14 15  1  0  0  0
 15 16  2  0  0  0
 16 17  1  0  0  0
 17 18  1  0  0  0
 18 19  1  0  0  0
 19 20  2  0  0  0
 19 21  1  0  0  0
 21 22  2  0  0  0
 22 23  1  0  0  0
 23 24  2  0  0  0
 24 25  1  0  0  0
 25 26  2  0  0  0
 26 27  1  0  0  0
 27 28  2  0  0  0
 28 29  1  0  0  0
 29 30  1  0  0  0
 30 31  2  0  0  0
  2 33  1  0  0  0
 33 34  1  0  0  0
 33 35  1  0  0  0
  6  1  1  0  0  0
 31  8  1  0  0  0
 29  4  1  0  0  0
 14  9  1  0  0  0
 31 15  1  0  0  0
 21 16  1  0  0  0
 30 22  1  0  0  0
 28 23  1  0  0  0
 18 32  1  0  0  0
M  END
> <minimizedAffinity>
-6.38363

> <CNNscore>
0.2997868657

> <CNNaffinity>
5.7539620399

> <CNN_VS>
1.7249622345

> <CNNaffinity_variance>
0.1239488497

$$$$
[H]c1c([H])c([H])c2c(c1[H])c1c3c(c4c5c([H])c([H])c([H])c([H])c5n5c4c1n2[C@@]1(C([H])([H])[H])O[C@]5([H])C([H])([H])[C@@]([H])(N(C([H])([H])[H])C([H])([H])[H])[C@@]1([H])OC([H])([H])[H])C(=O)N([H])C3([H])[H]


 37 44  0  0  0  0  0  0  0  0999 V2000
  153.4613  136.8458  185.8525 C   0  0  0  0  0  0  0  0  0  0  0  0
  152.4510  136.1805  184.8913 C   0  0  0  0  0  0  0  0  0  0  0  0
  151.1770  136.0826  185.7276 C   0  0  0  0  0  0  0  0  0  0  0  0
  151.4900  134.9780  186.7032 C   0  0  0  0  0  0  0  0  0  0  0  0
  152.8349  134.7308  186.8183 O   0  0  0  0  0  0  0  0  0  0  0  0
  153.6721  135.8555  186.9418 C   0  0  0  0  0  0  0  0  0  0  0  0
  155.0569  135.2069  186.6366 C   0  0  0  0  0  0  0  0  0  0  0  0
  153.6471  136.3101  188.3076 N   0  0  0  0  0  0  0  0  0  0  0  0
  154.6635  136.9390  188.9669 C   0  0  0  0  0  0  0  0  0  0  0  0
  155.8771  137.4231  188.5699 C   0  0  0  0  0  0  0  0  0  0  0  0
  156.7341  138.0490  189.4469 C   0  0  0  0  0  0  0  0  0  0  0  0
  156.3877  138.2061  190.7625 C   0  0  0  0  0  0  0  0  0  0  0  0
  155.1601  137.7268  191.2039 C   0  0  0  0  0  0  0  0  0  0  0  0
  154.3412  137.1143  190.3029 C   0  0  0  0  0  0  0  0  0  0  0  0
  153.0760  136.5796  190.4758 C   0  0  0  0  0  0  0  0  0  0  0  0
  152.2271  136.4784  191.5617 C   0  0  0  0  0  0  0  0  0  0  0  0
  152.4816  136.9106  192.9612 C   0  0  0  0  0  0  0  0  0  0  0  0
  151.3043  136.5011  193.6678 N   0  0  0  0  0  0  0  0  0  0  0  0
  150.3479  135.9088  192.7579 C   0  0  0  0  0  0  0  0  0  0  0  0
  149.2221  135.4904  193.0968 O   0  0  0  0  0  0  0  0  0  0  0  0
  150.9564  135.9105  191.4559 C   0  0  0  0  0  0  0  0  0  0  0  0
  150.5900  135.4516  190.1914 C   0  0  0  0  0  0  0  0  0  0  0  0
  149.4292  134.8894  189.7178 C   0  0  0  0  0  0  0  0  0  0  0  0
  148.2305  134.5567  190.2776 C   0  0  0  0  0  0  0  0  0  0  0  0
  147.2466  134.0010  189.4527 C   0  0  0  0  0  0  0  0  0  0  0  0
  147.4662  133.7886  188.1155 C   0  0  0  0  0  0  0  0  0  0  0  0
  148.6743  134.1250  187.5570 C   0  0  0  0  0  0  0  0  0  0  0  0
  149.6498  134.6729  188.3560 C   0  0  0  0  0  0  0  0  0  0  0  0
  150.8585  135.0668  187.9959 N   0  0  0  0  0  0  0  0  0  0  0  0
  151.4515  135.5490  189.0978 C   0  0  0  0  0  0  0  0  0  0  0  0
  152.6860  136.1133  189.2725 C   0  0  0  0  0  0  0  0  0  0  0  0
  151.0873  136.5813  194.6949 H   0  0  0  0  0  0  0  0  0  0  0  0
  152.3707  136.6386  183.6028 N   0  0  0  0  0  0  0  0  0  0  0  0
  152.8210  135.6303  182.6638 C   0  0  0  0  0  0  0  0  0  0  0  0
  151.2708  137.3388  183.0956 C   0  0  0  0  0  0  0  0  0  0  0  0
  153.5334  139.1574  185.9753 C   0  0  0  0  0  0  0  0  0  0  0  0
  152.8352  138.0114  186.2545 O   0  0  0  0  0  0  0  0  0  0  0  0
 36 37  1  0  0  0
 37  1  1  0  0  0
  1  2  1  0  0  0
  2  3  1  0  0  0
  3  4  1  0  0  0
  4  5  1  0  0  0
  5  6  1  0  0  0
  6  7  1  0  0  0
  6  8  1  0  0  0
  8  9  1  0  0  0
  9 10  2  0  0  0
 10 11  1  0  0  0
 11 12  2  0  0  0
 12 13  1  0  0  0
 13 14  2  0  0  0
 14 15  1  0  0  0
 15 16  2  0  0  0
 16 17  1  0  0  0
 17 18  1  0  0  0
 18 19  1  0  0  0
 19 20  2  0  0  0
 19 21  1  0  0  0
 21 22  2  0  0  0
 22 23  1  0  0  0
 23 24  2  0  0  0
 24 25  1  0  0  0
 25 26  2  0  0  0
 26 27  1  0  0  0
 27 28  2  0  0  0
 28 29  1  0  0  0
 29 30  1  0  0  0
 30 31  2  0  0  0
  2 33  1  0  0  0
 33 34  1  0  0  0
 33 35  1  0  0  0
  6  1  1  0  0  0
 31  8  1  0  0  0
 29  4  1  0  0  0
 14  9  1  0  0  0
 31 15  1  0  0  0
 21 16  1  0  0  0
 30 22  1  0  0  0
 28 23  1  0  0  0
 18 32  1  0  0  0
M  END
> <minimizedAffinity>
-7.05243

> <CNNscore>
0.2895326018

> <CNNaffinity>
5.6264519691

> <CNN_VS>
1.6290413141

> <CNNaffinity_variance>
0.3210451603

$$$$
[H]c1c([H])c([H])c2c(c1[H])c1c3c(c4c5c([H])c([H])c([H])c([H])c5n5c4c1n2[C@@]1(C([H])([H])[H])O[C@]5([H])C([H])([H])[C@@]([H])(N(C([H])([H])[H])C([H])([H])[H])[C@@]1([H])OC([H])([H])[H])C(=O)N([H])C3([H])[H]


 37 44  0  0  0  0  0  0  0  0999 V2000
  154.2533  136.1855  185.6796 C   0  0  0  0  0  0  0  0  0  0  0  0
  153.8117  136.9955  186.9190 C   0  0  0  0  0  0  0  0  0  0  0  0
  152.5138  136.3129  187.3451 C   0  0  0  0  0  0  0  0  0  0  0  0
  151.5320  136.7515  186.2898 C   0  0  0  0  0  0  0  0  0  0  0  0
  152.1417  137.2150  185.1513 O   0  0  0  0  0  0  0  0  0  0  0  0
  153.2096  136.4457  184.6526 C   0  0  0  0  0  0  0  0  0  0  0  0
  153.8555  137.4695  183.6696 C   0  0  0  0  0  0  0  0  0  0  0  0
  152.6782  135.3352  183.9061 N   0  0  0  0  0  0  0  0  0  0  0  0
  153.2735  134.7192  182.8434 C   0  0  0  0  0  0  0  0  0  0  0  0
  154.5036  134.8385  182.2624 C   0  0  0  0  0  0  0  0  0  0  0  0
  154.8779  134.0685  181.1843 C   0  0  0  0  0  0  0  0  0  0  0  0
  154.0134  133.1468  180.6565 C   0  0  0  0  0  0  0  0  0  0  0  0
  152.7526  132.9961  181.2214 C   0  0  0  0  0  0  0  0  0  0  0  0
  152.4223  133.7776  182.2881 C   0  0  0  0  0  0  0  0  0  0  0  0
  151.2593  133.8076  183.0383 C   0  0  0  0  0  0  0  0  0  0  0  0
  150.0757  133.0960  182.9859 C   0  0  0  0  0  0  0  0  0  0  0  0
  149.6817  132.0533  182.0022 C   0  0  0  0  0  0  0  0  0  0  0  0
  148.3407  131.7152  182.3768 N   0  0  0  0  0  0  0  0  0  0  0  0
  147.9437  132.4518  183.5571 C   0  0  0  0  0  0  0  0  0  0  0  0
  146.8364  132.3323  184.1203 O   0  0  0  0  0  0  0  0  0  0  0  0
  149.0481  133.3020  183.9078 C   0  0  0  0  0  0  0  0  0  0  0  0
  149.2832  134.2661  184.8872 C   0  0  0  0  0  0  0  0  0  0  0  0
  148.5331  134.6930  185.9562 C   0  0  0  0  0  0  0  0  0  0  0  0
  147.3050  134.3673  186.4531 C   0  0  0  0  0  0  0  0  0  0  0  0
  146.8640  135.0217  187.6083 C   0  0  0  0  0  0  0  0  0  0  0  0
  147.6329  135.9689  188.2353 C   0  0  0  0  0  0  0  0  0  0  0  0
  148.8678  136.2932  187.7311 C   0  0  0  0  0  0  0  0  0  0  0  0
  149.3141  135.6569  186.5970 C   0  0  0  0  0  0  0  0  0  0  0  0
  150.4697  135.8279  185.9795 N   0  0  0  0  0  0  0  0  0  0  0  0
  150.4767  134.9879  184.9342 C   0  0  0  0  0  0  0  0  0  0  0  0
  151.4414  134.7388  183.9961 C   0  0  0  0  0  0  0  0  0  0  0  0
  147.6743  131.0429  181.9161 H   0  0  0  0  0  0  0  0  0  0  0  0
  154.7482  137.3034  187.8702 N   0  0  0  0  0  0  0  0  0  0  0  0
  154.3712  136.7674  189.1632 C   0  0  0  0  0  0  0  0  0  0  0  0
  156.1276  137.1917  187.6653 C   0  0  0  0  0  0  0  0  0  0  0  0
  155.4603  134.2135  185.8143 C   0  0  0  0  0  0  0  0  0  0  0  0
  154.3019  134.8772  186.1248 O   0  0  0  0  0  0  0  0  0  0  0  0
 36 37  1  0  0  0
 37  1  1  0  0  0
  1  2  1  0  0  0
  2  3  1  0  0  0
  3  4  1  0  0  0
  4  5  1  0  0  0
  5  6  1  0  0  0
  6  7  1  0  0  0
  6  8  1  0  0  0
  8  9  1  0  0  0
  9 10  2  0  0  0
 10 11  1  0  0  0
 11 12  2  0  0  0
 12 13  1  0  0  0
 13 14  2  0  0  0
 14 15  1  0  0  0
 15 16  2  0  0  0
 16 17  1  0  0  0
 17 18  1  0  0  0
 18 19  1  0  0  0
 19 20  2  0  0  0
 19 21  1  0  0  0
 21 22  2  0  0  0
 22 23  1  0  0  0
 23 24  2  0  0  0
 24 25  1  0  0  0
 25 26  2  0  0  0
 26 27  1  0  0  0
 27 28  2  0  0  0
 28 29  1  0  0  0
 29 30  1  0  0  0
 30 31  2  0  0  0
  2 33  1  0  0  0
 33 34  1  0  0  0
 33 35  1  0  0  0
  6  1  1  0  0  0
 31  8  1  0  0  0
 29  4  1  0  0  0
 14  9  1  0  0  0
 31 15  1  0  0  0
 21 16  1  0  0  0
 30 22  1  0  0  0
 28 23  1  0  0  0
 18 32  1  0  0  0
M  END
> <minimizedAffinity>
-3.39408

> <CNNscore>
0.2768303156

> <CNNaffinity>
5.6064805984

> <CNN_VS>
1.5520437956

> <CNNaffinity_variance>
0.2608367801

$$$$
[H]O[C@@](C(=O)N1C([H])([H])C([H])([H])N(C(=O)c2c([H])c([H])c(C#N)c([H])c2[H])[C@]([H])(C([H])([H])[H])C1([H])[H])(C([H])([H])[H])C(F)(F)F


 27 28  0  0  0  0  0  0  0  0999 V2000
  153.0984  138.5496  186.9740 C   0  0  0  0  0  0  0  0  0  0  0  0
  152.4604  137.2856  186.4665 C   0  0  0  0  0  0  0  0  0  0  0  0
  152.1667  136.4314  187.7211 C   0  0  0  0  0  0  0  0  0  0  0  0
  153.4228  136.3905  188.4827 N   0  0  0  0  0  0  0  0  0  0  0  0
  154.5779  135.9677  187.7416 C   0  0  0  0  0  0  0  0  0  0  0  0
  154.2368  135.5669  186.3239 C   0  0  0  0  0  0  0  0  0  0  0  0
  153.4001  136.5867  185.6475 N   0  0  0  0  0  0  0  0  0  0  0  0
  153.6252  136.7533  184.2972 C   0  0  0  0  0  0  0  0  0  0  0  0
  154.5751  135.9176  183.8612 O   0  0  0  0  0  0  0  0  0  0  0  0
  153.4859  136.7270  189.8376 C   0  0  0  0  0  0  0  0  0  0  0  0
  152.3839  137.0715  190.3937 O   0  0  0  0  0  0  0  0  0  0  0  0
  153.0915  137.5952  183.2662 C   0  0  0  0  0  0  0  0  0  0  0  0
  152.2592  137.0190  182.2858 C   0  0  0  0  0  0  0  0  0  0  0  0
  151.7038  137.7291  181.2534 C   0  0  0  0  0  0  0  0  0  0  0  0
  151.9489  139.0755  181.1355 C   0  0  0  0  0  0  0  0  0  0  0  0
  152.7513  139.6912  182.0596 C   0  0  0  0  0  0  0  0  0  0  0  0
  153.2972  138.9294  183.0962 C   0  0  0  0  0  0  0  0  0  0  0  0
  151.3670  139.8062  180.0587 C   0  0  0  0  0  0  0  0  0  0  0  0
  150.8891  140.3818  179.1841 N   0  0  0  0  0  0  0  0  0  0  0  0
  154.6785  136.7190  190.6565 C   0  0  0  0  0  0  0  0  0  0  0  0
  154.2792  136.2962  192.0816 C   0  0  0  0  0  0  0  0  0  0  0  0
  155.6900  135.8513  190.2843 O   0  0  0  0  0  0  0  0  0  0  0  0
  155.7515  135.0451  190.8449 H   0  0  0  0  0  0  0  0  0  0  0  0
  155.3363  138.0777  190.7830 C   0  0  0  0  0  0  0  0  0  0  0  0
  156.6413  138.0040  191.1715 F   0  0  0  0  0  0  0  0  0  0  0  0
  154.6715  138.8747  191.6949 F   0  0  0  0  0  0  0  0  0  0  0  0
  155.2773  138.7287  189.5668 F   0  0  0  0  0  0  0  0  0  0  0  0
  1  2  1  0  0  0
  2  3  1  0  0  0
  3  4  1  0  0  0
  4  5  1  0  0  0
  5  6  1  0  0  0
  6  7  1  0  0  0
  7  8  1  0  0  0
  8  9  2  0  0  0
  8 12  1  0  0  0
 12 13  2  0  0  0
 13 14  1  0  0  0
 14 15  2  0  0  0
 15 16  1  0  0  0
 16 17  2  0  0  0
 15 18  1  0  0  0
 18 19  3  0  0  0
  4 10  1  0  0  0
 10 11  2  0  0  0
 10 20  1  0  0  0
 20 21  1  0  0  0
 20 22  1  0  0  0
 20 24  1  0  0  0
 24 25  1  0  0  0
 24 26  1  0  0  0
 24 27  1  0  0  0
  7  2  1  0  0  0
 17 12  1  0  0  0
 22 23  1  0  0  0
M  END
> <minimizedAffinity>
-6.74309

> <CNNscore>
0.6244363785

> <CNNaffinity>
4.8614521027

> <CNN_VS>
3.0356676579

> <CNNaffinity_variance>
0.0134613635

$$$$
[H]O[C@@](C(=O)N1C([H])([H])C([H])([H])N(C(=O)c2c([H])c([H])c(C#N)c([H])c2[H])[C@]([H])(C([H])([H])[H])C1([H])[H])(C([H])([H])[H])C(F)(F)F


 27 28  0  0  0  0  0  0  0  0999 V2000
  154.1834  138.1156  185.9873 C   0  0  0  0  0  0  0  0  0  0  0  0
  152.7079  137.9081  186.1932 C   0  0  0  0  0  0  0  0  0  0  0  0
  152.5079  137.8102  187.7230 C   0  0  0  0  0  0  0  0  0  0  0  0
  153.4832  136.8168  188.1933 N   0  0  0  0  0  0  0  0  0  0  0  0
  153.4489  135.5518  187.5144 C   0  0  0  0  0  0  0  0  0  0  0  0
  152.3380  135.4783  186.4910 C   0  0  0  0  0  0  0  0  0  0  0  0
  152.3263  136.6644  185.6019 N   0  0  0  0  0  0  0  0  0  0  0  0
  151.9518  136.4352  184.2946 C   0  0  0  0  0  0  0  0  0  0  0  0
  151.6508  135.1460  184.0994 O   0  0  0  0  0  0  0  0  0  0  0  0
  154.3735  137.0807  189.2378 C   0  0  0  0  0  0  0  0  0  0  0  0
  154.2954  138.2406  189.7771 O   0  0  0  0  0  0  0  0  0  0  0  0
  151.8102  137.2373  183.1142 C   0  0  0  0  0  0  0  0  0  0  0  0
  150.5767  137.8747  182.8737 C   0  0  0  0  0  0  0  0  0  0  0  0
  150.3311  138.6560  181.7747 C   0  0  0  0  0  0  0  0  0  0  0  0
  151.3152  138.8507  180.8364 C   0  0  0  0  0  0  0  0  0  0  0  0
  152.5361  138.2556  181.0164 C   0  0  0  0  0  0  0  0  0  0  0  0
  152.7435  137.4671  182.1513 C   0  0  0  0  0  0  0  0  0  0  0  0
  151.0511  139.6648  179.6965 C   0  0  0  0  0  0  0  0  0  0  0  0
  150.8369  140.3080  178.7664 N   0  0  0  0  0  0  0  0  0  0  0  0
  155.3652  136.1637  189.7559 C   0  0  0  0  0  0  0  0  0  0  0  0
  155.4809  136.3896  191.2741 C   0  0  0  0  0  0  0  0  0  0  0  0
  155.1118  134.8121  189.6025 O   0  0  0  0  0  0  0  0  0  0  0  0
  154.8118  134.3657  190.4264 H   0  0  0  0  0  0  0  0  0  0  0  0
  156.7511  136.3834  189.1849 C   0  0  0  0  0  0  0  0  0  0  0  0
  157.3481  137.5155  189.6554 F   0  0  0  0  0  0  0  0  0  0  0  0
  156.7187  136.4681  187.8063 F   0  0  0  0  0  0  0  0  0  0  0  0
  157.5512  135.3030  189.4994 F   0  0  0  0  0  0  0  0  0  0  0  0
  1  2  1  0  0  0
  2  3  1  0  0  0
  3  4  1  0  0  0
  4  5  1  0  0  0
  5  6  1  0  0  0
  6  7  1  0  0  0
  7  8  1  0  0  0
  8  9  2  0  0  0
  8 12  1  0  0  0
 12 13  2  0  0  0
 13 14  1  0  0  0
 14 15  2  0  0  0
 15 16  1  0  0  0
 16 17  2  0  0  0
 15 18  1  0  0  0
 18 19  3  0  0  0
  4 10  1  0  0  0
 10 11  2  0  0  0
 10 20  1  0  0  0
 20 21  1  0  0  0
 20 22  1  0  0  0
 20 24  1  0  0  0
 24 25  1  0  0  0
 24 26  1  0  0  0
 24 27  1  0  0  0
  7  2  1  0  0  0
 17 12  1  0  0  0
 22 23  1  0  0  0
M  END
> <minimizedAffinity>
-5.26292

> <CNNscore>
0.4564038515

> <CNNaffinity>
4.6725921631

> <CNN_VS>
2.1325891018

> <CNNaffinity_variance>
0.1256148815

$$$$
[H]O[C@@](C(=O)N1C([H])([H])C([H])([H])N(C(=O)c2c([H])c([H])c(C#N)c([H])c2[H])[C@]([H])(C([H])([H])[H])C1([H])[H])(C([H])([H])[H])C(F)(F)F


 27 28  0  0  0  0  0  0  0  0999 V2000
  155.7877  137.5139  184.7091 C   0  0  0  0  0  0  0  0  0  0  0  0
  154.4268  138.1332  184.5453 C   0  0  0  0  0  0  0  0  0  0  0  0
  154.6004  139.2553  183.4963 C   0  0  0  0  0  0  0  0  0  0  0  0
  155.7453  140.0567  183.9505 N   0  0  0  0  0  0  0  0  0  0  0  0
  155.6684  140.5263  185.3055 C   0  0  0  0  0  0  0  0  0  0  0  0
  154.3602  140.1579  185.9686 C   0  0  0  0  0  0  0  0  0  0  0  0
  154.0323  138.7238  185.7854 N   0  0  0  0  0  0  0  0  0  0  0  0
  153.3846  138.1133  186.8387 C   0  0  0  0  0  0  0  0  0  0  0  0
  153.1652  138.9790  187.8353 O   0  0  0  0  0  0  0  0  0  0  0  0
  156.8275  140.3525  183.1172 C   0  0  0  0  0  0  0  0  0  0  0  0
  156.7724  139.8920  181.9225 O   0  0  0  0  0  0  0  0  0  0  0  0
  152.8978  136.7929  187.1148 C   0  0  0  0  0  0  0  0  0  0  0  0
  152.3849  136.0249  186.0504 C   0  0  0  0  0  0  0  0  0  0  0  0
  151.8875  134.7570  186.2041 C   0  0  0  0  0  0  0  0  0  0  0  0
  151.8717  134.1712  187.4465 C   0  0  0  0  0  0  0  0  0  0  0  0
  152.3573  134.8700  188.5201 C   0  0  0  0  0  0  0  0  0  0  0  0
  152.8551  136.1601  188.3185 C   0  0  0  0  0  0  0  0  0  0  0  0
  151.3526  132.8521  187.5971 C   0  0  0  0  0  0  0  0  0  0  0  0
  150.9350  131.7847  187.7017 N   0  0  0  0  0  0  0  0  0  0  0  0
  157.9925  141.1267  183.4863 C   0  0  0  0  0  0  0  0  0  0  0  0
  158.7408  140.3679  184.5969 C   0  0  0  0  0  0  0  0  0  0  0  0
  158.9333  141.3557  182.4979 O   0  0  0  0  0  0  0  0  0  0  0  0
  159.7406  140.7989  182.5777 H   0  0  0  0  0  0  0  0  0  0  0  0
  157.6589  142.4918  184.0522 C   0  0  0  0  0  0  0  0  0  0  0  0
  158.2453  143.5121  183.3634 F   0  0  0  0  0  0  0  0  0  0  0  0
  158.0508  142.5974  185.3728 F   0  0  0  0  0  0  0  0  0  0  0  0
  156.2907  142.6751  184.0263 F   0  0  0  0  0  0  0  0  0  0  0  0
  1  2  1  0  0  0
  2  3  1  0  0  0
  3  4  1  0  0  0
  4  5  1  0  0  0
  5  6  1  0  0  0
  6  7  1  0  0  0
  7  8  1  0  0  0
  8  9  2  0  0  0
  8 12  1  0  0  0
 12 13  2  0  0  0
 13 14  1  0  0  0
 14 15  2  0  0  0
 15 16  1  0  0  0
 16 17  2  0  0  0
 15 18  1  0  0  0
 18 19  3  0  0  0
  4 10  1  0  0  0
 10 11  2  0  0  0
 10 20  1  0  0  0
 20 21  1  0  0  0
 20 22  1  0  0  0
 20 24  1  0  0  0
 24 25  1  0  0  0
 24 26  1  0  0  0
 24 27  1  0  0  0
  7  2  1  0  0  0
 17 12  1  0  0  0
 22 23  1  0  0  0
M  END
> <minimizedAffinity>
1.25239

> <CNNscore>
0.4066339731

> <CNNaffinity>
5.0552845001

> <CNN_VS>
2.0556504726

> <CNNaffinity_variance>
1.4854438305

$$$$
[H]O[C@@](C(=O)N1C([H])([H])C([H])([H])N(C(=O)c2c([H])c([H])c(C#N)c([H])c2[H])[C@]([H])(C([H])([H])[H])C1([H])[H])(C([H])([H])[H])C(F)(F)F


 27 28  0  0  0  0  0  0  0  0999 V2000
  152.5383  138.0782  187.3365 C   0  0  0  0  0  0  0  0  0  0  0  0
  151.6996  136.8296  187.3447 C   0  0  0  0  0  0  0  0  0  0  0  0
  151.9952  136.1349  188.6937 C   0  0  0  0  0  0  0  0  0  0  0  0
  153.4593  136.0621  188.7961 N   0  0  0  0  0  0  0  0  0  0  0  0
  154.1257  135.4682  187.6712 C   0  0  0  0  0  0  0  0  0  0  0  0
  153.1542  134.9577  186.6308 C   0  0  0  0  0  0  0  0  0  0  0  0
  152.1307  135.9729  186.2853 N   0  0  0  0  0  0  0  0  0  0  0  0
  151.7091  135.9824  184.9723 C   0  0  0  0  0  0  0  0  0  0  0  0
  152.3227  135.0278  184.2631 O   0  0  0  0  0  0  0  0  0  0  0  0
  154.1537  136.5267  189.9164 C   0  0  0  0  0  0  0  0  0  0  0  0
  153.4461  137.0198  190.8643 O   0  0  0  0  0  0  0  0  0  0  0  0
  150.7840  136.7593  184.1994 C   0  0  0  0  0  0  0  0  0  0  0  0
  151.2574  137.4345  183.0567 C   0  0  0  0  0  0  0  0  0  0  0  0
  150.4624  138.2097  182.2531 C   0  0  0  0  0  0  0  0  0  0  0  0
  149.1287  138.3598  182.5456 C   0  0  0  0  0  0  0  0  0  0  0  0
  148.6112  137.7269  183.6450 C   0  0  0  0  0  0  0  0  0  0  0  0
  149.4575  136.9463  184.4370 C   0  0  0  0  0  0  0  0  0  0  0  0
  148.3093  139.1678  181.7043 C   0  0  0  0  0  0  0  0  0  0  0  0
  147.6619  139.8264  181.0176 N   0  0  0  0  0  0  0  0  0  0  0  0
  155.5891  136.4978  190.0939 C   0  0  0  0  0  0  0  0  0  0  0  0
  155.8967  136.8131  191.5688 C   0  0  0  0  0  0  0  0  0  0  0  0
  156.2303  135.3000  189.8315 O   0  0  0  0  0  0  0  0  0  0  0  0
  156.4959  134.8036  190.6385 H   0  0  0  0  0  0  0  0  0  0  0  0
  156.3227  137.5384  189.2730 C   0  0  0  0  0  0  0  0  0  0  0  0
  155.5026  138.5207  188.8019 F   0  0  0  0  0  0  0  0  0  0  0  0
  156.9578  136.9658  188.1879 F   0  0  0  0  0  0  0  0  0  0  0  0
  157.3051  138.1220  190.0479 F   0  0  0  0  0  0  0  0  0  0  0  0
  1  2  1  0  0  0
  2  3  1  0  0  0
  3  4  1  0  0  0
  4  5  1  0  0  0
  5  6  1  0  0  0
  6  7  1  0  0  0
  7  8  1  0  0  0
  8  9  2  0  0  0
  8 12  1  0  0  0
 12 13  2  0  0  0
 13 14  1  0  0  0
 14 15  2  0  0  0
 15 16  1  0  0  0
 16 17  2  0  0  0
 15 18  1  0  0  0
 18 19  3  0  0  0
  4 10  1  0  0  0
 10 11  2  0  0  0
 10 20  1  0  0  0
 20 21  1  0  0  0
 20 22  1  0  0  0
 20 24  1  0  0  0
 24 25  1  0  0  0
 24 26  1  0  0  0
 24 27  1  0  0  0
  7  2  1  0  0  0
 17 12  1  0  0  0
 22 23  1  0  0  0
M  END
> <minimizedAffinity>
-5.19268

> <CNNscore>
0.3955769539

> <CNNaffinity>
4.5832796097

> <CNN_VS>
1.8130397797

> <CNNaffinity_variance>
0.0377018750

$$$$
[H]O[C@@](C(=O)N1C([H])([H])C([H])([H])N(C(=O)c2c([H])c([H])c(C#N)c([H])c2[H])[C@]([H])(C([H])([H])[H])C1([H])[H])(C([H])([H])[H])C(F)(F)F


 27 28  0  0  0  0  0  0  0  0999 V2000
  155.4463  138.4419  188.1293 C   0  0  0  0  0  0  0  0  0  0  0  0
  154.0640  138.3625  187.5417 C   0  0  0  0  0  0  0  0  0  0  0  0
  153.1865  137.6920  188.6235 C   0  0  0  0  0  0  0  0  0  0  0  0
  153.9062  136.4764  189.0282 N   0  0  0  0  0  0  0  0  0  0  0  0
  154.2871  135.6011  187.9554 C   0  0  0  0  0  0  0  0  0  0  0  0
  153.7856  136.0844  186.6131 C   0  0  0  0  0  0  0  0  0  0  0  0
  154.0960  137.5167  186.3902 N   0  0  0  0  0  0  0  0  0  0  0  0
  154.3882  137.8761  185.0913 C   0  0  0  0  0  0  0  0  0  0  0  0
  154.3115  136.8212  184.2715 O   0  0  0  0  0  0  0  0  0  0  0  0
  154.1885  136.1861  190.3659 C   0  0  0  0  0  0  0  0  0  0  0  0
  153.7810  137.0359  191.2342 O   0  0  0  0  0  0  0  0  0  0  0  0
  154.7482  139.0920  184.4214 C   0  0  0  0  0  0  0  0  0  0  0  0
  156.0610  139.5824  184.5693 C   0  0  0  0  0  0  0  0  0  0  0  0
  156.5073  140.7370  183.9809 C   0  0  0  0  0  0  0  0  0  0  0  0
  155.6587  141.4821  183.1989 C   0  0  0  0  0  0  0  0  0  0  0  0
  154.3695  141.0551  183.0187 C   0  0  0  0  0  0  0  0  0  0  0  0
  153.9561  139.8721  183.6371 C   0  0  0  0  0  0  0  0  0  0  0  0
  156.1315  142.6816  182.5908 C   0  0  0  0  0  0  0  0  0  0  0  0
  156.5239  143.6523  182.1130 N   0  0  0  0  0  0  0  0  0  0  0  0
  154.8946  135.0189  190.8473 C   0  0  0  0  0  0  0  0  0  0  0  0
  154.2692  134.5995  192.1898 C   0  0  0  0  0  0  0  0  0  0  0  0
  154.8531  133.8874  190.0519 O   0  0  0  0  0  0  0  0  0  0  0  0
  154.2408  133.1906  190.3797 H   0  0  0  0  0  0  0  0  0  0  0  0
  156.3636  135.2686  191.1203 C   0  0  0  0  0  0  0  0  0  0  0  0
  157.0728  134.1199  191.3124 F   0  0  0  0  0  0  0  0  0  0  0  0
  156.5390  136.0618  192.2378 F   0  0  0  0  0  0  0  0  0  0  0  0
  156.9163  135.9519  190.0555 F   0  0  0  0  0  0  0  0  0  0  0  0
  1  2  1  0  0  0
  2  3  1  0  0  0
  3  4  1  0  0  0
  4  5  1  0  0  0
  5  6  1  0  0  0
  6  7  1  0  0  0
  7  8  1  0  0  0
  8  9  2  0  0  0
  8 12  1  0  0  0
 12 13  2  0  0  0
 13 14  1  0  0  0
 14 15  2  0  0  0
 15 16  1  0  0  0
 16 17  2  0  0  0
 15 18  1  0  0  0
 18 19  3  0  0  0
  4 10  1  0  0  0
 10 11  2  0  0  0
 10 20  1  0  0  0
 20 21  1  0  0  0
 20 22  1  0  0  0
 20 24  1  0  0  0
 24 25  1  0  0  0
 24 26  1  0  0  0
 24 27  1  0  0  0
  7  2  1  0  0  0
 17 12  1  0  0  0
 22 23  1  0  0  0
M  END
> <minimizedAffinity>
-6.20230

> <CNNscore>
0.3208808303

> <CNNaffinity>
5.0509161949

> <CNN_VS>
1.6207422018

> <CNNaffinity_variance>
0.1291939467

$$$$
[H]O[C@@](C(=O)N1C([H])([H])C([H])([H])N(C(=O)c2c([H])c([H])c(C#N)c([H])c2[H])[C@]([H])(C([H])([H])[H])C1([H])[H])(C([H])([H])[H])C(F)(F)F


 27 28  0  0  0  0  0  0  0  0999 V2000
  153.6130  140.3911  180.5580 C   0  0  0  0  0  0  0  0  0  0  0  0
  152.7387  140.5358  181.7733 C   0  0  0  0  0  0  0  0  0  0  0  0
  153.4117  141.6189  182.6473 C   0  0  0  0  0  0  0  0  0  0  0  0
  154.8194  141.2166  182.7731 N   0  0  0  0  0  0  0  0  0  0  0  0
  155.0365  139.8732  183.2319 C   0  0  0  0  0  0  0  0  0  0  0  0
  153.7443  139.1664  183.5742 C   0  0  0  0  0  0  0  0  0  0  0  0
  152.7373  139.3022  182.4947 N   0  0  0  0  0  0  0  0  0  0  0  0
  151.9098  138.2162  182.3010 C   0  0  0  0  0  0  0  0  0  0  0  0
  152.1885  137.2379  183.1705 O   0  0  0  0  0  0  0  0  0  0  0  0
  155.8737  142.0857  182.4791 C   0  0  0  0  0  0  0  0  0  0  0  0
  155.5527  143.2657  182.0958 O   0  0  0  0  0  0  0  0  0  0  0  0
  150.8387  137.8919  181.4041 C   0  0  0  0  0  0  0  0  0  0  0  0
  150.2878  136.5957  181.4494 C   0  0  0  0  0  0  0  0  0  0  0  0
  149.2690  136.1784  180.6329 C   0  0  0  0  0  0  0  0  0  0  0  0
  148.7314  137.0414  179.7093 C   0  0  0  0  0  0  0  0  0  0  0  0
  149.2268  138.3156  179.6189 C   0  0  0  0  0  0  0  0  0  0  0  0
  150.2660  138.6993  180.4707 C   0  0  0  0  0  0  0  0  0  0  0  0
  147.6720  136.5990  178.8644 C   0  0  0  0  0  0  0  0  0  0  0  0
  146.8118  136.2307  178.1944 N   0  0  0  0  0  0  0  0  0  0  0  0
  157.2821  141.7683  182.5705 C   0  0  0  0  0  0  0  0  0  0  0  0
  157.6955  141.8417  184.0513 C   0  0  0  0  0  0  0  0  0  0  0  0
  157.6719  140.5121  182.1408 O   0  0  0  0  0  0  0  0  0  0  0  0
  157.8650  139.8819  182.8713 H   0  0  0  0  0  0  0  0  0  0  0  0
  158.1729  142.7443  181.8298 C   0  0  0  0  0  0  0  0  0  0  0  0
  159.4688  142.3276  181.7492 F   0  0  0  0  0  0  0  0  0  0  0  0
  158.1685  143.9866  182.4343 F   0  0  0  0  0  0  0  0  0  0  0  0
  157.6895  142.9224  180.5488 F   0  0  0  0  0  0  0  0  0  0  0  0
  1  2  1  0  0  0
  2  3  1  0  0  0
  3  4  1  0  0  0
  4  5  1  0  0  0
  5  6  1  0  0  0
  6  7  1  0  0  0
  7  8  1  0  0  0
  8  9  2  0  0  0
  8 12  1  0  0  0
 12 13  2  0  0  0
 13 14  1  0  0  0
 14 15  2  0  0  0
 15 16  1  0  0  0
 16 17  2  0  0  0
 15 18  1  0  0  0
 18 19  3  0  0  0
  4 10  1  0  0  0
 10 11  2  0  0  0
 10 20  1  0  0  0
 20 21  1  0  0  0
 20 22  1  0  0  0
 20 24  1  0  0  0
 24 25  1  0  0  0
 24 26  1  0  0  0
 24 27  1  0  0  0
  7  2  1  0  0  0
 17 12  1  0  0  0
 22 23  1  0  0  0
M  END
> <minimizedAffinity>
-5.64769

> <CNNscore>
0.3064733446

> <CNNaffinity>
5.1658654213

> <CNN_VS>
1.5832000971

> <CNNaffinity_variance>
0.1702747345

$$$$
[H]O[C@@](C(=O)N1C([H])([H])C([H])([H])N(C(=O)c2c([H])c([H])c(C#N)c([H])c2[H])[C@]([H])(C([H])([H])[H])C1([H])[H])(C([H])([H])[H])C(F)(F)F


 27 28  0  0  0  0  0  0  0  0999 V2000
  155.4744  138.3614  188.3175 C   0  0  0  0  0  0  0  0  0  0  0  0
  154.1291  138.3605  187.6448 C   0  0  0  0  0  0  0  0  0  0  0  0
  153.1647  137.6712  188.6371 C   0  0  0  0  0  0  0  0  0  0  0  0
  153.8171  136.4123  189.0230 N   0  0  0  0  0  0  0  0  0  0  0  0
  154.2340  135.5761  187.9325 C   0  0  0  0  0  0  0  0  0  0  0  0
  153.8326  136.1410  186.5885 C   0  0  0  0  0  0  0  0  0  0  0  0
  154.2038  137.5701  186.4565 N   0  0  0  0  0  0  0  0  0  0  0  0
  154.5873  137.9804  185.1970 C   0  0  0  0  0  0  0  0  0  0  0  0
  154.5262  136.9694  184.3224 O   0  0  0  0  0  0  0  0  0  0  0  0
  154.0065  136.0483  190.3590 C   0  0  0  0  0  0  0  0  0  0  0  0
  153.5748  136.8699  191.2428 O   0  0  0  0  0  0  0  0  0  0  0  0
  155.0283  139.2131  184.6115 C   0  0  0  0  0  0  0  0  0  0  0  0
  154.0949  139.9991  183.9068 C   0  0  0  0  0  0  0  0  0  0  0  0
  154.4110  141.1880  183.3025 C   0  0  0  0  0  0  0  0  0  0  0  0
  155.6955  141.6706  183.3658 C   0  0  0  0  0  0  0  0  0  0  0  0
  156.6471  140.9494  184.0376 C   0  0  0  0  0  0  0  0  0  0  0  0
  156.2814  139.7423  184.6392 C   0  0  0  0  0  0  0  0  0  0  0  0
  156.0153  142.9081  182.7345 C   0  0  0  0  0  0  0  0  0  0  0  0
  156.2898  143.9019  182.2232 N   0  0  0  0  0  0  0  0  0  0  0  0
  154.6423  134.8345  190.8230 C   0  0  0  0  0  0  0  0  0  0  0  0
  153.9671  134.4124  192.1403 C   0  0  0  0  0  0  0  0  0  0  0  0
  154.5617  133.7278  189.9963 O   0  0  0  0  0  0  0  0  0  0  0  0
  153.9079  133.0547  190.2922 H   0  0  0  0  0  0  0  0  0  0  0  0
  156.1156  135.0020  191.1331 C   0  0  0  0  0  0  0  0  0  0  0  0
  156.3454  135.8057  192.2105 F   0  0  0  0  0  0  0  0  0  0  0  0
  156.7976  135.5373  190.0574 F   0  0  0  0  0  0  0  0  0  0  0  0
  156.6734  133.7641  191.3830 F   0  0  0  0  0  0  0  0  0  0  0  0
  1  2  1  0  0  0
  2  3  1  0  0  0
  3  4  1  0  0  0
  4  5  1  0  0  0
  5  6  1  0  0  0
  6  7  1  0  0  0
  7  8  1  0  0  0
  8  9  2  0  0  0
  8 12  1  0  0  0
 12 13  2  0  0  0
 13 14  1  0  0  0
 14 15  2  0  0  0
 15 16  1  0  0  0
 16 17  2  0  0  0
 15 18  1  0  0  0
 18 19  3  0  0  0
  4 10  1  0  0  0
 10 11  2  0  0  0
 10 20  1  0  0  0
 20 21  1  0  0  0
 20 22  1  0  0  0
 20 24  1  0  0  0
 24 25  1  0  0  0
 24 26  1  0  0  0
 24 27  1  0  0  0
  7  2  1  0  0  0
 17 12  1  0  0  0
 22 23  1  0  0  0
M  END
> <minimizedAffinity>
-6.17364

> <CNNscore>
0.2992395759

> <CNNaffinity>
5.0244536400

> <CNN_VS>
1.5035153627

> <CNNaffinity_variance>
0.0902005732

$$$$
[H]O[C@@](C(=O)N1C([H])([H])C([H])([H])N(C(=O)c2c([H])c([H])c(C#N)c([H])c2[H])[C@]([H])(C([H])([H])[H])C1([H])[H])(C([H])([H])[H])C(F)(F)F


 27 28  0  0  0  0  0  0  0  0999 V2000
  155.9103  137.0657  187.8546 C   0  0  0  0  0  0  0  0  0  0  0  0
  154.4548  136.8902  187.5181 C   0  0  0  0  0  0  0  0  0  0  0  0
  153.8831  135.9529  188.6064 C   0  0  0  0  0  0  0  0  0  0  0  0
  154.7905  134.7983  188.6598 N   0  0  0  0  0  0  0  0  0  0  0  0
  155.0401  134.1534  187.4011 C   0  0  0  0  0  0  0  0  0  0  0  0
  154.2356  134.7609  186.2740 C   0  0  0  0  0  0  0  0  0  0  0  0
  154.3458  136.2391  186.2507 N   0  0  0  0  0  0  0  0  0  0  0  0
  154.3363  136.8255  185.0026 C   0  0  0  0  0  0  0  0  0  0  0  0
  154.2085  135.9052  184.0396 O   0  0  0  0  0  0  0  0  0  0  0  0
  155.3605  134.3510  189.8549 C   0  0  0  0  0  0  0  0  0  0  0  0
  155.0471  134.9981  190.9157 O   0  0  0  0  0  0  0  0  0  0  0  0
  154.4287  138.1655  184.5000 C   0  0  0  0  0  0  0  0  0  0  0  0
  153.4112  138.6400  183.6482 C   0  0  0  0  0  0  0  0  0  0  0  0
  153.4052  139.8988  183.1060 C   0  0  0  0  0  0  0  0  0  0  0  0
  154.4283  140.7719  183.3849 C   0  0  0  0  0  0  0  0  0  0  0  0
  155.4463  140.3663  184.2072 C   0  0  0  0  0  0  0  0  0  0  0  0
  155.4128  139.0742  184.7384 C   0  0  0  0  0  0  0  0  0  0  0  0
  154.4138  142.0791  182.8167 C   0  0  0  0  0  0  0  0  0  0  0  0
  154.4048  143.1413  182.3735 N   0  0  0  0  0  0  0  0  0  0  0  0
  156.2649  133.2305  189.9933 C   0  0  0  0  0  0  0  0  0  0  0  0
  155.9835  132.5508  191.3454 C   0  0  0  0  0  0  0  0  0  0  0  0
  156.1681  132.2247  189.0479 O   0  0  0  0  0  0  0  0  0  0  0  0
  155.7114  131.4153  189.3708 H   0  0  0  0  0  0  0  0  0  0  0  0
  157.7262  133.6294  190.0122 C   0  0  0  0  0  0  0  0  0  0  0  0
  158.5629  132.6041  189.6834 F   0  0  0  0  0  0  0  0  0  0  0  0
  158.1034  134.0960  191.2567 F   0  0  0  0  0  0  0  0  0  0  0  0
  157.9289  134.6636  189.1202 F   0  0  0  0  0  0  0  0  0  0  0  0
  1  2  1  0  0  0
  2  3  1  0  0  0
  3  4  1  0  0  0
  4  5  1  0  0  0
  5  6  1  0  0  0
  6  7  1  0  0  0
  7  8  1  0  0  0
  8  9  2  0  0  0
  8 12  1  0  0  0
 12 13  2  0  0  0
 13 14  1  0  0  0
 14 15  2  0  0  0
 15 16  1  0  0  0
 16 17  2  0  0  0
 15 18  1  0  0  0
 18 19  3  0  0  0
  4 10  1  0  0  0
 10 11  2  0  0  0
 10 20  1  0  0  0
 20 21  1  0  0  0
 20 22  1  0  0  0
 20 24  1  0  0  0
 24 25  1  0  0  0
 24 26  1  0  0  0
 24 27  1  0  0  0
  7  2  1  0  0  0
 17 12  1  0  0  0
 22 23  1  0  0  0
M  END
> <minimizedAffinity>
-5.27411

> <CNNscore>
0.2858019471

> <CNNaffinity>
4.8091249466

> <CNN_VS>
1.3744572401

> <CNNaffinity_variance>
0.2803817093

$$$$
[H]O[C@@](C(=O)N1C([H])([H])C([H])([H])N(C(=O)c2c([H])c([H])c(C#N)c([H])c2[H])[C@]([H])(C([H])([H])[H])C1([H])[H])(C([H])([H])[H])C(F)(F)F


 27 28  0  0  0  0  0  0  0  0999 V2000
  156.1678  138.0246  187.3649 C   0  0  0  0  0  0  0  0  0  0  0  0
  154.6866  138.0152  187.1036 C   0  0  0  0  0  0  0  0  0  0  0  0
  154.0628  137.1959  188.2566 C   0  0  0  0  0  0  0  0  0  0  0  0
  154.8269  135.9422  188.3183 N   0  0  0  0  0  0  0  0  0  0  0  0
  154.9331  135.2250  187.0787 C   0  0  0  0  0  0  0  0  0  0  0  0
  154.1508  135.8832  185.9645 C   0  0  0  0  0  0  0  0  0  0  0  0
  154.4360  137.3351  185.8719 N   0  0  0  0  0  0  0  0  0  0  0  0
  154.4333  137.8710  184.6014 C   0  0  0  0  0  0  0  0  0  0  0  0
  154.1474  136.9376  183.6861 O   0  0  0  0  0  0  0  0  0  0  0  0
  155.3992  135.4740  189.5042 C   0  0  0  0  0  0  0  0  0  0  0  0
  155.2201  136.1938  190.5493 O   0  0  0  0  0  0  0  0  0  0  0  0
  154.6599  139.1700  184.0373 C   0  0  0  0  0  0  0  0  0  0  0  0
  155.9229  139.7708  184.2088 C   0  0  0  0  0  0  0  0  0  0  0  0
  156.2432  141.0103  183.7193 C   0  0  0  0  0  0  0  0  0  0  0  0
  155.3093  141.7349  183.0195 C   0  0  0  0  0  0  0  0  0  0  0  0
  154.0628  141.2020  182.8211 C   0  0  0  0  0  0  0  0  0  0  0  0
  153.7788  139.9350  183.3376 C   0  0  0  0  0  0  0  0  0  0  0  0
  155.6511  143.0231  182.5138 C   0  0  0  0  0  0  0  0  0  0  0  0
  155.9433  144.0580  182.1037 N   0  0  0  0  0  0  0  0  0  0  0  0
  156.1688  134.2577  189.6494 C   0  0  0  0  0  0  0  0  0  0  0  0
  156.2359  133.9082  191.1469 C   0  0  0  0  0  0  0  0  0  0  0  0
  155.6750  133.1242  189.0281 O   0  0  0  0  0  0  0  0  0  0  0  0
  155.2488  132.4850  189.6427 H   0  0  0  0  0  0  0  0  0  0  0  0
  157.6022  134.3869  189.1766 C   0  0  0  0  0  0  0  0  0  0  0  0
  158.5073  133.9289  190.0879 F   0  0  0  0  0  0  0  0  0  0  0  0
  157.9209  135.7010  188.8929 F   0  0  0  0  0  0  0  0  0  0  0  0
  157.7625  133.6756  188.0043 F   0  0  0  0  0  0  0  0  0  0  0  0
  1  2  1  0  0  0
  2  3  1  0  0  0
  3  4  1  0  0  0
  4  5  1  0  0  0
  5  6  1  0  0  0
  6  7  1  0  0  0
  7  8  1  0  0  0
  8  9  2  0  0  0
  8 12  1  0  0  0
 12 13  2  0  0  0
 13 14  1  0  0  0
 14 15  2  0  0  0
 15 16  1  0  0  0
 16 17  2  0  0  0
 15 18  1  0  0  0
 18 19  3  0  0  0
  4 10  1  0  0  0
 10 11  2  0  0  0
 10 20  1  0  0  0
 20 21  1  0  0  0
 20 22  1  0  0  0
 20 24  1  0  0  0
 24 25  1  0  0  0
 24 26  1  0  0  0
 24 27  1  0  0  0
  7  2  1  0  0  0
 17 12  1  0  0  0
 22 23  1  0  0  0
M  END
> <minimizedAffinity>
-6.05882

> <CNNscore>
0.2709127367

> <CNNaffinity>
4.9719796181

> <CNN_VS>
1.3469725847

> <CNNaffinity_variance>
0.1272174120

$$$$
[H]Oc1c([H])c2c(C(F)(F)F)c([H])c1-c1c([H])c([H])c(c([H])c1C#N)N(c1c([H])nc([H])c([H])c1C([H])([H])[H])N(c1c([H])c([H])c(OC([H])([H])C([H])([H])C([H])([H])C([H])([H])C([H])([H])C([H])([H])[H])c([N+](=O)[O-])c1[H])C2=O


 47 51  0  0  0  0  0  0  0  0999 V2000
  149.1617  135.0529  187.2711 N   0  0  0  0  0  0  0  0  0  0  0  0
  149.8443  135.8182  188.3659 C   0  0  0  0  0  0  0  0  0  0  0  0
  150.6864  136.9530  187.8627 O   0  0  0  0  0  0  0  0  0  0  0  0
  149.5951  135.2862  190.4223 C   0  0  0  0  0  0  0  0  0  0  0  0
  148.7302  134.2393  189.7854 C   0  0  0  0  0  0  0  0  0  0  0  0
  148.0170  133.2340  190.6403 C   0  0  0  0  0  0  0  0  0  0  0  0
  147.1520  132.1870  190.0034 O   0  0  0  0  0  0  0  0  0  0  0  0
  148.1687  133.2758  192.1320 C   0  0  0  0  0  0  0  0  0  0  0  0
  149.0336  134.3228  192.7689 C   0  0  0  0  0  0  0  0  0  0  0  0
  149.7469  135.3280  191.9140 C   0  0  0  0  0  0  0  0  0  0  0  0
  147.3384  132.2864  191.3692 C   0  0  0  0  0  0  0  0  0  0  0  0
  146.8589  131.8072  190.0312 C   0  0  0  0  0  0  0  0  0  0  0  0
  146.8824  131.9905  188.5426 C   0  0  0  0  0  0  0  0  0  0  0  0
  147.4014  132.7779  187.3761 C   0  0  0  0  0  0  0  0  0  0  0  0
  147.8809  133.2571  188.7142 C   0  0  0  0  0  0  0  0  0  0  0  0
  147.8574  133.0738  190.2028 C   0  0  0  0  0  0  0  0  0  0  0  0
  148.2511  133.9196  186.9021 N   0  0  0  0  0  0  0  0  0  0  0  0
  146.4388  131.1817  190.8582 H   0  0  0  0  0  0  0  0  0  0  0  0
  148.1429  133.9343  185.4061 C   0  0  0  0  0  0  0  0  0  0  0  0
  147.1000  134.7802  184.7378 C   0  0  0  0  0  0  0  0  0  0  0  0
  146.9918  134.7949  183.2418 N   0  0  0  0  0  0  0  0  0  0  0  0
  147.9266  133.9636  182.4140 C   0  0  0  0  0  0  0  0  0  0  0  0
  148.9695  133.1177  183.0824 C   0  0  0  0  0  0  0  0  0  0  0  0
  149.0777  133.1030  184.5784 C   0  0  0  0  0  0  0  0  0  0  0  0
  150.1206  132.2570  185.2466 C   0  0  0  0  0  0  0  0  0  0  0  0
  150.3765  137.0130  183.4068 C   0  0  0  0  0  0  0  0  0  0  0  0
  151.2695  135.9881  184.0411 C   0  0  0  0  0  0  0  0  0  0  0  0
  150.8646  135.3347  185.3292 C   0  0  0  0  0  0  0  0  0  0  0  0
  149.5667  135.7062  185.9830 C   0  0  0  0  0  0  0  0  0  0  0  0
  148.6737  136.7311  185.3487 C   0  0  0  0  0  0  0  0  0  0  0  0
  149.0787  137.3844  184.0606 C   0  0  0  0  0  0  0  0  0  0  0  0
  148.1857  138.4093  183.4264 N   0  0  0  0  0  0  0  0  0  0  0  0
  147.4114  138.0662  182.1883 O   0  0  0  0  0  0  0  0  0  0  0  0
  147.8375  139.8319  183.7506 O   0  0  0  0  0  0  0  0  0  0  0  0
  150.7815  137.6663  182.1187 O   0  0  0  0  0  0  0  0  0  0  0  0
  151.7726  138.7921  182.1279 C   0  0  0  0  0  0  0  0  0  0  0  0
  152.7637  139.9180  182.1371 C   0  0  0  0  0  0  0  0  0  0  0  0
  153.7547  141.0440  182.1463 C   0  0  0  0  0  0  0  0  0  0  0  0
  154.7457  142.1699  182.1555 C   0  0  0  0  0  0  0  0  0  0  0  0
  156.7278  144.4218  182.1739 C   0  0  0  0  0  0  0  0  0  0  0  0
  155.7368  143.2959  182.1647 C   0  0  0  0  0  0  0  0  0  0  0  0
  150.6118  136.3750  192.5509 C   0  0  0  0  0  0  0  0  0  0  0  0
  151.4768  137.4220  193.1878 F   0  0  0  0  0  0  0  0  0  0  0  0
  151.3049  136.6000  191.2398 F   0  0  0  0  0  0  0  0  0  0  0  0
  149.9188  136.1501  193.8620 F   0  0  0  0  0  0  0  0  0  0  0  0
  148.7368  134.1461  190.7745 C   0  0  0  0  0  0  0  0  0  0  0  0
  149.6551  135.3115  190.9947 N   0  0  0  0  0  0  0  0  0  0  0  0
 40 41  1  0  0  0
 41 39  1  0  0  0
 39 38  1  0  0  0
 38 37  1  0  0  0
 37 36  1  0  0  0
 36 35  1  0  0  0
 35 26  1  0  0  0
 26 27  2  0  0  0
 27 28  1  0  0  0
 28 29  2  0  0  0
 29 30  1  0  0  0
 30 31  2  0  0  0
 31 32  1  0  0  0
 32 33  2  0  0  0
 32 34  1  0  0  0
 29  1  1  0  0  0
  1  2  1  0  0  0
  2  3  2  0  0  0
  2  4  1  0  0  0
  4  5  2  0  0  0
  5  6  1  0  0  0
  6  7  1  0  0  0
  6  8  2  0  0  0
  8  9  1  0  0  0
  9 10  2  0  0  0
 10 42  1  0  0  0
 42 43  1  0  0  0
 42 44  1  0  0  0
 42 45  1  0  0  0
  8 11  1  0  0  0
 11 12  2  0  0  0
 12 13  1  0  0  0
 13 14  2  0  0  0
 14 15  1  0  0  0
 15 16  2  0  0  0
 16 46  1  0  0  0
 46 47  3  0  0  0
 14 17  1  0  0  0
 17 19  1  0  0  0
 19 20  2  0  0  0
 20 21  1  0  0  0
 21 22  2  0  0  0
 22 23  1  0  0  0
 23 24  2  0  0  0
 24 25  1  0  0  0
 31 26  1  0  0  0
 17  1  1  0  0  0
 24 19  1  0  0  0
 10  4  1  0  0  0
 16 11  1  0  0  0
  7 18  1  0  0  0
M  CHG 1  32   1
M  CHG 1  34  -1
M  END
> <minimizedAffinity>
-5.55970

> <CNNscore>
0.4543306530

> <CNNaffinity>
7.2467675209

> <CNN_VS>
3.2924287319

> <CNNaffinity_variance>
1.2267072201

$$$$
[H]Oc1c([H])c2c(C(F)(F)F)c([H])c1-c1c([H])c([H])c(c([H])c1C#N)N(c1c([H])nc([H])c([H])c1C([H])([H])[H])N(c1c([H])c([H])c(OC([H])([H])C([H])([H])C([H])([H])C([H])([H])C([H])([H])C([H])([H])[H])c([N+](=O)[O-])c1[H])C2=O


 47 51  0  0  0  0  0  0  0  0999 V2000
  151.4072  135.0333  183.0229 N   0  0  0  0  0  0  0  0  0  0  0  0
  150.6325  136.2016  182.4889 C   0  0  0  0  0  0  0  0  0  0  0  0
  151.0807  137.5188  183.0492 O   0  0  0  0  0  0  0  0  0  0  0  0
  149.0551  135.9394  181.0685 C   0  0  0  0  0  0  0  0  0  0  0  0
  149.4685  134.5092  181.2517 C   0  0  0  0  0  0  0  0  0  0  0  0
  148.7642  133.4222  180.4952 C   0  0  0  0  0  0  0  0  0  0  0  0
  149.1775  131.9919  180.6784 O   0  0  0  0  0  0  0  0  0  0  0  0
  147.6465  133.7654  179.5555 C   0  0  0  0  0  0  0  0  0  0  0  0
  147.2332  135.1956  179.3723 C   0  0  0  0  0  0  0  0  0  0  0  0
  147.9375  136.2826  180.1288 C   0  0  0  0  0  0  0  0  0  0  0  0
  148.1580  132.3824  179.8310 C   0  0  0  0  0  0  0  0  0  0  0  0
  149.1331  131.5237  180.5803 C   0  0  0  0  0  0  0  0  0  0  0  0
  150.2624  131.4617  181.5657 C   0  0  0  0  0  0  0  0  0  0  0  0
  151.1872  132.2162  182.4742 C   0  0  0  0  0  0  0  0  0  0  0  0
  150.2121  133.0750  181.7249 C   0  0  0  0  0  0  0  0  0  0  0  0
  149.0828  133.1370  180.7395 C   0  0  0  0  0  0  0  0  0  0  0  0
  151.6140  133.5477  183.0175 N   0  0  0  0  0  0  0  0  0  0  0  0
  148.4732  130.9049  179.9219 H   0  0  0  0  0  0  0  0  0  0  0  0
  152.7384  133.2740  183.9718 C   0  0  0  0  0  0  0  0  0  0  0  0
  154.1601  133.4339  183.5214 C   0  0  0  0  0  0  0  0  0  0  0  0
  155.2845  133.1602  184.4758 N   0  0  0  0  0  0  0  0  0  0  0  0
  154.9871  132.7267  185.8807 C   0  0  0  0  0  0  0  0  0  0  0  0
  153.5652  132.5668  186.3311 C   0  0  0  0  0  0  0  0  0  0  0  0
  152.4409  132.8405  185.3767 C   0  0  0  0  0  0  0  0  0  0  0  0
  151.0191  132.6806  185.8271 C   0  0  0  0  0  0  0  0  0  0  0  0
  154.4307  136.7238  185.8954 C   0  0  0  0  0  0  0  0  0  0  0  0
  154.7169  136.7174  184.4229 C   0  0  0  0  0  0  0  0  0  0  0  0
  153.7090  136.1539  183.4654 C   0  0  0  0  0  0  0  0  0  0  0  0
  152.4150  135.5968  183.9803 C   0  0  0  0  0  0  0  0  0  0  0  0
  152.1288  135.6032  185.4528 C   0  0  0  0  0  0  0  0  0  0  0  0
  153.1367  136.1667  186.4102 C   0  0  0  0  0  0  0  0  0  0  0  0
  152.8504  136.1730  187.8828 N   0  0  0  0  0  0  0  0  0  0  0  0
  152.5711  134.8845  188.5980 O   0  0  0  0  0  0  0  0  0  0  0  0
  152.7647  137.2502  188.9230 O   0  0  0  0  0  0  0  0  0  0  0  0
  155.4385  137.2873  186.8528 O   0  0  0  0  0  0  0  0  0  0  0  0
  156.3290  138.4163  186.4260 C   0  0  0  0  0  0  0  0  0  0  0  0
  157.2195  139.5454  185.9991 C   0  0  0  0  0  0  0  0  0  0  0  0
  158.1100  140.6744  185.5722 C   0  0  0  0  0  0  0  0  0  0  0  0
  159.0006  141.8034  185.1453 C   0  0  0  0  0  0  0  0  0  0  0  0
  160.7817  144.0615  184.2916 C   0  0  0  0  0  0  0  0  0  0  0  0
  159.8911  142.9324  184.7185 C   0  0  0  0  0  0  0  0  0  0  0  0
  147.5241  137.7129  179.9457 C   0  0  0  0  0  0  0  0  0  0  0  0
  147.1108  139.1431  179.7626 F   0  0  0  0  0  0  0  0  0  0  0  0
  147.2324  137.4434  178.4992 F   0  0  0  0  0  0  0  0  0  0  0  0
  147.8158  137.9824  181.3921 F   0  0  0  0  0  0  0  0  0  0  0  0
  148.7199  134.5861  180.6031 C   0  0  0  0  0  0  0  0  0  0  0  0
  148.6397  136.0811  180.6942 N   0  0  0  0  0  0  0  0  0  0  0  0
 40 41  1  0  0  0
 41 39  1  0  0  0
 39 38  1  0  0  0
 38 37  1  0  0  0
 37 36  1  0  0  0
 36 35  1  0  0  0
 35 26  1  0  0  0
 26 27  2  0  0  0
 27 28  1  0  0  0
 28 29  2  0  0  0
 29 30  1  0  0  0
 30 31  2  0  0  0
 31 32  1  0  0  0
 32 33  2  0  0  0
 32 34  1  0  0  0
 29  1  1  0  0  0
  1  2  1  0  0  0
  2  3  2  0  0  0
  2  4  1  0  0  0
  4  5  2  0  0  0
  5  6  1  0  0  0
  6  7  1  0  0  0
  6  8  2  0  0  0
  8  9  1  0  0  0
  9 10  2  0  0  0
 10 42  1  0  0  0
 42 43  1  0  0  0
 42 44  1  0  0  0
 42 45  1  0  0  0
  8 11  1  0  0  0
 11 12  2  0  0  0
 12 13  1  0  0  0
 13 14  2  0  0  0
 14 15  1  0  0  0
 15 16  2  0  0  0
 16 46  1  0  0  0
 46 47  3  0  0  0
 14 17  1  0  0  0
 17 19  1  0  0  0
 19 20  2  0  0  0
 20 21  1  0  0  0
 21 22  2  0  0  0
 22 23  1  0  0  0
 23 24  2  0  0  0
 24 25  1  0  0  0
 31 26  1  0  0  0
 17  1  1  0  0  0
 24 19  1  0  0  0
 10  4  1  0  0  0
 16 11  1  0  0  0
  7 18  1  0  0  0
M  CHG 1  32   1
M  CHG 1  34  -1
M  END
> <minimizedAffinity>
-3.51741

> <CNNscore>
0.3506267965

> <CNNaffinity>
6.7251801491

> <CNN_VS>
2.3580284119

> <CNNaffinity_variance>
0.8420515060

$$$$
[H]Oc1c([H])c2c(C(F)(F)F)c([H])c1-c1c([H])c([H])c(c([H])c1C#N)N(c1c([H])nc([H])c([H])c1C([H])([H])[H])N(c1c([H])c([H])c(OC([H])([H])C([H])([H])C([H])([H])C([H])([H])C([H])([H])C([H])([H])[H])c([N+](=O)[O-])c1[H])C2=O


 47 51  0  0  0  0  0  0  0  0999 V2000
  154.4122  132.7290  188.8792 N   0  0  0  0  0  0  0  0  0  0  0  0
  155.6512  133.1778  188.1625 C   0  0  0  0  0  0  0  0  0  0  0  0
  155.3723  133.8097  186.8309 O   0  0  0  0  0  0  0  0  0  0  0  0
  157.5936  132.9105  189.0167 C   0  0  0  0  0  0  0  0  0  0  0  0
  156.7552  132.3101  190.1061 C   0  0  0  0  0  0  0  0  0  0  0  0
  157.4094  131.7569  191.3373 C   0  0  0  0  0  0  0  0  0  0  0  0
  156.5711  131.1564  192.4267 O   0  0  0  0  0  0  0  0  0  0  0  0
  158.9020  131.8040  191.4792 C   0  0  0  0  0  0  0  0  0  0  0  0
  159.7403  132.4044  190.3898 C   0  0  0  0  0  0  0  0  0  0  0  0
  159.0861  132.9577  189.1586 C   0  0  0  0  0  0  0  0  0  0  0  0
  157.9496  131.2341  192.4883 C   0  0  0  0  0  0  0  0  0  0  0  0
  156.5245  130.9428  192.8545 C   0  0  0  0  0  0  0  0  0  0  0  0
  155.0791  131.0225  192.4616 C   0  0  0  0  0  0  0  0  0  0  0  0
  154.0723  131.4480  191.4344 C   0  0  0  0  0  0  0  0  0  0  0  0
  155.4973  131.7393  191.0681 C   0  0  0  0  0  0  0  0  0  0  0  0
  156.9428  131.6596  191.4610 C   0  0  0  0  0  0  0  0  0  0  0  0
  153.8236  132.0841  190.0989 N   0  0  0  0  0  0  0  0  0  0  0  0
  157.2253  130.6032  193.6579 H   0  0  0  0  0  0  0  0  0  0  0  0
  152.3378  132.0687  189.8934 C   0  0  0  0  0  0  0  0  0  0  0  0
  151.7057  130.9857  189.0704 C   0  0  0  0  0  0  0  0  0  0  0  0
  150.2200  130.9703  188.8649 N   0  0  0  0  0  0  0  0  0  0  0  0
  149.3663  132.0380  189.4825 C   0  0  0  0  0  0  0  0  0  0  0  0
  149.9985  133.1210  190.3056 C   0  0  0  0  0  0  0  0  0  0  0  0
  151.4843  133.1364  190.5110 C   0  0  0  0  0  0  0  0  0  0  0  0
  152.1163  134.2194  191.3341 C   0  0  0  0  0  0  0  0  0  0  0  0
  150.9499  133.7729  186.2010 C   0  0  0  0  0  0  0  0  0  0  0  0
  151.6689  132.4684  186.0233 C   0  0  0  0  0  0  0  0  0  0  0  0
  152.8230  132.1204  186.9161 C   0  0  0  0  0  0  0  0  0  0  0  0
  153.2582  133.0769  187.9865 C   0  0  0  0  0  0  0  0  0  0  0  0
  152.5392  134.3814  188.1641 C   0  0  0  0  0  0  0  0  0  0  0  0
  151.3852  134.7293  187.2714 C   0  0  0  0  0  0  0  0  0  0  0  0
  150.6663  136.0339  187.4491 N   0  0  0  0  0  0  0  0  0  0  0  0
  151.3338  137.3179  187.0542 O   0  0  0  0  0  0  0  0  0  0  0  0
  149.3141  136.4155  187.9742 O   0  0  0  0  0  0  0  0  0  0  0  0
  149.7959  134.1208  185.3082 O   0  0  0  0  0  0  0  0  0  0  0  0
  149.9615  135.1594  184.2387 C   0  0  0  0  0  0  0  0  0  0  0  0
  150.1273  136.1979  183.1691 C   0  0  0  0  0  0  0  0  0  0  0  0
  150.2930  137.2365  182.0996 C   0  0  0  0  0  0  0  0  0  0  0  0
  150.4588  138.2751  181.0301 C   0  0  0  0  0  0  0  0  0  0  0  0
  150.7904  140.3522  178.8911 C   0  0  0  0  0  0  0  0  0  0  0  0
  150.6246  139.3136  179.9606 C   0  0  0  0  0  0  0  0  0  0  0  0
  159.9244  133.5581  188.0692 C   0  0  0  0  0  0  0  0  0  0  0  0
  160.7627  134.1585  186.9799 F   0  0  0  0  0  0  0  0  0  0  0  0
  159.9523  132.2357  187.3618 F   0  0  0  0  0  0  0  0  0  0  0  0
  159.8965  134.8805  188.7766 F   0  0  0  0  0  0  0  0  0  0  0  0
  157.7212  132.2733  190.3351 C   0  0  0  0  0  0  0  0  0  0  0  0
  158.1863  133.0657  189.1495 N   0  0  0  0  0  0  0  0  0  0  0  0
 40 41  1  0  0  0
 41 39  1  0  0  0
 39 38  1  0  0  0
 38 37  1  0  0  0
 37 36  1  0  0  0
 36 35  1  0  0  0
 35 26  1  0  0  0
 26 27  2  0  0  0
 27 28  1  0  0  0
 28 29  2  0  0  0
 29 30  1  0  0  0
 30 31  2  0  0  0
 31 32  1  0  0  0
 32 33  2  0  0  0
 32 34  1  0  0  0
 29  1  1  0  0  0
  1  2  1  0  0  0
  2  3  2  0  0  0
  2  4  1  0  0  0
  4  5  2  0  0  0
  5  6  1  0  0  0
  6  7  1  0  0  0
  6  8  2  0  0  0
  8  9  1  0  0  0
  9 10  2  0  0  0
 10 42  1  0  0  0
 42 43  1  0  0  0
 42 44  1  0  0  0
 42 45  1  0  0  0
  8 11  1  0  0  0
 11 12  2  0  0  0
 12 13  1  0  0  0
 13 14  2  0  0  0
 14 15  1  0  0  0
 15 16  2  0  0  0
 16 46  1  0  0  0
 46 47  3  0  0  0
 14 17  1  0  0  0
 17 19  1  0  0  0
 19 20  2  0  0  0
 20 21  1  0  0  0
 21 22  2  0  0  0
 22 23  1  0  0  0
 23 24  2  0  0  0
 24 25  1  0  0  0
 31 26  1  0  0  0
 17  1  1  0  0  0
 24 19  1  0  0  0
 10  4  1  0  0  0
 16 11  1  0  0  0
  7 18  1  0  0  0
M  CHG 1  32   1
M  CHG 1  34  -1
M  END
> <minimizedAffinity>
-4.03913

> <CNNscore>
0.3434465230

> <CNNaffinity>
6.5831117630

> <CNN_VS>
2.2609467506

> <CNNaffinity_variance>
0.3362239599

$$$$
[H]Oc1c([H])c2c(C(F)(F)F)c([H])c1-c1c([H])c([H])c(c([H])c1C#N)N(c1c([H])nc([H])c([H])c1C([H])([H])[H])N(c1c([H])c([H])c(OC([H])([H])C([H])([H])C([H])([H])C([H])([H])C([H])([H])C([H])([H])[H])c([N+](=O)[O-])c1[H])C2=O


 47 51  0  0  0  0  0  0  0  0999 V2000
  150.9999  134.3381  181.7511 N   0  0  0  0  0  0  0  0  0  0  0  0
  151.9282  133.8576  180.6752 C   0  0  0  0  0  0  0  0  0  0  0  0
  153.3769  134.0706  181.0006 O   0  0  0  0  0  0  0  0  0  0  0  0
  151.1872  132.9655  178.8782 C   0  0  0  0  0  0  0  0  0  0  0  0
  149.8880  133.2482  179.5726 C   0  0  0  0  0  0  0  0  0  0  0  0
  148.5908  132.8814  178.9148 C   0  0  0  0  0  0  0  0  0  0  0  0
  147.2915  133.1641  179.6091 O   0  0  0  0  0  0  0  0  0  0  0  0
  148.5928  132.2320  177.5626 C   0  0  0  0  0  0  0  0  0  0  0  0
  149.8920  131.9493  176.8683 C   0  0  0  0  0  0  0  0  0  0  0  0
  151.1892  132.3161  177.5261 C   0  0  0  0  0  0  0  0  0  0  0  0
  147.3705  132.5692  178.3642 C   0  0  0  0  0  0  0  0  0  0  0  0
  146.8115  133.1540  179.6272 C   0  0  0  0  0  0  0  0  0  0  0  0
  147.0933  133.8009  180.9509 C   0  0  0  0  0  0  0  0  0  0  0  0
  148.1263  134.3044  181.9150 C   0  0  0  0  0  0  0  0  0  0  0  0
  148.6853  133.7195  180.6519 C   0  0  0  0  0  0  0  0  0  0  0  0
  148.4035  133.0727  179.3282 C   0  0  0  0  0  0  0  0  0  0  0  0
  149.5826  134.5046  182.2133 N   0  0  0  0  0  0  0  0  0  0  0  0
  145.9944  132.7973  178.9513 H   0  0  0  0  0  0  0  0  0  0  0  0
  149.6520  135.1556  183.5629 C   0  0  0  0  0  0  0  0  0  0  0  0
  149.9053  134.3235  184.7848 C   0  0  0  0  0  0  0  0  0  0  0  0
  149.9747  134.9744  186.1344 N   0  0  0  0  0  0  0  0  0  0  0  0
  149.7907  136.4577  186.2620 C   0  0  0  0  0  0  0  0  0  0  0  0
  149.5374  137.2898  185.0400 C   0  0  0  0  0  0  0  0  0  0  0  0
  149.4681  136.6388  183.6904 C   0  0  0  0  0  0  0  0  0  0  0  0
  149.2148  137.4710  182.4685 C   0  0  0  0  0  0  0  0  0  0  0  0
  153.6038  136.0094  185.0186 C   0  0  0  0  0  0  0  0  0  0  0  0
  153.0829  136.9116  183.9393 C   0  0  0  0  0  0  0  0  0  0  0  0
  152.2149  136.3545  182.8501 C   0  0  0  0  0  0  0  0  0  0  0  0
  151.8678  134.8952  182.8402 C   0  0  0  0  0  0  0  0  0  0  0  0
  152.3887  133.9931  183.9195 C   0  0  0  0  0  0  0  0  0  0  0  0
  153.2567  134.5502  185.0086 C   0  0  0  0  0  0  0  0  0  0  0  0
  153.7776  133.6479  186.0879 N   0  0  0  0  0  0  0  0  0  0  0  0
  155.2307  133.2769  186.1189 O   0  0  0  0  0  0  0  0  0  0  0  0
  153.1489  132.9546  187.2602 O   0  0  0  0  0  0  0  0  0  0  0  0
  154.4718  136.5665  186.1077 O   0  0  0  0  0  0  0  0  0  0  0  0
  154.0592  136.4232  187.5428 C   0  0  0  0  0  0  0  0  0  0  0  0
  153.6466  136.2798  188.9777 C   0  0  0  0  0  0  0  0  0  0  0  0
  153.2340  136.1364  190.4127 C   0  0  0  0  0  0  0  0  0  0  0  0
  152.8213  135.9929  191.8476 C   0  0  0  0  0  0  0  0  0  0  0  0
  151.9959  135.7060  194.7175 C   0  0  0  0  0  0  0  0  0  0  0  0
  152.4086  135.8495  193.2826 C   0  0  0  0  0  0  0  0  0  0  0  0
  152.4885  132.0334  176.8317 C   0  0  0  0  0  0  0  0  0  0  0  0
  153.7877  131.7507  176.1375 F   0  0  0  0  0  0  0  0  0  0  0  0
  152.1908  133.1138  175.8347 F   0  0  0  0  0  0  0  0  0  0  0  0
  152.7862  130.9530  177.8288 F   0  0  0  0  0  0  0  0  0  0  0  0
  149.7369  132.8182  178.6898 C   0  0  0  0  0  0  0  0  0  0  0  0
  151.1969  132.6859  178.3721 N   0  0  0  0  0  0  0  0  0  0  0  0
 40 41  1  0  0  0
 41 39  1  0  0  0
 39 38  1  0  0  0
 38 37  1  0  0  0
 37 36  1  0  0  0
 36 35  1  0  0  0
 35 26  1  0  0  0
 26 27  2  0  0  0
 27 28  1  0  0  0
 28 29  2  0  0  0
 29 30  1  0  0  0
 30 31  2  0  0  0
 31 32  1  0  0  0
 32 33  2  0  0  0
 32 34  1  0  0  0
 29  1  1  0  0  0
  1  2  1  0  0  0
  2  3  2  0  0  0
  2  4  1  0  0  0
  4  5  2  0  0  0
  5  6  1  0  0  0
  6  7  1  0  0  0
  6  8  2  0  0  0
  8  9  1  0  0  0
  9 10  2  0  0  0
 10 42  1  0  0  0
 42 43  1  0  0  0
 42 44  1  0  0  0
 42 45  1  0  0  0
  8 11  1  0  0  0
 11 12  2  0  0  0
 12 13  1  0  0  0
 13 14  2  0  0  0
 14 15  1  0  0  0
 15 16  2  0  0  0
 16 46  1  0  0  0
 46 47  3  0  0  0
 14 17  1  0  0  0
 17 19  1  0  0  0
 19 20  2  0  0  0
 20 21  1  0  0  0
 21 22  2  0  0  0
 22 23  1  0  0  0
 23 24  2  0  0  0
 24 25  1  0  0  0
 31 26  1  0  0  0
 17  1  1  0  0  0
 24 19  1  0  0  0
 10  4  1  0  0  0
 16 11  1  0  0  0
  7 18  1  0  0  0
M  CHG 1  32   1
M  CHG 1  34  -1
M  END
> <minimizedAffinity>
-3.63894

> <CNNscore>
0.3381998241

> <CNNaffinity>
6.6916899681

> <CNN_VS>
2.2631282806

> <CNNaffinity_variance>
0.4105875492

$$$$
[H]Oc1c([H])c2c(C(F)(F)F)c([H])c1-c1c([H])c([H])c(c([H])c1C#N)N(c1c([H])nc([H])c([H])c1C([H])([H])[H])N(c1c([H])c([H])c(OC([H])([H])C([H])([H])C([H])([H])C([H])([H])C([H])([H])C([H])([H])[H])c([N+](=O)[O-])c1[H])C2=O


 47 51  0  0  0  0  0  0  0  0999 V2000
  149.7298  134.9115  188.1739 N   0  0  0  0  0  0  0  0  0  0  0  0
  150.4785  135.7143  189.1962 C   0  0  0  0  0  0  0  0  0  0  0  0
  151.4317  136.7037  188.5941 O   0  0  0  0  0  0  0  0  0  0  0  0
  150.1660  135.4227  191.2918 C   0  0  0  0  0  0  0  0  0  0  0  0
  149.2053  134.4057  190.7506 C   0  0  0  0  0  0  0  0  0  0  0  0
  148.3911  133.5680  191.6915 C   0  0  0  0  0  0  0  0  0  0  0  0
  147.4304  132.5510  191.1503 O   0  0  0  0  0  0  0  0  0  0  0  0
  148.5376  133.7472  193.1735 C   0  0  0  0  0  0  0  0  0  0  0  0
  149.4983  134.7642  193.7147 C   0  0  0  0  0  0  0  0  0  0  0  0
  150.3124  135.6019  192.7738 C   0  0  0  0  0  0  0  0  0  0  0  0
  147.6179  132.7710  192.5018 C   0  0  0  0  0  0  0  0  0  0  0  0
  147.1010  132.2066  191.2118 C   0  0  0  0  0  0  0  0  0  0  0  0
  147.1512  132.2333  189.7128 C   0  0  0  0  0  0  0  0  0  0  0  0
  147.7523  132.8425  188.4810 C   0  0  0  0  0  0  0  0  0  0  0  0
  148.2691  133.4069  189.7710 C   0  0  0  0  0  0  0  0  0  0  0  0
  148.2190  133.3802  191.2700 C   0  0  0  0  0  0  0  0  0  0  0  0
  148.7136  133.8409  187.9073 N   0  0  0  0  0  0  0  0  0  0  0  0
  146.6162  131.7133  192.0912 H   0  0  0  0  0  0  0  0  0  0  0  0
  148.6160  133.7129  186.4159 C   0  0  0  0  0  0  0  0  0  0  0  0
  147.7149  134.6287  185.6419 C   0  0  0  0  0  0  0  0  0  0  0  0
  147.6174  134.5006  184.1506 N   0  0  0  0  0  0  0  0  0  0  0  0
  148.4210  133.4567  183.4333 C   0  0  0  0  0  0  0  0  0  0  0  0
  149.3221  132.5409  184.2074 C   0  0  0  0  0  0  0  0  0  0  0  0
  149.4196  132.6690  185.6987 C   0  0  0  0  0  0  0  0  0  0  0  0
  150.3208  131.7532  186.4727 C   0  0  0  0  0  0  0  0  0  0  0  0
  151.1553  136.3370  184.1507 C   0  0  0  0  0  0  0  0  0  0  0  0
  149.9662  136.9834  184.7974 C   0  0  0  0  0  0  0  0  0  0  0  0
  149.4910  136.5083  186.1385 C   0  0  0  0  0  0  0  0  0  0  0  0
  150.2049  135.3866  186.8329 C   0  0  0  0  0  0  0  0  0  0  0  0
  151.3940  134.7402  186.1862 C   0  0  0  0  0  0  0  0  0  0  0  0
  151.8691  135.2153  184.8451 C   0  0  0  0  0  0  0  0  0  0  0  0
  153.0583  134.5688  184.1985 N   0  0  0  0  0  0  0  0  0  0  0  0
  153.1324  133.0746  184.0890 O   0  0  0  0  0  0  0  0  0  0  0  0
  154.3165  135.0921  183.5717 O   0  0  0  0  0  0  0  0  0  0  0  0
  151.6304  136.8121  182.8096 O   0  0  0  0  0  0  0  0  0  0  0  0
  152.4381  138.0716  182.7032 C   0  0  0  0  0  0  0  0  0  0  0  0
  153.2458  139.3311  182.5968 C   0  0  0  0  0  0  0  0  0  0  0  0
  154.0534  140.5906  182.4903 C   0  0  0  0  0  0  0  0  0  0  0  0
  154.8610  141.8501  182.3839 C   0  0  0  0  0  0  0  0  0  0  0  0
  156.4762  144.3692  182.1711 C   0  0  0  0  0  0  0  0  0  0  0  0
  155.6686  143.1097  182.2775 C   0  0  0  0  0  0  0  0  0  0  0  0
  151.2732  136.6189  193.3150 C   0  0  0  0  0  0  0  0  0  0  0  0
  152.2338  137.6359  193.8561 F   0  0  0  0  0  0  0  0  0  0  0  0
  151.7269  135.6373  194.3544 F   0  0  0  0  0  0  0  0  0  0  0  0
  150.8195  137.6005  192.2755 F   0  0  0  0  0  0  0  0  0  0  0  0
  149.1970  134.4142  191.7440 C   0  0  0  0  0  0  0  0  0  0  0  0
  150.3509  135.3579  191.9104 N   0  0  0  0  0  0  0  0  0  0  0  0
 40 41  1  0  0  0
 41 39  1  0  0  0
 39 38  1  0  0  0
 38 37  1  0  0  0
 37 36  1  0  0  0
 36 35  1  0  0  0
 35 26  1  0  0  0
 26 27  2  0  0  0
 27 28  1  0  0  0
 28 29  2  0  0  0
 29 30  1  0  0  0
 30 31  2  0  0  0
 31 32  1  0  0  0
 32 33  2  0  0  0
 32 34  1  0  0  0
 29  1  1  0  0  0
  1  2  1  0  0  0
  2  3  2  0  0  0
  2  4  1  0  0  0
  4  5  2  0  0  0
  5  6  1  0  0  0
  6  7  1  0  0  0
  6  8  2  0  0  0
  8  9  1  0  0  0
  9 10  2  0  0  0
 10 42  1  0  0  0
 42 43  1  0  0  0
 42 44  1  0  0  0
 42 45  1  0  0  0
  8 11  1  0  0  0
 11 12  2  0  0  0
 12 13  1  0  0  0
 13 14  2  0  0  0
 14 15  1  0  0  0
 15 16  2  0  0  0
 16 46  1  0  0  0
 46 47  3  0  0  0
 14 17  1  0  0  0
 17 19  1  0  0  0
 19 20  2  0  0  0
 20 21  1  0  0  0
 21 22  2  0  0  0
 22 23  1  0  0  0
 23 24  2  0  0  0
 24 25  1  0  0  0
 31 26  1  0  0  0
 17  1  1  0  0  0
 24 19  1  0  0  0
 10  4  1  0  0  0
 16 11  1  0  0  0
  7 18  1  0  0  0
M  CHG 1  32   1
M  CHG 1  34  -1
M  END
> <minimizedAffinity>
-5.77371

> <CNNscore>
0.3226357698

> <CNNaffinity>
6.9294800758

> <CNN_VS>
2.2356982231

> <CNNaffinity_variance>
0.5106776953

$$$$
[H]Oc1c([H])c2c(C(F)(F)F)c([H])c1-c1c([H])c([H])c(c([H])c1C#N)N(c1c([H])nc([H])c([H])c1C([H])([H])[H])N(c1c([H])c([H])c(OC([H])([H])C([H])([H])C([H])([H])C([H])([H])C([H])([H])C([H])([H])[H])c([N+](=O)[O-])c1[H])C2=O


 47 51  0  0  0  0  0  0  0  0999 V2000
  152.7672  134.3622  187.7634 N   0  0  0  0  0  0  0  0  0  0  0  0
  152.4553  133.5605  188.9922 C   0  0  0  0  0  0  0  0  0  0  0  0
  151.0153  133.1511  189.0858 O   0  0  0  0  0  0  0  0  0  0  0  0
  153.9673  133.0850  190.4282 C   0  0  0  0  0  0  0  0  0  0  0  0
  154.7897  133.8663  189.4468 C   0  0  0  0  0  0  0  0  0  0  0  0
  156.2534  134.0789  189.6964 C   0  0  0  0  0  0  0  0  0  0  0  0
  157.0759  134.8602  188.7150 O   0  0  0  0  0  0  0  0  0  0  0  0
  156.8947  133.5103  190.9275 C   0  0  0  0  0  0  0  0  0  0  0  0
  156.0723  132.7290  191.9089 C   0  0  0  0  0  0  0  0  0  0  0  0
  154.6086  132.5164  191.6592 C   0  0  0  0  0  0  0  0  0  0  0  0
  157.5979  134.3076  189.8692 C   0  0  0  0  0  0  0  0  0  0  0  0
  157.4932  135.0488  188.5694 C   0  0  0  0  0  0  0  0  0  0  0  0
  156.6137  135.4985  187.4406 C   0  0  0  0  0  0  0  0  0  0  0  0
  155.2387  135.5141  186.8412 C   0  0  0  0  0  0  0  0  0  0  0  0
  155.3435  134.7729  188.1410 C   0  0  0  0  0  0  0  0  0  0  0  0
  156.2230  134.3232  189.2698 C   0  0  0  0  0  0  0  0  0  0  0  0
  153.8048  135.0905  186.9615 N   0  0  0  0  0  0  0  0  0  0  0  0
  158.5396  135.0729  188.9646 H   0  0  0  0  0  0  0  0  0  0  0  0
  153.1015  135.6311  185.7520 C   0  0  0  0  0  0  0  0  0  0  0  0
  152.8752  134.7499  184.5595 C   0  0  0  0  0  0  0  0  0  0  0  0
  152.1719  135.2905  183.3500 N   0  0  0  0  0  0  0  0  0  0  0  0
  151.6947  136.7126  183.3329 C   0  0  0  0  0  0  0  0  0  0  0  0
  151.9210  137.5938  184.5255 C   0  0  0  0  0  0  0  0  0  0  0  0
  152.6244  137.0531  185.7350 C   0  0  0  0  0  0  0  0  0  0  0  0
  152.8506  137.9344  186.9275 C   0  0  0  0  0  0  0  0  0  0  0  0
  148.9032  134.7532  185.4904 C   0  0  0  0  0  0  0  0  0  0  0  0
  149.8251  133.6036  185.2103 C   0  0  0  0  0  0  0  0  0  0  0  0
  151.1132  133.4732  185.9679 C   0  0  0  0  0  0  0  0  0  0  0  0
  151.4793  134.4925  187.0057 C   0  0  0  0  0  0  0  0  0  0  0  0
  150.5573  135.6421  187.2859 C   0  0  0  0  0  0  0  0  0  0  0  0
  149.2693  135.7724  186.5282 C   0  0  0  0  0  0  0  0  0  0  0  0
  148.3474  136.9221  186.8085 N   0  0  0  0  0  0  0  0  0  0  0  0
  147.5770  136.9693  188.0947 O   0  0  0  0  0  0  0  0  0  0  0  0
  147.9640  138.1589  186.0513 O   0  0  0  0  0  0  0  0  0  0  0  0
  147.6152  134.8835  184.7328 O   0  0  0  0  0  0  0  0  0  0  0  0
  147.6150  135.4574  183.3469 C   0  0  0  0  0  0  0  0  0  0  0  0
  147.6148  136.0312  181.9610 C   0  0  0  0  0  0  0  0  0  0  0  0
  147.6147  136.6049  180.5751 C   0  0  0  0  0  0  0  0  0  0  0  0
  147.6146  137.1786  179.1891 C   0  0  0  0  0  0  0  0  0  0  0  0
  147.6143  138.3261  176.4173 C   0  0  0  0  0  0  0  0  0  0  0  0
  147.6145  137.7523  177.8032 C   0  0  0  0  0  0  0  0  0  0  0  0
  153.7861  131.7351  192.6407 C   0  0  0  0  0  0  0  0  0  0  0  0
  152.9637  130.9538  193.6220 F   0  0  0  0  0  0  0  0  0  0  0  0
  152.5547  132.4616  192.1871 F   0  0  0  0  0  0  0  0  0  0  0  0
  155.0175  131.0085  193.0942 F   0  0  0  0  0  0  0  0  0  0  0  0
  155.3436  133.5525  190.2095 C   0  0  0  0  0  0  0  0  0  0  0  0
  154.3006  132.6776  190.8392 N   0  0  0  0  0  0  0  0  0  0  0  0
 40 41  1  0  0  0
 41 39  1  0  0  0
 39 38  1  0  0  0
 38 37  1  0  0  0
 37 36  1  0  0  0
 36 35  1  0  0  0
 35 26  1  0  0  0
 26 27  2  0  0  0
 27 28  1  0  0  0
 28 29  2  0  0  0
 29 30  1  0  0  0
 30 31  2  0  0  0
 31 32  1  0  0  0
 32 33  2  0  0  0
 32 34  1  0  0  0
 29  1  1  0  0  0
  1  2  1  0  0  0
  2  3  2  0  0  0
  2  4  1  0  0  0
  4  5  2  0  0  0
  5  6  1  0  0  0
  6  7  1  0  0  0
  6  8  2  0  0  0
  8  9  1  0  0  0
  9 10  2  0  0  0
 10 42  1  0  0  0
 42 43  1  0  0  0
 42 44  1  0  0  0
 42 45  1  0  0  0
  8 11  1  0  0  0
 11 12  2  0  0  0
 12 13  1  0  0  0
 13 14  2  0  0  0
 14 15  1  0  0  0
 15 16  2  0  0  0
 16 46  1  0  0  0
 46 47  3  0  0  0
 14 17  1  0  0  0
 17 19  1  0  0  0
 19 20  2  0  0  0
 20 21  1  0  0  0
 21 22  2  0  0  0
 22 23  1  0  0  0
 23 24  2  0  0  0
 24 25  1  0  0  0
 31 26  1  0  0  0
 17  1  1  0  0  0
 24 19  1  0  0  0
 10  4  1  0  0  0
 16 11  1  0  0  0
  7 18  1  0  0  0
M  CHG 1  32   1
M  CHG 1  34  -1
M  END
> <minimizedAffinity>
-3.89030

> <CNNscore>
0.3218863308

> <CNNaffinity>
6.6611418724

> <CNN_VS>
2.1441304684

> <CNNaffinity_variance>
0.3072861135

$$$$
[H]Oc1c([H])c2c(C(F)(F)F)c([H])c1-c1c([H])c([H])c(c([H])c1C#N)N(c1c([H])nc([H])c([H])c1C([H])([H])[H])N(c1c([H])c([H])c(OC([H])([H])C([H])([H])C([H])([H])C([H])([H])C([H])([H])C([H])([H])[H])c([N+](=O)[O-])c1[H])C2=O


 47 51  0  0  0  0  0  0  0  0999 V2000
  150.5907  135.0825  188.3473 N   0  0  0  0  0  0  0  0  0  0  0  0
  151.4858  136.0602  189.0493 C   0  0  0  0  0  0  0  0  0  0  0  0
  152.4098  136.7928  188.1221 O   0  0  0  0  0  0  0  0  0  0  0  0
  151.3981  136.3310  191.1690 C   0  0  0  0  0  0  0  0  0  0  0  0
  150.3368  135.2837  191.0053 C   0  0  0  0  0  0  0  0  0  0  0  0
  149.5959  134.7728  192.2054 C   0  0  0  0  0  0  0  0  0  0  0  0
  148.5346  133.7255  192.0418 O   0  0  0  0  0  0  0  0  0  0  0  0
  149.9164  135.3092  193.5690 C   0  0  0  0  0  0  0  0  0  0  0  0
  150.9777  136.3565  193.7327 C   0  0  0  0  0  0  0  0  0  0  0  0
  151.7186  136.8674  192.5326 C   0  0  0  0  0  0  0  0  0  0  0  0
  148.8829  134.2652  193.2655 C   0  0  0  0  0  0  0  0  0  0  0  0
  148.1987  133.4330  192.2219 C   0  0  0  0  0  0  0  0  0  0  0  0
  148.0809  133.0765  190.7696 C   0  0  0  0  0  0  0  0  0  0  0  0
  148.5670  133.3091  189.3698 C   0  0  0  0  0  0  0  0  0  0  0  0
  149.2513  134.1414  190.4133 C   0  0  0  0  0  0  0  0  0  0  0  0
  149.3690  134.4978  191.8656 C   0  0  0  0  0  0  0  0  0  0  0  0
  149.5026  134.0569  188.4667 N   0  0  0  0  0  0  0  0  0  0  0  0
  147.7937  133.2146  193.2418 H   0  0  0  0  0  0  0  0  0  0  0  0
  149.2320  133.5639  187.0761 C   0  0  0  0  0  0  0  0  0  0  0  0
  150.0419  132.4358  186.5095 C   0  0  0  0  0  0  0  0  0  0  0  0
  149.7713  131.9428  185.1189 N   0  0  0  0  0  0  0  0  0  0  0  0
  148.6908  132.5781  184.2949 C   0  0  0  0  0  0  0  0  0  0  0  0
  147.8809  133.7063  184.8616 C   0  0  0  0  0  0  0  0  0  0  0  0
  148.1515  134.1993  186.2523 C   0  0  0  0  0  0  0  0  0  0  0  0
  147.3416  135.3274  186.8189 C   0  0  0  0  0  0  0  0  0  0  0  0
  151.6182  135.3374  183.9735 C   0  0  0  0  0  0  0  0  0  0  0  0
  152.3151  134.3400  184.8508 C   0  0  0  0  0  0  0  0  0  0  0  0
  151.9726  134.2550  186.3088 C   0  0  0  0  0  0  0  0  0  0  0  0
  150.9332  135.1674  186.8894 C   0  0  0  0  0  0  0  0  0  0  0  0
  150.2363  136.1647  186.0121 C   0  0  0  0  0  0  0  0  0  0  0  0
  150.5788  136.2497  184.5542 C   0  0  0  0  0  0  0  0  0  0  0  0
  149.8818  137.2471  183.6770 N   0  0  0  0  0  0  0  0  0  0  0  0
  148.4223  137.5305  183.8764 O   0  0  0  0  0  0  0  0  0  0  0  0
  150.3202  138.1188  182.5377 O   0  0  0  0  0  0  0  0  0  0  0  0
  151.9607  135.4223  182.5157 O   0  0  0  0  0  0  0  0  0  0  0  0
  153.1458  134.6756  181.9789 C   0  0  0  0  0  0  0  0  0  0  0  0
  154.3308  133.9289  181.4422 C   0  0  0  0  0  0  0  0  0  0  0  0
  155.5159  133.1822  180.9055 C   0  0  0  0  0  0  0  0  0  0  0  0
  156.7010  132.4355  180.3688 C   0  0  0  0  0  0  0  0  0  0  0  0
  159.0712  130.9422  179.2955 C   0  0  0  0  0  0  0  0  0  0  0  0
  157.8861  131.6889  179.8322 C   0  0  0  0  0  0  0  0  0  0  0  0
  152.7799  137.9147  192.6962 C   0  0  0  0  0  0  0  0  0  0  0  0
  153.8413  138.9619  192.8598 F   0  0  0  0  0  0  0  0  0  0  0  0
  151.9784  138.5562  193.7898 F   0  0  0  0  0  0  0  0  0  0  0  0
  153.5815  137.2731  191.6027 F   0  0  0  0  0  0  0  0  0  0  0  0
  150.4407  135.5433  191.9586 C   0  0  0  0  0  0  0  0  0  0  0  0
  151.2850  136.7769  191.8358 N   0  0  0  0  0  0  0  0  0  0  0  0
 40 41  1  0  0  0
 41 39  1  0  0  0
 39 38  1  0  0  0
 38 37  1  0  0  0
 37 36  1  0  0  0
 36 35  1  0  0  0
 35 26  1  0  0  0
 26 27  2  0  0  0
 27 28  1  0  0  0
 28 29  2  0  0  0
 29 30  1  0  0  0
 30 31  2  0  0  0
 31 32  1  0  0  0
 32 33  2  0  0  0
 32 34  1  0  0  0
 29  1  1  0  0  0
  1  2  1  0  0  0
  2  3  2  0  0  0
  2  4  1  0  0  0
  4  5  2  0  0  0
  5  6  1  0  0  0
  6  7  1  0  0  0
  6  8  2  0  0  0
  8  9  1  0  0  0
  9 10  2  0  0  0
 10 42  1  0  0  0
 42 43  1  0  0  0
 42 44  1  0  0  0
 42 45  1  0  0  0
  8 11  1  0  0  0
 11 12  2  0  0  0
 12 13  1  0  0  0
 13 14  2  0  0  0
 14 15  1  0  0  0
 15 16  2  0  0  0
 16 46  1  0  0  0
 46 47  3  0  0  0
 14 17  1  0  0  0
 17 19  1  0  0  0
 19 20  2  0  0  0
 20 21  1  0  0  0
 21 22  2  0  0  0
 22 23  1  0  0  0
 23 24  2  0  0  0
 24 25  1  0  0  0
 31 26  1  0  0  0
 17  1  1  0  0  0
 24 19  1  0  0  0
 10  4  1  0  0  0
 16 11  1  0  0  0
  7 18  1  0  0  0
M  CHG 1  32   1
M  CHG 1  34  -1
M  END
> <minimizedAffinity>
-5.52966

> <CNNscore>
0.3111451864

> <CNNaffinity>
6.5630798340

> <CNN_VS>
2.0420706272

> <CNNaffinity_variance>
0.1630932391

$$$$
[H]Oc1c([H])c2c(C(F)(F)F)c([H])c1-c1c([H])c([H])c(c([H])c1C#N)N(c1c([H])nc([H])c([H])c1C([H])([H])[H])N(c1c([H])c([H])c(OC([H])([H])C([H])([H])C([H])([H])C([H])([H])C([H])([H])C([H])([H])[H])c([N+](=O)[O-])c1[H])C2=O


 47 51  0  0  0  0  0  0  0  0999 V2000
  151.2496  135.1942  188.8066 N   0  0  0  0  0  0  0  0  0  0  0  0
  150.1718  134.3251  189.3839 C   0  0  0  0  0  0  0  0  0  0  0  0
  149.4580  133.4999  188.3546 O   0  0  0  0  0  0  0  0  0  0  0  0
  149.7493  134.3153  191.4804 C   0  0  0  0  0  0  0  0  0  0  0  0
  150.8658  135.3166  191.4539 C   0  0  0  0  0  0  0  0  0  0  0  0
  151.3279  135.9585  192.7284 C   0  0  0  0  0  0  0  0  0  0  0  0
  152.4445  136.9599  192.7019 O   0  0  0  0  0  0  0  0  0  0  0  0
  150.6736  135.5990  194.0294 C   0  0  0  0  0  0  0  0  0  0  0  0
  149.5571  134.5977  194.0559 C   0  0  0  0  0  0  0  0  0  0  0  0
  149.0949  133.9558  192.7814 C   0  0  0  0  0  0  0  0  0  0  0  0
  151.7956  136.5804  193.8616 C   0  0  0  0  0  0  0  0  0  0  0  0
  152.7418  137.2667  192.9217 C   0  0  0  0  0  0  0  0  0  0  0  0
  153.2118  137.4400  191.5078 C   0  0  0  0  0  0  0  0  0  0  0  0
  153.0564  137.0455  190.0690 C   0  0  0  0  0  0  0  0  0  0  0  0
  152.1102  136.3592  191.0090 C   0  0  0  0  0  0  0  0  0  0  0  0
  151.6402  136.1858  192.4228 C   0  0  0  0  0  0  0  0  0  0  0  0
  152.3250  136.2083  189.0620 N   0  0  0  0  0  0  0  0  0  0  0  0
  152.9066  137.6017  193.9764 H   0  0  0  0  0  0  0  0  0  0  0  0
  152.9352  136.5222  187.7281 C   0  0  0  0  0  0  0  0  0  0  0  0
  152.3076  137.5560  186.8410 C   0  0  0  0  0  0  0  0  0  0  0  0
  152.9179  137.8699  185.5071 N   0  0  0  0  0  0  0  0  0  0  0  0
  154.1557  137.1499  185.0605 C   0  0  0  0  0  0  0  0  0  0  0  0
  154.7831  136.1160  185.9478 C   0  0  0  0  0  0  0  0  0  0  0  0
  154.1729  135.8021  187.2816 C   0  0  0  0  0  0  0  0  0  0  0  0
  154.8004  134.7682  188.1688 C   0  0  0  0  0  0  0  0  0  0  0  0
  151.2624  134.4216  184.3734 C   0  0  0  0  0  0  0  0  0  0  0  0
  152.0836  133.5609  185.2871 C   0  0  0  0  0  0  0  0  0  0  0  0
  152.0793  133.8184  186.7649 C   0  0  0  0  0  0  0  0  0  0  0  0
  151.2539  134.9366  187.3289 C   0  0  0  0  0  0  0  0  0  0  0  0
  150.4327  135.7974  186.4152 C   0  0  0  0  0  0  0  0  0  0  0  0
  150.4370  135.5398  184.9375 C   0  0  0  0  0  0  0  0  0  0  0  0
  149.6157  136.4006  184.0239 N   0  0  0  0  0  0  0  0  0  0  0  0
  148.2395  136.8321  184.4361 O   0  0  0  0  0  0  0  0  0  0  0  0
  149.8471  136.9977  182.6674 O   0  0  0  0  0  0  0  0  0  0  0  0
  151.2666  134.1641  182.8957 O   0  0  0  0  0  0  0  0  0  0  0  0
  152.4997  133.6270  182.2316 C   0  0  0  0  0  0  0  0  0  0  0  0
  153.7327  133.0900  181.5673 C   0  0  0  0  0  0  0  0  0  0  0  0
  154.9657  132.5530  180.9030 C   0  0  0  0  0  0  0  0  0  0  0  0
  156.1987  132.0159  180.2386 C   0  0  0  0  0  0  0  0  0  0  0  0
  158.6646  130.9419  178.9100 C   0  0  0  0  0  0  0  0  0  0  0  0
  157.4317  131.4789  179.5743 C   0  0  0  0  0  0  0  0  0  0  0  0
  147.9784  132.9544  192.8079 C   0  0  0  0  0  0  0  0  0  0  0  0
  146.8619  131.9531  192.8344 F   0  0  0  0  0  0  0  0  0  0  0  0
  147.4199  133.5437  191.5467 F   0  0  0  0  0  0  0  0  0  0  0  0
  148.5369  132.3651  194.0691 F   0  0  0  0  0  0  0  0  0  0  0  0
  150.5302  135.1778  192.3786 C   0  0  0  0  0  0  0  0  0  0  0  0
  149.2811  134.4003  192.0868 N   0  0  0  0  0  0  0  0  0  0  0  0
 40 41  1  0  0  0
 41 39  1  0  0  0
 39 38  1  0  0  0
 38 37  1  0  0  0
 37 36  1  0  0  0
 36 35  1  0  0  0
 35 26  1  0  0  0
 26 27  2  0  0  0
 27 28  1  0  0  0
 28 29  2  0  0  0
 29 30  1  0  0  0
 30 31  2  0  0  0
 31 32  1  0  0  0
 32 33  2  0  0  0
 32 34  1  0  0  0
 29  1  1  0  0  0
  1  2  1  0  0  0
  2  3  2  0  0  0
  2  4  1  0  0  0
  4  5  2  0  0  0
  5  6  1  0  0  0
  6  7  1  0  0  0
  6  8  2  0  0  0
  8  9  1  0  0  0
  9 10  2  0  0  0
 10 42  1  0  0  0
 42 43  1  0  0  0
 42 44  1  0  0  0
 42 45  1  0  0  0
  8 11  1  0  0  0
 11 12  2  0  0  0
 12 13  1  0  0  0
 13 14  2  0  0  0
 14 15  1  0  0  0
 15 16  2  0  0  0
 16 46  1  0  0  0
 46 47  3  0  0  0
 14 17  1  0  0  0
 17 19  1  0  0  0
 19 20  2  0  0  0
 20 21  1  0  0  0
 21 22  2  0  0  0
 22 23  1  0  0  0
 23 24  2  0  0  0
 24 25  1  0  0  0
 31 26  1  0  0  0
 17  1  1  0  0  0
 24 19  1  0  0  0
 10  4  1  0  0  0
 16 11  1  0  0  0
  7 18  1  0  0  0
M  CHG 1  32   1
M  CHG 1  34  -1
M  END
> <minimizedAffinity>
-5.00682

> <CNNscore>
0.3032761812

> <CNNaffinity>
6.5764794350

> <CNN_VS>
1.9944895506

> <CNNaffinity_variance>
0.0430443063

$$$$
[H]Oc1c([H])c2c(C(F)(F)F)c([H])c1-c1c([H])c([H])c(c([H])c1C#N)N(c1c([H])nc([H])c([H])c1C([H])([H])[H])N(c1c([H])c([H])c(OC([H])([H])C([H])([H])C([H])([H])C([H])([H])C([H])([H])C([H])([H])[H])c([N+](=O)[O-])c1[H])C2=O


 47 51  0  0  0  0  0  0  0  0999 V2000
  152.0417  135.2831  188.9044 N   0  0  0  0  0  0  0  0  0  0  0  0
  150.9193  134.2880  188.8918 C   0  0  0  0  0  0  0  0  0  0  0  0
  150.7312  133.6201  187.5620 O   0  0  0  0  0  0  0  0  0  0  0  0
  149.7436  133.9095  190.6379 C   0  0  0  0  0  0  0  0  0  0  0  0
  150.6815  134.9439  191.1859 C   0  0  0  0  0  0  0  0  0  0  0  0
  150.5641  135.3801  192.6162 C   0  0  0  0  0  0  0  0  0  0  0  0
  151.5020  136.4145  193.1643 O   0  0  0  0  0  0  0  0  0  0  0  0
  149.5087  134.7819  193.4985 C   0  0  0  0  0  0  0  0  0  0  0  0
  148.5708  133.7476  192.9505 C   0  0  0  0  0  0  0  0  0  0  0  0
  148.6883  133.3114  191.5202 C   0  0  0  0  0  0  0  0  0  0  0  0
  150.5068  135.8205  193.9172 C   0  0  0  0  0  0  0  0  0  0  0  0
  151.6625  136.6914  193.5227 C   0  0  0  0  0  0  0  0  0  0  0  0
  152.6091  137.1181  192.4401 C   0  0  0  0  0  0  0  0  0  0  0  0
  153.0460  136.9651  191.0133 C   0  0  0  0  0  0  0  0  0  0  0  0
  151.8903  136.0942  191.4079 C   0  0  0  0  0  0  0  0  0  0  0  0
  150.9437  135.6676  192.4904 C   0  0  0  0  0  0  0  0  0  0  0  0
  152.8345  136.2811  189.6953 N   0  0  0  0  0  0  0  0  0  0  0  0
  151.3846  136.8507  194.5947 H   0  0  0  0  0  0  0  0  0  0  0  0
  153.8661  136.8381  188.7596 C   0  0  0  0  0  0  0  0  0  0  0  0
  153.5109  137.9666  187.8375 C   0  0  0  0  0  0  0  0  0  0  0  0
  154.5425  138.5237  186.9019 N   0  0  0  0  0  0  0  0  0  0  0  0
  155.9294  137.9522  186.8883 C   0  0  0  0  0  0  0  0  0  0  0  0
  156.2845  136.8237  187.8104 C   0  0  0  0  0  0  0  0  0  0  0  0
  155.2529  136.2666  188.7461 C   0  0  0  0  0  0  0  0  0  0  0  0
  155.6081  135.1382  189.6682 C   0  0  0  0  0  0  0  0  0  0  0  0
  153.7962  135.2673  184.7605 C   0  0  0  0  0  0  0  0  0  0  0  0
  154.3190  134.3206  185.8000 C   0  0  0  0  0  0  0  0  0  0  0  0
  153.7342  134.3259  187.1813 C   0  0  0  0  0  0  0  0  0  0  0  0
  152.6265  135.2778  187.5232 C   0  0  0  0  0  0  0  0  0  0  0  0
  152.1037  136.2245  186.4837 C   0  0  0  0  0  0  0  0  0  0  0  0
  152.6885  136.2192  185.1025 C   0  0  0  0  0  0  0  0  0  0  0  0
  152.1656  137.1660  184.0630 N   0  0  0  0  0  0  0  0  0  0  0  0
  153.0073  138.3221  183.6102 O   0  0  0  0  0  0  0  0  0  0  0  0
  150.8861  137.2567  183.2854 O   0  0  0  0  0  0  0  0  0  0  0  0
  154.3810  135.2621  183.3793 O   0  0  0  0  0  0  0  0  0  0  0  0
  153.6751  134.5422  182.2686 C   0  0  0  0  0  0  0  0  0  0  0  0
  152.9692  133.8224  181.1580 C   0  0  0  0  0  0  0  0  0  0  0  0
  152.2632  133.1027  180.0473 C   0  0  0  0  0  0  0  0  0  0  0  0
  151.5573  132.3830  178.9366 C   0  0  0  0  0  0  0  0  0  0  0  0
  150.1453  130.9436  176.7153 C   0  0  0  0  0  0  0  0  0  0  0  0
  150.8513  131.6633  177.8259 C   0  0  0  0  0  0  0  0  0  0  0  0
  147.7503  132.2769  190.9720 C   0  0  0  0  0  0  0  0  0  0  0  0
  146.8125  131.2426  190.4240 F   0  0  0  0  0  0  0  0  0  0  0  0
  146.8138  133.3613  190.5281 F   0  0  0  0  0  0  0  0  0  0  0  0
  148.6869  131.1926  191.4160 F   0  0  0  0  0  0  0  0  0  0  0  0
  150.0390  134.6387  191.8795 C   0  0  0  0  0  0  0  0  0  0  0  0
  149.3835  133.6149  191.0008 N   0  0  0  0  0  0  0  0  0  0  0  0
 40 41  1  0  0  0
 41 39  1  0  0  0
 39 38  1  0  0  0
 38 37  1  0  0  0
 37 36  1  0  0  0
 36 35  1  0  0  0
 35 26  1  0  0  0
 26 27  2  0  0  0
 27 28  1  0  0  0
 28 29  2  0  0  0
 29 30  1  0  0  0
 30 31  2  0  0  0
 31 32  1  0  0  0
 32 33  2  0  0  0
 32 34  1  0  0  0
 29  1  1  0  0  0
  1  2  1  0  0  0
  2  3  2  0  0  0
  2  4  1  0  0  0
  4  5  2  0  0  0
  5  6  1  0  0  0
  6  7  1  0  0  0
  6  8  2  0  0  0
  8  9  1  0  0  0
  9 10  2  0  0  0
 10 42  1  0  0  0
 42 43  1  0  0  0
 42 44  1  0  0  0
 42 45  1  0  0  0
  8 11  1  0  0  0
 11 12  2  0  0  0
 12 13  1  0  0  0
 13 14  2  0  0  0
 14 15  1  0  0  0
 15 16  2  0  0  0
 16 46  1  0  0  0
 46 47  3  0  0  0
 14 17  1  0  0  0
 17 19  1  0  0  0
 19 20  2  0  0  0
 20 21  1  0  0  0
 21 22  2  0  0  0
 22 23  1  0  0  0
 23 24  2  0  0  0
 24 25  1  0  0  0
 31 26  1  0  0  0
 17  1  1  0  0  0
 24 19  1  0  0  0
 10  4  1  0  0  0
 16 11  1  0  0  0
  7 18  1  0  0  0
M  CHG 1  32   1
M  CHG 1  34  -1
M  END
> <minimizedAffinity>
-5.26033

> <CNNscore>
0.3020599782

> <CNNaffinity>
6.4471182823

> <CNN_VS>
1.9474164248

> <CNNaffinity_variance>
0.1256735027

$$$$
[H]c1nc(Cl)c([H])c([H])c1C1([H])C([H])([H])C2([H])C([H])([H])N([H])C([H])([H])C([H])(C1([H])[H])C2([H])[H]


 17 19  0  0  0  0  0  0  0  0999 V2000
  158.9159  142.4228  183.7446 C   0  0  0  0  0  0  0  0  0  0  0  0
  159.0112  141.0401  183.0885 C   0  0  0  0  0  0  0  0  0  0  0  0
  157.9645  140.8337  182.0492 C   0  0  0  0  0  0  0  0  0  0  0  0
  158.5918  140.4376  180.7092 C   0  0  0  0  0  0  0  0  0  0  0  0
  158.5090  141.4993  179.7487 N   0  0  0  0  0  0  0  0  0  0  0  0
  158.9829  142.7428  180.2963 C   0  0  0  0  0  0  0  0  0  0  0  0
  158.1904  143.1943  181.5050 C   0  0  0  0  0  0  0  0  0  0  0  0
  157.1850  142.1095  181.8265 C   0  0  0  0  0  0  0  0  0  0  0  0
  159.1027  143.4532  182.6560 C   0  0  0  0  0  0  0  0  0  0  0  0
  157.5637  141.5397  179.3432 H   0  0  0  0  0  0  0  0  0  0  0  0
  163.3414  142.6351  187.7198 Cl  0  0  0  0  0  0  0  0  0  0  0  0
  162.0356  142.5730  186.5518 C   0  0  0  0  0  0  0  0  0  0  0  0
  162.3551  142.4042  185.2134 C   0  0  0  0  0  0  0  0  0  0  0  0
  161.3082  142.3600  184.3262 C   0  0  0  0  0  0  0  0  0  0  0  0
  160.0007  142.4779  184.7467 C   0  0  0  0  0  0  0  0  0  0  0  0
  159.7692  142.6430  186.0951 C   0  0  0  0  0  0  0  0  0  0  0  0
  160.7712  142.6889  186.9756 N   0  0  0  0  0  0  0  0  0  0  0  0
 11 12  1  0  0  0
 12 13  2  0  0  0
 13 14  1  0  0  0
 14 15  2  0  0  0
 15 16  1  0  0  0
 16 17  2  0  0  0
 15  1  1  0  0  0
  1  2  1  0  0  0
  2  3  1  0  0  0
  3  4  1  0  0  0
  4  5  1  0  0  0
  5  6  1  0  0  0
  6  7  1  0  0  0
  7  8  1  0  0  0
  7  9  1  0  0  0
 17 12  1  0  0  0
  9  1  1  0  0  0
  8  3  1  0  0  0
  5 10  1  0  0  0
M  END
> <minimizedAffinity>
-8.11298

> <CNNscore>
0.8715647459

> <CNNaffinity>
6.4812002182

> <CNN_VS>
5.6487855911

> <CNNaffinity_variance>
0.0983678252

$$$$
[H]c1nc(Cl)c([H])c([H])c1C1([H])C([H])([H])C2([H])C([H])([H])N([H])C([H])([H])C([H])(C1([H])[H])C2([H])[H]


 17 19  0  0  0  0  0  0  0  0999 V2000
  158.9885  141.7796  183.4583 C   0  0  0  0  0  0  0  0  0  0  0  0
  158.6977  143.1319  182.7963 C   0  0  0  0  0  0  0  0  0  0  0  0
  157.5978  143.0470  181.7955 C   0  0  0  0  0  0  0  0  0  0  0  0
  156.4930  144.0612  182.1067 C   0  0  0  0  0  0  0  0  0  0  0  0
  155.3074  143.4217  182.5987 N   0  0  0  0  0  0  0  0  0  0  0  0
  155.6080  142.5055  183.6669 C   0  0  0  0  0  0  0  0  0  0  0  0
  156.5501  141.3976  183.2450 C   0  0  0  0  0  0  0  0  0  0  0  0
  156.9713  141.6715  181.8173 C   0  0  0  0  0  0  0  0  0  0  0  0
  157.7256  141.3398  184.1608 C   0  0  0  0  0  0  0  0  0  0  0  0
  154.7730  143.0140  181.8192 H   0  0  0  0  0  0  0  0  0  0  0  0
  163.3846  142.7588  187.3504 Cl  0  0  0  0  0  0  0  0  0  0  0  0
  162.0924  142.4695  186.2015 C   0  0  0  0  0  0  0  0  0  0  0  0
  160.7858  142.6899  186.6090 C   0  0  0  0  0  0  0  0  0  0  0  0
  159.7989  142.4534  185.6842 C   0  0  0  0  0  0  0  0  0  0  0  0
  160.0938  142.0172  184.4101 C   0  0  0  0  0  0  0  0  0  0  0  0
  161.4188  141.8227  184.0854 C   0  0  0  0  0  0  0  0  0  0  0  0
  162.3946  142.0461  184.9682 N   0  0  0  0  0  0  0  0  0  0  0  0
 11 12  1  0  0  0
 12 13  2  0  0  0
 13 14  1  0  0  0
 14 15  2  0  0  0
 15 16  1  0  0  0
 16 17  2  0  0  0
 15  1  1  0  0  0
  1  2  1  0  0  0
  2  3  1  0  0  0
  3  4  1  0  0  0
  4  5  1  0  0  0
  5  6  1  0  0  0
  6  7  1  0  0  0
  7  8  1  0  0  0
  7  9  1  0  0  0
 17 12  1  0  0  0
  9  1  1  0  0  0
  8  3  1  0  0  0
  5 10  1  0  0  0
M  END
> <minimizedAffinity>
-7.85577

> <CNNscore>
0.7741732001

> <CNNaffinity>
6.3834233284

> <CNN_VS>
4.9418754578

> <CNNaffinity_variance>
0.1417461336

$$$$
[H]c1nc(Cl)c([H])c([H])c1C1([H])C([H])([H])C2([H])C([H])([H])N([H])C([H])([H])C([H])(C1([H])[H])C2([H])[H]


 17 19  0  0  0  0  0  0  0  0999 V2000
  149.6864  136.3207  186.6093 C   0  0  0  0  0  0  0  0  0  0  0  0
  148.4747  137.2583  186.5454 C   0  0  0  0  0  0  0  0  0  0  0  0
  148.2551  137.8067  185.1781 C   0  0  0  0  0  0  0  0  0  0  0  0
  146.8311  137.5188  184.6931 C   0  0  0  0  0  0  0  0  0  0  0  0
  146.8116  136.5213  183.6629 N   0  0  0  0  0  0  0  0  0  0  0  0
  147.5701  135.3585  184.0415 C   0  0  0  0  0  0  0  0  0  0  0  0
  149.0275  135.6682  184.3121 C   0  0  0  0  0  0  0  0  0  0  0  0
  149.2082  137.1664  184.1949 C   0  0  0  0  0  0  0  0  0  0  0  0
  149.4205  135.1738  185.6630 C   0  0  0  0  0  0  0  0  0  0  0  0
  147.0812  136.9363  182.7603 H   0  0  0  0  0  0  0  0  0  0  0  0
  149.9835  134.4834  192.2634 Cl  0  0  0  0  0  0  0  0  0  0  0  0
  149.8998  135.0248  190.5981 C   0  0  0  0  0  0  0  0  0  0  0  0
  148.6526  135.1400  190.0038 C   0  0  0  0  0  0  0  0  0  0  0  0
  148.6237  135.5665  188.6991 C   0  0  0  0  0  0  0  0  0  0  0  0
  149.7809  135.8662  188.0123 C   0  0  0  0  0  0  0  0  0  0  0  0
  150.9800  135.7251  188.6765 C   0  0  0  0  0  0  0  0  0  0  0  0
  151.0320  135.3120  189.9446 N   0  0  0  0  0  0  0  0  0  0  0  0
 11 12  1  0  0  0
 12 13  2  0  0  0
 13 14  1  0  0  0
 14 15  2  0  0  0
 15 16  1  0  0  0
 16 17  2  0  0  0
 15  1  1  0  0  0
  1  2  1  0  0  0
  2  3  1  0  0  0
  3  4  1  0  0  0
  4  5  1  0  0  0
  5  6  1  0  0  0
  6  7  1  0  0  0
  7  8  1  0  0  0
  7  9  1  0  0  0
 17 12  1  0  0  0
  9  1  1  0  0  0
  8  3  1  0  0  0
  5 10  1  0  0  0
M  END
> <minimizedAffinity>
-2.50472

> <CNNscore>
0.7013659477

> <CNNaffinity>
4.4128341675

> <CNN_VS>
3.0950117111

> <CNNaffinity_variance>
0.4317958355

$$$$
[H]c1nc(Cl)c([H])c([H])c1C1([H])C([H])([H])C2([H])C([H])([H])N([H])C([H])([H])C([H])(C1([H])[H])C2([H])[H]


 17 19  0  0  0  0  0  0  0  0999 V2000
  160.0397  141.4742  182.8991 C   0  0  0  0  0  0  0  0  0  0  0  0
  159.1595  142.6913  182.5902 C   0  0  0  0  0  0  0  0  0  0  0  0
  158.2868  142.4718  181.4033 C   0  0  0  0  0  0  0  0  0  0  0  0
  156.8155  142.7173  181.7506 C   0  0  0  0  0  0  0  0  0  0  0  0
  156.0686  141.4939  181.7965 N   0  0  0  0  0  0  0  0  0  0  0  0
  156.7268  140.5054  182.6092 C   0  0  0  0  0  0  0  0  0  0  0  0
  158.1068  140.1473  182.0989 C   0  0  0  0  0  0  0  0  0  0  0  0
  158.4073  141.0452  180.9181 C   0  0  0  0  0  0  0  0  0  0  0  0
  159.1187  140.3109  183.1821 C   0  0  0  0  0  0  0  0  0  0  0  0
  155.8362  141.1826  180.8433 H   0  0  0  0  0  0  0  0  0  0  0  0
  163.2133  142.9606  187.7107 Cl  0  0  0  0  0  0  0  0  0  0  0  0
  162.2818  142.5222  186.2918 C   0  0  0  0  0  0  0  0  0  0  0  0
  160.8989  142.5867  186.3647 C   0  0  0  0  0  0  0  0  0  0  0  0
  160.2008  142.2365  185.2355 C   0  0  0  0  0  0  0  0  0  0  0  0
  160.8451  141.8394  184.0832 C   0  0  0  0  0  0  0  0  0  0  0  0
  162.2225  141.8028  184.0943 C   0  0  0  0  0  0  0  0  0  0  0  0
  162.9217  142.1388  185.1805 N   0  0  0  0  0  0  0  0  0  0  0  0
 11 12  1  0  0  0
 12 13  2  0  0  0
 13 14  1  0  0  0
 14 15  2  0  0  0
 15 16  1  0  0  0
 16 17  2  0  0  0
 15  1  1  0  0  0
  1  2  1  0  0  0
  2  3  1  0  0  0
  3  4  1  0  0  0
  4  5  1  0  0  0
  5  6  1  0  0  0
  6  7  1  0  0  0
  7  8  1  0  0  0
  7  9  1  0  0  0
 17 12  1  0  0  0
  9  1  1  0  0  0
  8  3  1  0  0  0
  5 10  1  0  0  0
M  END
> <minimizedAffinity>
-8.24283

> <CNNscore>
0.6973075867

> <CNNaffinity>
6.1408224106

> <CNN_VS>
4.2820420265

> <CNNaffinity_variance>
0.1605659127

$$$$
[H]c1nc(Cl)c([H])c([H])c1C1([H])C([H])([H])C2([H])C([H])([H])N([H])C([H])([H])C([H])(C1([H])[H])C2([H])[H]


 17 19  0  0  0  0  0  0  0  0999 V2000
  152.8381  134.0053  181.5938 C   0  0  0  0  0  0  0  0  0  0  0  0
  153.2659  132.5498  181.3701 C   0  0  0  0  0  0  0  0  0  0  0  0
  153.9046  132.3458  180.0401 C   0  0  0  0  0  0  0  0  0  0  0  0
  155.2896  131.7088  180.1881 C   0  0  0  0  0  0  0  0  0  0  0  0
  156.3383  132.6427  179.8974 N   0  0  0  0  0  0  0  0  0  0  0  0
  156.1585  133.8766  180.6157 C   0  0  0  0  0  0  0  0  0  0  0  0
  154.8573  134.5722  180.2751 C   0  0  0  0  0  0  0  0  0  0  0  0
  154.0867  133.6704  179.3349 C   0  0  0  0  0  0  0  0  0  0  0  0
  154.0821  134.8587  181.5164 C   0  0  0  0  0  0  0  0  0  0  0  0
  156.4486  132.7490  178.8796 H   0  0  0  0  0  0  0  0  0  0  0  0
  150.3531  134.2725  186.9962 Cl  0  0  0  0  0  0  0  0  0  0  0  0
  151.0851  134.1901  185.4054 C   0  0  0  0  0  0  0  0  0  0  0  0
  151.3336  135.3758  184.7313 C   0  0  0  0  0  0  0  0  0  0  0  0
  151.9074  135.2745  183.4881 C   0  0  0  0  0  0  0  0  0  0  0  0
  152.2218  134.0509  182.9362 C   0  0  0  0  0  0  0  0  0  0  0  0
  151.9421  132.9202  183.6725 C   0  0  0  0  0  0  0  0  0  0  0  0
  151.3846  132.9947  184.8828 N   0  0  0  0  0  0  0  0  0  0  0  0
 11 12  1  0  0  0
 12 13  2  0  0  0
 13 14  1  0  0  0
 14 15  2  0  0  0
 15 16  1  0  0  0
 16 17  2  0  0  0
 15  1  1  0  0  0
  1  2  1  0  0  0
  2  3  1  0  0  0
  3  4  1  0  0  0
  4  5  1  0  0  0
  5  6  1  0  0  0
  6  7  1  0  0  0
  7  8  1  0  0  0
  7  9  1  0  0  0
 17 12  1  0  0  0
  9  1  1  0  0  0
  8  3  1  0  0  0
  5 10  1  0  0  0
M  END
> <minimizedAffinity>
-1.71488

> <CNNscore>
0.5964610577

> <CNNaffinity>
4.2839722633

> <CNN_VS>
2.5552225113

> <CNNaffinity_variance>
0.8973523378

$$$$
[H]c1nc(Cl)c([H])c([H])c1C1([H])C([H])([H])C2([H])C([H])([H])N([H])C([H])([H])C([H])(C1([H])[H])C2([H])[H]


 17 19  0  0  0  0  0  0  0  0999 V2000
  151.7728  136.5399  186.6436 C   0  0  0  0  0  0  0  0  0  0  0  0
  150.4464  137.3088  186.6744 C   0  0  0  0  0  0  0  0  0  0  0  0
  149.5115  136.8672  185.6022 C   0  0  0  0  0  0  0  0  0  0  0  0
  148.1609  136.4473  186.1901 C   0  0  0  0  0  0  0  0  0  0  0  0
  147.9737  135.0267  186.1309 N   0  0  0  0  0  0  0  0  0  0  0  0
  149.1113  134.3232  186.6616 C   0  0  0  0  0  0  0  0  0  0  0  0
  150.3911  134.6195  185.9086 C   0  0  0  0  0  0  0  0  0  0  0  0
  150.0784  135.6735  184.8682 C   0  0  0  0  0  0  0  0  0  0  0  0
  151.4526  135.0783  186.8503 C   0  0  0  0  0  0  0  0  0  0  0  0
  147.6969  134.7433  185.1808 H   0  0  0  0  0  0  0  0  0  0  0  0
  155.0344  138.6795  191.1399 Cl  0  0  0  0  0  0  0  0  0  0  0  0
  154.0751  138.0521  189.8135 C   0  0  0  0  0  0  0  0  0  0  0  0
  153.2673  136.9500  190.0472 C   0  0  0  0  0  0  0  0  0  0  0  0
  152.5298  136.4849  188.9866 C   0  0  0  0  0  0  0  0  0  0  0  0
  152.5900  137.0859  187.7473 C   0  0  0  0  0  0  0  0  0  0  0  0
  153.4183  138.1771  187.5993 C   0  0  0  0  0  0  0  0  0  0  0  0
  154.1443  138.6465  188.6161 N   0  0  0  0  0  0  0  0  0  0  0  0
 11 12  1  0  0  0
 12 13  2  0  0  0
 13 14  1  0  0  0
 14 15  2  0  0  0
 15 16  1  0  0  0
 16 17  2  0  0  0
 15  1  1  0  0  0
  1  2  1  0  0  0
  2  3  1  0  0  0
  3  4  1  0  0  0
  4  5  1  0  0  0
  5  6  1  0  0  0
  6  7  1  0  0  0
  7  8  1  0  0  0
  7  9  1  0  0  0
 17 12  1  0  0  0
  9  1  1  0  0  0
  8  3  1  0  0  0
  5 10  1  0  0  0
M  END
> <minimizedAffinity>
-3.53804

> <CNNscore>
0.5880381465

> <CNNaffinity>
4.1960878372

> <CNN_VS>
2.4674596786

> <CNNaffinity_variance>
0.0344458930

$$$$
[H]c1nc(Cl)c([H])c([H])c1C1([H])C([H])([H])C2([H])C([H])([H])N([H])C([H])([H])C([H])(C1([H])[H])C2([H])[H]


 17 19  0  0  0  0  0  0  0  0999 V2000
  155.5910  139.8156  182.6309 C   0  0  0  0  0  0  0  0  0  0  0  0
  154.9235  140.7692  181.6327 C   0  0  0  0  0  0  0  0  0  0  0  0
  153.7662  140.1407  180.9370 C   0  0  0  0  0  0  0  0  0  0  0  0
  152.5004  140.9869  181.1027 C   0  0  0  0  0  0  0  0  0  0  0  0
  151.5576  140.3659  181.9872 N   0  0  0  0  0  0  0  0  0  0  0  0
  152.1805  139.9588  183.2189 C   0  0  0  0  0  0  0  0  0  0  0  0
  153.2981  138.9584  183.0112 C   0  0  0  0  0  0  0  0  0  0  0  0
  153.4798  138.7756  181.5197 C   0  0  0  0  0  0  0  0  0  0  0  0
  154.5517  139.4391  183.6603 C   0  0  0  0  0  0  0  0  0  0  0  0
  151.0464  139.6198  181.4959 H   0  0  0  0  0  0  0  0  0  0  0  0
  160.0586  142.8708  185.1086 Cl  0  0  0  0  0  0  0  0  0  0  0  0
  158.7452  141.9699  184.3761 C   0  0  0  0  0  0  0  0  0  0  0  0
  157.5020  142.0006  184.9888 C   0  0  0  0  0  0  0  0  0  0  0  0
  156.4963  141.2841  184.3886 C   0  0  0  0  0  0  0  0  0  0  0  0
  156.7128  140.5678  183.2308 C   0  0  0  0  0  0  0  0  0  0  0  0
  157.9783  140.5898  182.6858 C   0  0  0  0  0  0  0  0  0  0  0  0
  158.9710  141.2793  183.2520 N   0  0  0  0  0  0  0  0  0  0  0  0
 11 12  1  0  0  0
 12 13  2  0  0  0
 13 14  1  0  0  0
 14 15  2  0  0  0
 15 16  1  0  0  0
 16 17  2  0  0  0
 15  1  1  0  0  0
  1  2  1  0  0  0
  2  3  1  0  0  0
  3  4  1  0  0  0
  4  5  1  0  0  0
  5  6  1  0  0  0
  6  7  1  0  0  0
  7  8  1  0  0  0
  7  9  1  0  0  0
 17 12  1  0  0  0
  9  1  1  0  0  0
  8  3  1  0  0  0
  5 10  1  0  0  0
M  END
> <minimizedAffinity>
2.21525

> <CNNscore>
0.4959116578

> <CNNaffinity>
5.6346163750

> <CNN_VS>
2.7942719460

> <CNNaffinity_variance>
2.2753002644

$$$$
[H]c1nc(Cl)c([H])c([H])c1C1([H])C([H])([H])C2([H])C([H])([H])N([H])C([H])([H])C([H])(C1([H])[H])C2([H])[H]


 17 19  0  0  0  0  0  0  0  0999 V2000
  154.8273  138.1857  187.9881 C   0  0  0  0  0  0  0  0  0  0  0  0
  153.3604  137.7409  187.9466 C   0  0  0  0  0  0  0  0  0  0  0  0
  152.6422  138.2703  186.7539 C   0  0  0  0  0  0  0  0  0  0  0  0
  151.9954  137.1354  185.9541 C   0  0  0  0  0  0  0  0  0  0  0  0
  152.6775  136.9029  184.7142 N   0  0  0  0  0  0  0  0  0  0  0  0
  154.0972  136.7740  184.9104 C   0  0  0  0  0  0  0  0  0  0  0  0
  154.7225  138.0115  185.5191 C   0  0  0  0  0  0  0  0  0  0  0  0
  153.6056  138.9836  185.8330 C   0  0  0  0  0  0  0  0  0  0  0  0
  155.4961  137.6533  186.7426 C   0  0  0  0  0  0  0  0  0  0  0  0
  152.4012  137.6089  184.0179 H   0  0  0  0  0  0  0  0  0  0  0  0
  157.1350  135.7356  192.8977 Cl  0  0  0  0  0  0  0  0  0  0  0  0
  156.4555  136.4605  191.4534 C   0  0  0  0  0  0  0  0  0  0  0  0
  156.1458  135.6347  190.3839 C   0  0  0  0  0  0  0  0  0  0  0  0
  155.6155  136.2354  189.2690 C   0  0  0  0  0  0  0  0  0  0  0  0
  155.4010  137.5962  189.2158 C   0  0  0  0  0  0  0  0  0  0  0  0
  155.7364  138.3457  190.3225 C   0  0  0  0  0  0  0  0  0  0  0  0
  156.2531  137.7832  191.4170 N   0  0  0  0  0  0  0  0  0  0  0  0
 11 12  1  0  0  0
 12 13  2  0  0  0
 13 14  1  0  0  0
 14 15  2  0  0  0
 15 16  1  0  0  0
 16 17  2  0  0  0
 15  1  1  0  0  0
  1  2  1  0  0  0
  2  3  1  0  0  0
  3  4  1  0  0  0
  4  5  1  0  0  0
  5  6  1  0  0  0
  6  7  1  0  0  0
  7  8  1  0  0  0
  7  9  1  0  0  0
 17 12  1  0  0  0
  9  1  1  0  0  0
  8  3  1  0  0  0
  5 10  1  0  0  0
M  END
> <minimizedAffinity>
-4.78574

> <CNNscore>
0.4860645533

> <CNNaffinity>
4.5852527618

> <CNN_VS>
2.2287287712

> <CNNaffinity_variance>
0.0705602318

$$$$
[H]c1nc(Cl)c([H])c([H])c1C1([H])C([H])([H])C2([H])C([H])([H])N([H])C([H])([H])C([H])(C1([H])[H])C2([H])[H]


 17 19  0  0  0  0  0  0  0  0999 V2000
  153.5758  137.3617  191.4262 C   0  0  0  0  0  0  0  0  0  0  0  0
  153.2910  136.9330  189.9818 C   0  0  0  0  0  0  0  0  0  0  0  0
  154.1800  137.6180  189.0025 C   0  0  0  0  0  0  0  0  0  0  0  0
  154.9211  136.6013  188.1290 C   0  0  0  0  0  0  0  0  0  0  0  0
  156.3145  136.5310  188.4606 N   0  0  0  0  0  0  0  0  0  0  0  0
  156.5112  136.3710  189.8772 C   0  0  0  0  0  0  0  0  0  0  0  0
  155.9346  137.5147  190.6848 C   0  0  0  0  0  0  0  0  0  0  0  0
  155.2218  138.4420  189.7241 C   0  0  0  0  0  0  0  0  0  0  0  0
  155.0088  136.9950  191.7321 C   0  0  0  0  0  0  0  0  0  0  0  0
  156.8206  137.3238  188.0424 H   0  0  0  0  0  0  0  0  0  0  0  0
  149.8012  134.2955  194.8589 Cl  0  0  0  0  0  0  0  0  0  0  0  0
  150.9100  135.2007  193.8469 C   0  0  0  0  0  0  0  0  0  0  0  0
  152.2373  134.8029  193.8025 C   0  0  0  0  0  0  0  0  0  0  0  0
  153.0779  135.5339  193.0000 C   0  0  0  0  0  0  0  0  0  0  0  0
  152.6232  136.6131  192.2726 C   0  0  0  0  0  0  0  0  0  0  0  0
  151.2889  136.9424  192.3728 C   0  0  0  0  0  0  0  0  0  0  0  0
  150.4536  136.2461  193.1465 N   0  0  0  0  0  0  0  0  0  0  0  0
 11 12  1  0  0  0
 12 13  2  0  0  0
 13 14  1  0  0  0
 14 15  2  0  0  0
 15 16  1  0  0  0
 16 17  2  0  0  0
 15  1  1  0  0  0
  1  2  1  0  0  0
  2  3  1  0  0  0
  3  4  1  0  0  0
  4  5  1  0  0  0
  5  6  1  0  0  0
  6  7  1  0  0  0
  7  8  1  0  0  0
  7  9  1  0  0  0
 17 12  1  0  0  0
  9  1  1  0  0  0
  8  3  1  0  0  0
  5 10  1  0  0  0
M  END
> <minimizedAffinity>
-5.61556

> <CNNscore>
0.4691971242

> <CNNaffinity>
4.4671463966

> <CNN_VS>
2.0959722996

> <CNNaffinity_variance>
0.0683516115

$$$$
[H]c1nc([H])c(C(=O)OC([H])([H])[H])c(C([H])([H])[C@@]([H])(C(=O)N([H])c2c([H])nn([H])c2C([H])([H])[H])c2c([H])c([H])c(C([H])([H])[H])c(Oc3c([H])c([H])c([H])c([H])c3[H])c2[H])c1[H]


 37 40  0  0  0  0  0  0  0  0999 V2000
  157.4469  140.5188  183.2435 C   0  0  0  0  0  0  0  0  0  0  0  0
  156.2952  139.9561  184.0408 C   0  0  0  0  0  0  0  0  0  0  0  0
  156.5006  139.0573  185.0503 C   0  0  0  0  0  0  0  0  0  0  0  0
  155.4618  138.5089  185.8189 C   0  0  0  0  0  0  0  0  0  0  0  0
  154.1731  138.8966  185.5416 C   0  0  0  0  0  0  0  0  0  0  0  0
  152.9816  138.4052  186.3052 C   0  0  0  0  0  0  0  0  0  0  0  0
  153.9687  139.8045  184.5204 C   0  0  0  0  0  0  0  0  0  0  0  0
  154.9953  140.3400  183.7680 C   0  0  0  0  0  0  0  0  0  0  0  0
  155.7254  137.6151  186.8188 O   0  0  0  0  0  0  0  0  0  0  0  0
  155.7170  137.9057  188.1948 C   0  0  0  0  0  0  0  0  0  0  0  0
  154.5985  138.4334  188.8009 C   0  0  0  0  0  0  0  0  0  0  0  0
  154.5616  138.7311  190.1549 C   0  0  0  0  0  0  0  0  0  0  0  0
  155.7196  138.4660  190.8686 C   0  0  0  0  0  0  0  0  0  0  0  0
  156.8503  137.9378  190.2817 C   0  0  0  0  0  0  0  0  0  0  0  0
  156.8383  137.6614  188.9444 C   0  0  0  0  0  0  0  0  0  0  0  0
  158.5283  140.6905  184.2851 C   0  0  0  0  0  0  0  0  0  0  0  0
  159.0831  139.6702  184.7552 O   0  0  0  0  0  0  0  0  0  0  0  0
  158.9134  141.9692  184.7264 N   0  0  0  0  0  0  0  0  0  0  0  0
  158.4132  142.7910  184.2974 H   0  0  0  0  0  0  0  0  0  0  0  0
  159.9106  142.2569  185.6936 C   0  0  0  0  0  0  0  0  0  0  0  0
  161.2934  142.2257  185.4664 C   0  0  0  0  0  0  0  0  0  0  0  0
  161.9717  141.8889  184.1810 C   0  0  0  0  0  0  0  0  0  0  0  0
  161.9152  142.5497  186.5977 N   0  0  0  0  0  0  0  0  0  0  0  0
  161.0202  142.7864  187.5343 N   0  0  0  0  0  0  0  0  0  0  0  0
  159.7778  142.6162  187.0151 C   0  0  0  0  0  0  0  0  0  0  0  0
  162.9642  142.6199  186.7677 H   0  0  0  0  0  0  0  0  0  0  0  0
  157.0309  141.8648  182.6966 C   0  0  0  0  0  0  0  0  0  0  0  0
  157.6737  142.2166  181.4337 C   0  0  0  0  0  0  0  0  0  0  0  0
  158.3351  143.4067  181.2832 C   0  0  0  0  0  0  0  0  0  0  0  0
  158.9401  143.7164  180.0507 C   0  0  0  0  0  0  0  0  0  0  0  0
  158.8588  142.8410  179.0414 N   0  0  0  0  0  0  0  0  0  0  0  0
  158.2204  141.6641  179.1442 C   0  0  0  0  0  0  0  0  0  0  0  0
  157.6269  141.3548  180.3465 C   0  0  0  0  0  0  0  0  0  0  0  0
  158.3967  144.3504  182.3788 C   0  0  0  0  0  0  0  0  0  0  0  0
  157.5638  145.2206  182.6822 O   0  0  0  0  0  0  0  0  0  0  0  0
  159.5241  144.3093  183.2293 O   0  0  0  0  0  0  0  0  0  0  0  0
  160.2569  145.4760  183.5544 C   0  0  0  0  0  0  0  0  0  0  0  0
  2  1  1  0  0  0
  1 27  1  0  0  0
 27 28  1  0  0  0
 28 29  2  0  0  0
 29 34  1  0  0  0
 34 35  2  0  0  0
 34 36  1  0  0  0
 36 37  1  0  0  0
 29 30  1  0  0  0
 30 31  2  0  0  0
 31 32  1  0  0  0
 32 33  2  0  0  0
  1 16  1  0  0  0
 16 17  2  0  0  0
 16 18  1  0  0  0
 18 20  1  0  0  0
 20 21  2  0  0  0
 21 22  1  0  0  0
 21 23  1  0  0  0
 23 24  1  0  0  0
 24 25  2  0  0  0
  2  3  2  0  0  0
  3  4  1  0  0  0
  4  9  1  0  0  0
  9 10  1  0  0  0
 10 11  2  0  0  0
 11 12  1  0  0  0
 12 13  2  0  0  0
 13 14  1  0  0  0
 14 15  2  0  0  0
  4  5  2  0  0  0
  5  6  1  0  0  0
  5  7  1  0  0  0
  7  8  2  0  0  0
  8  2  1  0  0  0
 33 28  1  0  0  0
 25 20  1  0  0  0
 15 10  1  0  0  0
 18 19  1  0  0  0
 23 26  1  0  0  0
M  END
> <minimizedAffinity>
-8.98991

> <CNNscore>
0.5220127702

> <CNNaffinity>
7.3680672646

> <CNN_VS>
3.8462252617

> <CNNaffinity_variance>
0.2599430978

$$$$
[H]c1nc([H])c(C(=O)OC([H])([H])[H])c(C([H])([H])[C@@]([H])(C(=O)N([H])c2c([H])nn([H])c2C([H])([H])[H])c2c([H])c([H])c(C([H])([H])[H])c(Oc3c([H])c([H])c([H])c([H])c3[H])c2[H])c1[H]


 37 40  0  0  0  0  0  0  0  0999 V2000
  153.8127  139.7563  182.4304 C   0  0  0  0  0  0  0  0  0  0  0  0
  154.3615  139.2527  183.7435 C   0  0  0  0  0  0  0  0  0  0  0  0
  155.6532  139.5002  184.1166 C   0  0  0  0  0  0  0  0  0  0  0  0
  156.2061  139.0539  185.3272 C   0  0  0  0  0  0  0  0  0  0  0  0
  155.4067  138.3318  186.1802 C   0  0  0  0  0  0  0  0  0  0  0  0
  155.8690  137.8227  187.5110 C   0  0  0  0  0  0  0  0  0  0  0  0
  154.1019  138.0827  185.8001 C   0  0  0  0  0  0  0  0  0  0  0  0
  153.5644  138.5247  184.6074 C   0  0  0  0  0  0  0  0  0  0  0  0
  157.5045  139.3327  185.6506 O   0  0  0  0  0  0  0  0  0  0  0  0
  158.3486  140.2113  184.9483 C   0  0  0  0  0  0  0  0  0  0  0  0
  158.6192  141.4722  185.4319 C   0  0  0  0  0  0  0  0  0  0  0  0
  159.4463  142.3604  184.7607 C   0  0  0  0  0  0  0  0  0  0  0  0
  159.9892  141.9056  183.5694 C   0  0  0  0  0  0  0  0  0  0  0  0
  159.7316  140.6473  183.0674 C   0  0  0  0  0  0  0  0  0  0  0  0
  158.9101  139.8083  183.7646 C   0  0  0  0  0  0  0  0  0  0  0  0
  154.4854  141.1006  182.2752 C   0  0  0  0  0  0  0  0  0  0  0  0
  153.7900  142.1391  182.3636 O   0  0  0  0  0  0  0  0  0  0  0  0
  155.8681  141.1960  182.0355 N   0  0  0  0  0  0  0  0  0  0  0  0
  156.4030  140.2910  181.9702 H   0  0  0  0  0  0  0  0  0  0  0  0
  156.6097  142.3945  181.8733 C   0  0  0  0  0  0  0  0  0  0  0  0
  157.5789  142.6209  180.8863 C   0  0  0  0  0  0  0  0  0  0  0  0
  158.0096  141.6579  179.8315 C   0  0  0  0  0  0  0  0  0  0  0  0
  158.0614  143.8516  181.0420 N   0  0  0  0  0  0  0  0  0  0  0  0
  157.4640  144.4275  182.0645 N   0  0  0  0  0  0  0  0  0  0  0  0
  156.5658  143.5622  182.5998 C   0  0  0  0  0  0  0  0  0  0  0  0
  158.8096  144.3366  180.4597 H   0  0  0  0  0  0  0  0  0  0  0  0
  152.3193  139.9343  182.5788 C   0  0  0  0  0  0  0  0  0  0  0  0
  151.5564  139.5620  181.3908 C   0  0  0  0  0  0  0  0  0  0  0  0
  150.7970  138.4222  181.3653 C   0  0  0  0  0  0  0  0  0  0  0  0
  150.0773  138.0905  180.2021 C   0  0  0  0  0  0  0  0  0  0  0  0
  150.1469  138.8960  179.1353 N   0  0  0  0  0  0  0  0  0  0  0  0
  150.8787  140.0217  179.1158 C   0  0  0  0  0  0  0  0  0  0  0  0
  151.5847  140.3522  180.2498 C   0  0  0  0  0  0  0  0  0  0  0  0
  150.7486  137.5523  182.5209 C   0  0  0  0  0  0  0  0  0  0  0  0
  149.9783  137.6194  183.4931 O   0  0  0  0  0  0  0  0  0  0  0  0
  151.6726  136.4857  182.5896 O   0  0  0  0  0  0  0  0  0  0  0  0
  151.5876  135.4875  183.5898 C   0  0  0  0  0  0  0  0  0  0  0  0
  2  1  1  0  0  0
  1 27  1  0  0  0
 27 28  1  0  0  0
 28 29  2  0  0  0
 29 34  1  0  0  0
 34 35  2  0  0  0
 34 36  1  0  0  0
 36 37  1  0  0  0
 29 30  1  0  0  0
 30 31  2  0  0  0
 31 32  1  0  0  0
 32 33  2  0  0  0
  1 16  1  0  0  0
 16 17  2  0  0  0
 16 18  1  0  0  0
 18 20  1  0  0  0
 20 21  2  0  0  0
 21 22  1  0  0  0
 21 23  1  0  0  0
 23 24  1  0  0  0
 24 25  2  0  0  0
  2  3  2  0  0  0
  3  4  1  0  0  0
  4  9  1  0  0  0
  9 10  1  0  0  0
 10 11  2  0  0  0
 11 12  1  0  0  0
 12 13  2  0  0  0
 13 14  1  0  0  0
 14 15  2  0  0  0
  4  5  2  0  0  0
  5  6  1  0  0  0
  5  7  1  0  0  0
  7  8  2  0  0  0
  8  2  1  0  0  0
 33 28  1  0  0  0
 25 20  1  0  0  0
 15 10  1  0  0  0
 18 19  1  0  0  0
 23 26  1  0  0  0
M  END
> <minimizedAffinity>
-8.39459

> <CNNscore>
0.4906886518

> <CNNaffinity>
6.9261350632

> <CNN_VS>
3.3985757828

> <CNNaffinity_variance>
0.3726748228

$$$$
[H]c1nc([H])c(C(=O)OC([H])([H])[H])c(C([H])([H])[C@@]([H])(C(=O)N([H])c2c([H])nn([H])c2C([H])([H])[H])c2c([H])c([H])c(C([H])([H])[H])c(Oc3c([H])c([H])c([H])c([H])c3[H])c2[H])c1[H]


 37 40  0  0  0  0  0  0  0  0999 V2000
  157.2195  140.9809  183.3230 C   0  0  0  0  0  0  0  0  0  0  0  0
  156.1320  140.1967  184.0167 C   0  0  0  0  0  0  0  0  0  0  0  0
  156.4214  139.3089  185.0152 C   0  0  0  0  0  0  0  0  0  0  0  0
  155.4443  138.5595  185.6891 C   0  0  0  0  0  0  0  0  0  0  0  0
  154.1300  138.7283  185.3259 C   0  0  0  0  0  0  0  0  0  0  0  0
  152.9932  138.0088  185.9849 C   0  0  0  0  0  0  0  0  0  0  0  0
  153.8406  139.6258  184.3160 C   0  0  0  0  0  0  0  0  0  0  0  0
  154.8069  140.3597  183.6570 C   0  0  0  0  0  0  0  0  0  0  0  0
  155.7907  137.6870  186.6826 O   0  0  0  0  0  0  0  0  0  0  0  0
  155.7260  137.9548  188.0616 C   0  0  0  0  0  0  0  0  0  0  0  0
  154.5574  138.3928  188.6444 C   0  0  0  0  0  0  0  0  0  0  0  0
  154.4641  138.6661  190.0009 C   0  0  0  0  0  0  0  0  0  0  0  0
  155.6191  138.4723  190.7420 C   0  0  0  0  0  0  0  0  0  0  0  0
  156.7993  138.0345  190.1787 C   0  0  0  0  0  0  0  0  0  0  0  0
  156.8418  137.7787  188.8380 C   0  0  0  0  0  0  0  0  0  0  0  0
  157.9913  141.5818  184.4748 C   0  0  0  0  0  0  0  0  0  0  0  0
  157.3575  142.0550  185.4466 O   0  0  0  0  0  0  0  0  0  0  0  0
  159.3974  141.6146  184.4668 N   0  0  0  0  0  0  0  0  0  0  0  0
  159.8779  141.2031  183.6245 H   0  0  0  0  0  0  0  0  0  0  0  0
  160.2291  142.1488  185.4844 C   0  0  0  0  0  0  0  0  0  0  0  0
  161.6193  142.3050  185.3964 C   0  0  0  0  0  0  0  0  0  0  0  0
  162.4784  141.9446  184.2312 C   0  0  0  0  0  0  0  0  0  0  0  0
  162.0582  142.8348  186.5359 N   0  0  0  0  0  0  0  0  0  0  0  0
  161.0392  143.0278  187.3473 N   0  0  0  0  0  0  0  0  0  0  0  0
  159.8993  142.6180  186.7350 C   0  0  0  0  0  0  0  0  0  0  0  0
  163.0610  143.0808  186.7963 H   0  0  0  0  0  0  0  0  0  0  0  0
  156.5679  142.0724  182.5057 C   0  0  0  0  0  0  0  0  0  0  0  0
  157.5025  143.0748  182.0019 C   0  0  0  0  0  0  0  0  0  0  0  0
  158.2395  142.8499  180.8694 C   0  0  0  0  0  0  0  0  0  0  0  0
  159.1347  143.8357  180.4136 C   0  0  0  0  0  0  0  0  0  0  0  0
  159.2529  144.9810  181.0964 N   0  0  0  0  0  0  0  0  0  0  0  0
  158.5513  145.2432  182.2110 C   0  0  0  0  0  0  0  0  0  0  0  0
  157.6741  144.2839  182.6620 C   0  0  0  0  0  0  0  0  0  0  0  0
  158.1138  141.5979  180.1543 C   0  0  0  0  0  0  0  0  0  0  0  0
  157.2690  141.2922  179.2964 O   0  0  0  0  0  0  0  0  0  0  0  0
  159.0454  140.5740  180.4372 O   0  0  0  0  0  0  0  0  0  0  0  0
  158.7547  139.5315  181.3497 C   0  0  0  0  0  0  0  0  0  0  0  0
  2  1  1  0  0  0
  1 27  1  0  0  0
 27 28  1  0  0  0
 28 29  2  0  0  0
 29 34  1  0  0  0
 34 35  2  0  0  0
 34 36  1  0  0  0
 36 37  1  0  0  0
 29 30  1  0  0  0
 30 31  2  0  0  0
 31 32  1  0  0  0
 32 33  2  0  0  0
  1 16  1  0  0  0
 16 17  2  0  0  0
 16 18  1  0  0  0
 18 20  1  0  0  0
 20 21  2  0  0  0
 21 22  1  0  0  0
 21 23  1  0  0  0
 23 24  1  0  0  0
 24 25  2  0  0  0
  2  3  2  0  0  0
  3  4  1  0  0  0
  4  9  1  0  0  0
  9 10  1  0  0  0
 10 11  2  0  0  0
 11 12  1  0  0  0
 12 13  2  0  0  0
 13 14  1  0  0  0
 14 15  2  0  0  0
  4  5  2  0  0  0
  5  6  1  0  0  0
  5  7  1  0  0  0
  7  8  2  0  0  0
  8  2  1  0  0  0
 33 28  1  0  0  0
 25 20  1  0  0  0
 15 10  1  0  0  0
 18 19  1  0  0  0
 23 26  1  0  0  0
M  END
> <minimizedAffinity>
-9.02803

> <CNNscore>
0.3881135881

> <CNNaffinity>
7.2405562401

> <CNN_VS>
2.8101582527

> <CNNaffinity_variance>
0.2996820807

$$$$
[H]c1nc([H])c(C(=O)OC([H])([H])[H])c(C([H])([H])[C@@]([H])(C(=O)N([H])c2c([H])nn([H])c2C([H])([H])[H])c2c([H])c([H])c(C([H])([H])[H])c(Oc3c([H])c([H])c([H])c([H])c3[H])c2[H])c1[H]


 37 40  0  0  0  0  0  0  0  0999 V2000
  154.2794  138.8075  184.4092 C   0  0  0  0  0  0  0  0  0  0  0  0
  155.5531  139.6168  184.4467 C   0  0  0  0  0  0  0  0  0  0  0  0
  155.6872  140.7665  183.7191 C   0  0  0  0  0  0  0  0  0  0  0  0
  156.8508  141.5517  183.7239 C   0  0  0  0  0  0  0  0  0  0  0  0
  157.9081  141.1430  184.5004 C   0  0  0  0  0  0  0  0  0  0  0  0
  159.1927  141.9056  184.6121 C   0  0  0  0  0  0  0  0  0  0  0  0
  157.7698  139.9805  185.2341 C   0  0  0  0  0  0  0  0  0  0  0  0
  156.6222  139.2125  185.2246 C   0  0  0  0  0  0  0  0  0  0  0  0
  156.9291  142.6945  182.9780 O   0  0  0  0  0  0  0  0  0  0  0  0
  157.6733  142.8458  181.7944 C   0  0  0  0  0  0  0  0  0  0  0  0
  158.4955  143.9350  181.6087 C   0  0  0  0  0  0  0  0  0  0  0  0
  159.2399  144.1115  180.4518 C   0  0  0  0  0  0  0  0  0  0  0  0
  159.1100  143.1245  179.4876 C   0  0  0  0  0  0  0  0  0  0  0  0
  158.2928  142.0260  179.6533 C   0  0  0  0  0  0  0  0  0  0  0  0
  157.5790  141.8965  180.8102 C   0  0  0  0  0  0  0  0  0  0  0  0
  153.5162  139.4294  183.2628 C   0  0  0  0  0  0  0  0  0  0  0  0
  153.5119  140.6768  183.1446 O   0  0  0  0  0  0  0  0  0  0  0  0
  152.8191  138.6311  182.3381 N   0  0  0  0  0  0  0  0  0  0  0  0
  152.8568  137.5888  182.4861 H   0  0  0  0  0  0  0  0  0  0  0  0
  152.0709  139.0960  181.2261 C   0  0  0  0  0  0  0  0  0  0  0  0
  150.6721  139.1010  181.1350 C   0  0  0  0  0  0  0  0  0  0  0  0
  149.7158  138.6252  182.1764 C   0  0  0  0  0  0  0  0  0  0  0  0
  150.3273  139.6062  179.9529 N   0  0  0  0  0  0  0  0  0  0  0  0
  151.4143  139.9250  179.2815 N   0  0  0  0  0  0  0  0  0  0  0  0
  152.5045  139.6255  180.0325 C   0  0  0  0  0  0  0  0  0  0  0  0
  149.3450  139.7496  179.5671 H   0  0  0  0  0  0  0  0  0  0  0  0
  153.5401  139.0281  185.7088 C   0  0  0  0  0  0  0  0  0  0  0  0
  153.5944  137.8908  186.6228 C   0  0  0  0  0  0  0  0  0  0  0  0
  152.6798  136.8741  186.5432 C   0  0  0  0  0  0  0  0  0  0  0  0
  152.7582  135.7946  187.4429 C   0  0  0  0  0  0  0  0  0  0  0  0
  153.7277  135.7784  188.3656 N   0  0  0  0  0  0  0  0  0  0  0  0
  154.6441  136.7533  188.4803 C   0  0  0  0  0  0  0  0  0  0  0  0
  154.5735  137.8116  187.6037 C   0  0  0  0  0  0  0  0  0  0  0  0
  151.6261  136.9171  185.5520 C   0  0  0  0  0  0  0  0  0  0  0  0
  151.6908  136.5854  184.3567 O   0  0  0  0  0  0  0  0  0  0  0  0
  150.3553  137.3869  185.9524 O   0  0  0  0  0  0  0  0  0  0  0  0
  149.1610  136.7360  185.5599 C   0  0  0  0  0  0  0  0  0  0  0  0
  2  1  1  0  0  0
  1 27  1  0  0  0
 27 28  1  0  0  0
 28 29  2  0  0  0
 29 34  1  0  0  0
 34 35  2  0  0  0
 34 36  1  0  0  0
 36 37  1  0  0  0
 29 30  1  0  0  0
 30 31  2  0  0  0
 31 32  1  0  0  0
 32 33  2  0  0  0
  1 16  1  0  0  0
 16 17  2  0  0  0
 16 18  1  0  0  0
 18 20  1  0  0  0
 20 21  2  0  0  0
 21 22  1  0  0  0
 21 23  1  0  0  0
 23 24  1  0  0  0
 24 25  2  0  0  0
  2  3  2  0  0  0
  3  4  1  0  0  0
  4  9  1  0  0  0
  9 10  1  0  0  0
 10 11  2  0  0  0
 11 12  1  0  0  0
 12 13  2  0  0  0
 13 14  1  0  0  0
 14 15  2  0  0  0
  4  5  2  0  0  0
  5  6  1  0  0  0
  5  7  1  0  0  0
  7  8  2  0  0  0
  8  2  1  0  0  0
 33 28  1  0  0  0
 25 20  1  0  0  0
 15 10  1  0  0  0
 18 19  1  0  0  0
 23 26  1  0  0  0
M  END
> <minimizedAffinity>
-8.20384

> <CNNscore>
0.3842257261

> <CNNaffinity>
6.5794801712

> <CNN_VS>
2.5280056000

> <CNNaffinity_variance>
0.2556049228

$$$$
[H]c1nc([H])c(C(=O)OC([H])([H])[H])c(C([H])([H])[C@@]([H])(C(=O)N([H])c2c([H])nn([H])c2C([H])([H])[H])c2c([H])c([H])c(C([H])([H])[H])c(Oc3c([H])c([H])c([H])c([H])c3[H])c2[H])c1[H]


 37 40  0  0  0  0  0  0  0  0999 V2000
  157.2910  140.0886  183.4001 C   0  0  0  0  0  0  0  0  0  0  0  0
  156.2511  139.4129  184.2608 C   0  0  0  0  0  0  0  0  0  0  0  0
  154.9831  139.1892  183.8013 C   0  0  0  0  0  0  0  0  0  0  0  0
  153.9846  138.5638  184.5644 C   0  0  0  0  0  0  0  0  0  0  0  0
  154.2993  138.1555  185.8380 C   0  0  0  0  0  0  0  0  0  0  0  0
  153.3322  137.4541  186.7419 C   0  0  0  0  0  0  0  0  0  0  0  0
  155.5813  138.3835  186.2999 C   0  0  0  0  0  0  0  0  0  0  0  0
  156.5589  138.9996  185.5439 C   0  0  0  0  0  0  0  0  0  0  0  0
  152.7329  138.3634  184.0529 O   0  0  0  0  0  0  0  0  0  0  0  0
  152.3253  138.6858  182.7462 C   0  0  0  0  0  0  0  0  0  0  0  0
  151.5869  137.7984  181.9949 C   0  0  0  0  0  0  0  0  0  0  0  0
  151.1722  138.0883  180.7036 C   0  0  0  0  0  0  0  0  0  0  0  0
  151.5439  139.3282  180.2085 C   0  0  0  0  0  0  0  0  0  0  0  0
  152.2826  140.2314  180.9435 C   0  0  0  0  0  0  0  0  0  0  0  0
  152.6680  139.9003  182.2111 C   0  0  0  0  0  0  0  0  0  0  0  0
  157.9363  141.0674  184.3535 C   0  0  0  0  0  0  0  0  0  0  0  0
  157.2340  141.9753  184.8559 O   0  0  0  0  0  0  0  0  0  0  0  0
  159.3012  140.9701  184.6787 N   0  0  0  0  0  0  0  0  0  0  0  0
  159.8432  140.1880  184.2268 H   0  0  0  0  0  0  0  0  0  0  0  0
  160.0166  141.8247  185.5565 C   0  0  0  0  0  0  0  0  0  0  0  0
  161.3275  142.2789  185.3565 C   0  0  0  0  0  0  0  0  0  0  0  0
  162.2090  141.9550  184.1974 C   0  0  0  0  0  0  0  0  0  0  0  0
  161.6662  143.0577  186.3813 N   0  0  0  0  0  0  0  0  0  0  0  0
  160.6572  143.1317  187.2242 N   0  0  0  0  0  0  0  0  0  0  0  0
  159.6263  142.3867  186.7503 C   0  0  0  0  0  0  0  0  0  0  0  0
  162.5910  143.5617  186.5389 H   0  0  0  0  0  0  0  0  0  0  0  0
  156.5790  140.8310  182.2929 C   0  0  0  0  0  0  0  0  0  0  0  0
  157.4573  141.6646  181.4770 C   0  0  0  0  0  0  0  0  0  0  0  0
  157.2657  143.0179  181.3860 C   0  0  0  0  0  0  0  0  0  0  0  0
  158.1283  143.7914  180.5869 C   0  0  0  0  0  0  0  0  0  0  0  0
  159.1251  143.1908  179.9256 N   0  0  0  0  0  0  0  0  0  0  0  0
  159.3492  141.8681  179.9852 C   0  0  0  0  0  0  0  0  0  0  0  0
  158.5098  141.1058  180.7648 C   0  0  0  0  0  0  0  0  0  0  0  0
  156.1710  143.6484  182.0921 C   0  0  0  0  0  0  0  0  0  0  0  0
  156.1406  144.7858  182.5905 O   0  0  0  0  0  0  0  0  0  0  0  0
  154.9746  142.9148  182.2555 O   0  0  0  0  0  0  0  0  0  0  0  0
  153.8134  143.4962  182.8189 C   0  0  0  0  0  0  0  0  0  0  0  0
  2  1  1  0  0  0
  1 27  1  0  0  0
 27 28  1  0  0  0
 28 29  2  0  0  0
 29 34  1  0  0  0
 34 35  2  0  0  0
 34 36  1  0  0  0
 36 37  1  0  0  0
 29 30  1  0  0  0
 30 31  2  0  0  0
 31 32  1  0  0  0
 32 33  2  0  0  0
  1 16  1  0  0  0
 16 17  2  0  0  0
 16 18  1  0  0  0
 18 20  1  0  0  0
 20 21  2  0  0  0
 21 22  1  0  0  0
 21 23  1  0  0  0
 23 24  1  0  0  0
 24 25  2  0  0  0
  2  3  2  0  0  0
  3  4  1  0  0  0
  4  9  1  0  0  0
  9 10  1  0  0  0
 10 11  2  0  0  0
 11 12  1  0  0  0
 12 13  2  0  0  0
 13 14  1  0  0  0
 14 15  2  0  0  0
  4  5  2  0  0  0
  5  6  1  0  0  0
  5  7  1  0  0  0
  7  8  2  0  0  0
  8  2  1  0  0  0
 33 28  1  0  0  0
 25 20  1  0  0  0
 15 10  1  0  0  0
 18 19  1  0  0  0
 23 26  1  0  0  0
M  END
> <minimizedAffinity>
-8.48499

> <CNNscore>
0.3619391322

> <CNNaffinity>
7.0521788597

> <CNN_VS>
2.5524594784

> <CNNaffinity_variance>
0.3334842324

$$$$
[H]c1nc([H])c(C(=O)OC([H])([H])[H])c(C([H])([H])[C@@]([H])(C(=O)N([H])c2c([H])nn([H])c2C([H])([H])[H])c2c([H])c([H])c(C([H])([H])[H])c(Oc3c([H])c([H])c([H])c([H])c3[H])c2[H])c1[H]


 37 40  0  0  0  0  0  0  0  0999 V2000
  158.0253  140.6255  183.2351 C   0  0  0  0  0  0  0  0  0  0  0  0
  156.9512  139.9898  184.0843 C   0  0  0  0  0  0  0  0  0  0  0  0
  155.6360  140.0261  183.7128 C   0  0  0  0  0  0  0  0  0  0  0  0
  154.6041  139.4481  184.4688 C   0  0  0  0  0  0  0  0  0  0  0  0
  154.9343  138.8132  185.6418 C   0  0  0  0  0  0  0  0  0  0  0  0
  153.9307  138.1352  186.5235 C   0  0  0  0  0  0  0  0  0  0  0  0
  156.2642  138.7787  186.0148 C   0  0  0  0  0  0  0  0  0  0  0  0
  157.2744  139.3496  185.2664 C   0  0  0  0  0  0  0  0  0  0  0  0
  153.3053  139.5124  184.0479 O   0  0  0  0  0  0  0  0  0  0  0  0
  152.8622  139.2812  182.7334 C   0  0  0  0  0  0  0  0  0  0  0  0
  152.6181  140.3288  181.8732 C   0  0  0  0  0  0  0  0  0  0  0  0
  152.1794  140.1314  180.5724 C   0  0  0  0  0  0  0  0  0  0  0  0
  151.9999  138.8133  180.1837 C   0  0  0  0  0  0  0  0  0  0  0  0
  152.2385  137.7498  181.0286 C   0  0  0  0  0  0  0  0  0  0  0  0
  152.6694  137.9948  182.3011 C   0  0  0  0  0  0  0  0  0  0  0  0
  159.1606  140.8192  184.2135 C   0  0  0  0  0  0  0  0  0  0  0  0
  159.8555  139.8284  184.5381 O   0  0  0  0  0  0  0  0  0  0  0  0
  159.4414  142.0859  184.7566 N   0  0  0  0  0  0  0  0  0  0  0  0
  158.8250  142.8826  184.4488 H   0  0  0  0  0  0  0  0  0  0  0  0
  160.4752  142.3918  185.6788 C   0  0  0  0  0  0  0  0  0  0  0  0
  161.8476  142.3710  185.3945 C   0  0  0  0  0  0  0  0  0  0  0  0
  162.4751  142.0281  184.0852 C   0  0  0  0  0  0  0  0  0  0  0  0
  162.5128  142.7115  186.4960 N   0  0  0  0  0  0  0  0  0  0  0  0
  161.6552  142.9490  187.4667 N   0  0  0  0  0  0  0  0  0  0  0  0
  160.3940  142.7626  187.0013 C   0  0  0  0  0  0  0  0  0  0  0  0
  163.5671  142.7928  186.6215 H   0  0  0  0  0  0  0  0  0  0  0  0
  157.5171  141.9648  182.7537 C   0  0  0  0  0  0  0  0  0  0  0  0
  158.0270  142.3568  181.4429 C   0  0  0  0  0  0  0  0  0  0  0  0
  158.6401  143.5672  181.2545 C   0  0  0  0  0  0  0  0  0  0  0  0
  159.1163  143.9154  179.9766 C   0  0  0  0  0  0  0  0  0  0  0  0
  158.9617  143.0562  178.9620 N   0  0  0  0  0  0  0  0  0  0  0  0
  158.3667  141.8604  179.1010 C   0  0  0  0  0  0  0  0  0  0  0  0
  157.8989  141.5134  180.3477 C   0  0  0  0  0  0  0  0  0  0  0  0
  158.7815  144.4925  182.3582 C   0  0  0  0  0  0  0  0  0  0  0  0
  157.9607  145.3364  182.7547 O   0  0  0  0  0  0  0  0  0  0  0  0
  159.9838  144.4643  183.0998 O   0  0  0  0  0  0  0  0  0  0  0  0
  160.4671  145.6067  183.7820 C   0  0  0  0  0  0  0  0  0  0  0  0
  2  1  1  0  0  0
  1 27  1  0  0  0
 27 28  1  0  0  0
 28 29  2  0  0  0
 29 34  1  0  0  0
 34 35  2  0  0  0
 34 36  1  0  0  0
 36 37  1  0  0  0
 29 30  1  0  0  0
 30 31  2  0  0  0
 31 32  1  0  0  0
 32 33  2  0  0  0
  1 16  1  0  0  0
 16 17  2  0  0  0
 16 18  1  0  0  0
 18 20  1  0  0  0
 20 21  2  0  0  0
 21 22  1  0  0  0
 21 23  1  0  0  0
 23 24  1  0  0  0
 24 25  2  0  0  0
  2  3  2  0  0  0
  3  4  1  0  0  0
  4  9  1  0  0  0
  9 10  1  0  0  0
 10 11  2  0  0  0
 11 12  1  0  0  0
 12 13  2  0  0  0
 13 14  1  0  0  0
 14 15  2  0  0  0
  4  5  2  0  0  0
  5  6  1  0  0  0
  5  7  1  0  0  0
  7  8  2  0  0  0
  8  2  1  0  0  0
 33 28  1  0  0  0
 25 20  1  0  0  0
 15 10  1  0  0  0
 18 19  1  0  0  0
 23 26  1  0  0  0
M  END
> <minimizedAffinity>
-8.50698

> <CNNscore>
0.3048776984

> <CNNaffinity>
7.1968102455

> <CNN_VS>
2.1941468716

> <CNNaffinity_variance>
0.3006213307

$$$$
[H]c1nc([H])c(C(=O)OC([H])([H])[H])c(C([H])([H])[C@@]([H])(C(=O)N([H])c2c([H])nn([H])c2C([H])([H])[H])c2c([H])c([H])c(C([H])([H])[H])c(Oc3c([H])c([H])c([H])c([H])c3[H])c2[H])c1[H]


 37 40  0  0  0  0  0  0  0  0999 V2000
  155.4565  140.1507  184.4988 C   0  0  0  0  0  0  0  0  0  0  0  0
  154.9045  139.0674  185.3937 C   0  0  0  0  0  0  0  0  0  0  0  0
  155.7288  138.2747  186.1428 C   0  0  0  0  0  0  0  0  0  0  0  0
  155.2613  137.2572  186.9893 C   0  0  0  0  0  0  0  0  0  0  0  0
  153.9055  137.0487  187.0685 C   0  0  0  0  0  0  0  0  0  0  0  0
  153.2803  136.0141  187.9533 C   0  0  0  0  0  0  0  0  0  0  0  0
  153.0750  137.8511  186.3098 C   0  0  0  0  0  0  0  0  0  0  0  0
  153.5417  138.8502  185.4787 C   0  0  0  0  0  0  0  0  0  0  0  0
  156.1315  136.4957  187.7181 O   0  0  0  0  0  0  0  0  0  0  0  0
  156.2636  136.5234  189.1179 C   0  0  0  0  0  0  0  0  0  0  0  0
  156.1778  137.7085  189.8144 C   0  0  0  0  0  0  0  0  0  0  0  0
  156.3054  137.7667  191.1942 C   0  0  0  0  0  0  0  0  0  0  0  0
  156.5249  136.5587  191.8370 C   0  0  0  0  0  0  0  0  0  0  0  0
  156.6140  135.3611  191.1591 C   0  0  0  0  0  0  0  0  0  0  0  0
  156.4820  135.3547  189.7999 C   0  0  0  0  0  0  0  0  0  0  0  0
  154.3646  140.3291  183.4695 C   0  0  0  0  0  0  0  0  0  0  0  0
  153.9464  141.4847  183.2250 O   0  0  0  0  0  0  0  0  0  0  0  0
  153.8200  139.2239  182.7912 N   0  0  0  0  0  0  0  0  0  0  0  0
  154.2090  138.2763  183.0368 H   0  0  0  0  0  0  0  0  0  0  0  0
  152.7973  139.2643  181.8088 C   0  0  0  0  0  0  0  0  0  0  0  0
  151.9115  138.2178  181.5171 C   0  0  0  0  0  0  0  0  0  0  0  0
  151.8752  136.8796  182.1755 C   0  0  0  0  0  0  0  0  0  0  0  0
  151.0947  138.6142  180.5439 N   0  0  0  0  0  0  0  0  0  0  0  0
  151.4000  139.8464  180.1938 N   0  0  0  0  0  0  0  0  0  0  0  0
  152.4413  140.2783  180.9497 C   0  0  0  0  0  0  0  0  0  0  0  0
  150.3066  138.0610  180.0889 H   0  0  0  0  0  0  0  0  0  0  0  0
  156.7126  139.6272  183.8416 C   0  0  0  0  0  0  0  0  0  0  0  0
  157.8848  140.4742  184.0428 C   0  0  0  0  0  0  0  0  0  0  0  0
  158.7230  140.7816  183.0039 C   0  0  0  0  0  0  0  0  0  0  0  0
  159.8468  141.5974  183.2334 C   0  0  0  0  0  0  0  0  0  0  0  0
  160.0802  142.0610  184.4672 N   0  0  0  0  0  0  0  0  0  0  0  0
  159.2862  141.7844  185.5143 C   0  0  0  0  0  0  0  0  0  0  0  0
  158.1857  140.9876  185.2970 C   0  0  0  0  0  0  0  0  0  0  0  0
  158.4667  140.2559  181.6801 C   0  0  0  0  0  0  0  0  0  0  0  0
  158.8833  139.1940  181.1884 O   0  0  0  0  0  0  0  0  0  0  0  0
  157.6482  141.0118  180.8113 O   0  0  0  0  0  0  0  0  0  0  0  0
  158.1945  141.9175  179.8704 C   0  0  0  0  0  0  0  0  0  0  0  0
  2  1  1  0  0  0
  1 27  1  0  0  0
 27 28  1  0  0  0
 28 29  2  0  0  0
 29 34  1  0  0  0
 34 35  2  0  0  0
 34 36  1  0  0  0
 36 37  1  0  0  0
 29 30  1  0  0  0
 30 31  2  0  0  0
 31 32  1  0  0  0
 32 33  2  0  0  0
  1 16  1  0  0  0
 16 17  2  0  0  0
 16 18  1  0  0  0
 18 20  1  0  0  0
 20 21  2  0  0  0
 21 22  1  0  0  0
 21 23  1  0  0  0
 23 24  1  0  0  0
 24 25  2  0  0  0
  2  3  2  0  0  0
  3  4  1  0  0  0
  4  9  1  0  0  0
  9 10  1  0  0  0
 10 11  2  0  0  0
 11 12  1  0  0  0
 12 13  2  0  0  0
 13 14  1  0  0  0
 14 15  2  0  0  0
  4  5  2  0  0  0
  5  6  1  0  0  0
  5  7  1  0  0  0
  7  8  2  0  0  0
  8  2  1  0  0  0
 33 28  1  0  0  0
 25 20  1  0  0  0
 15 10  1  0  0  0
 18 19  1  0  0  0
 23 26  1  0  0  0
M  END
> <minimizedAffinity>
-8.50642

> <CNNscore>
0.2981600165

> <CNNaffinity>
6.4102301598

> <CNN_VS>
1.9112743139

> <CNNaffinity_variance>
0.3191977441

$$$$
[H]c1nc([H])c(C(=O)OC([H])([H])[H])c(C([H])([H])[C@@]([H])(C(=O)N([H])c2c([H])nn([H])c2C([H])([H])[H])c2c([H])c([H])c(C([H])([H])[H])c(Oc3c([H])c([H])c([H])c([H])c3[H])c2[H])c1[H]


 37 40  0  0  0  0  0  0  0  0999 V2000
  153.1472  139.3100  183.0199 C   0  0  0  0  0  0  0  0  0  0  0  0
  154.0807  140.4827  182.8398 C   0  0  0  0  0  0  0  0  0  0  0  0
  155.4381  140.3218  182.8642 C   0  0  0  0  0  0  0  0  0  0  0  0
  156.3440  141.3814  182.6999 C   0  0  0  0  0  0  0  0  0  0  0  0
  155.8393  142.6443  182.5040 C   0  0  0  0  0  0  0  0  0  0  0  0
  156.6992  143.8521  182.2897 C   0  0  0  0  0  0  0  0  0  0  0  0
  154.4671  142.8037  182.4804 C   0  0  0  0  0  0  0  0  0  0  0  0
  153.5814  141.7569  182.6431 C   0  0  0  0  0  0  0  0  0  0  0  0
  157.6929  141.1624  182.7308 O   0  0  0  0  0  0  0  0  0  0  0  0
  158.5550  141.5336  183.7780 C   0  0  0  0  0  0  0  0  0  0  0  0
  158.1882  141.3578  185.0939 C   0  0  0  0  0  0  0  0  0  0  0  0
  159.0167  141.7155  186.1471 C   0  0  0  0  0  0  0  0  0  0  0  0
  160.2418  142.2625  185.7996 C   0  0  0  0  0  0  0  0  0  0  0  0
  160.6288  142.4470  184.4889 C   0  0  0  0  0  0  0  0  0  0  0  0
  159.7781  142.0792  183.4860 C   0  0  0  0  0  0  0  0  0  0  0  0
  153.8196  138.5056  184.1082 C   0  0  0  0  0  0  0  0  0  0  0  0
  154.2281  137.3511  183.8428 O   0  0  0  0  0  0  0  0  0  0  0  0
  153.9895  139.0339  185.4006 N   0  0  0  0  0  0  0  0  0  0  0  0
  153.6267  140.0087  185.5673 H   0  0  0  0  0  0  0  0  0  0  0  0
  154.6024  138.3791  186.4997 C   0  0  0  0  0  0  0  0  0  0  0  0
  153.9218  137.7319  187.5402 C   0  0  0  0  0  0  0  0  0  0  0  0
  152.4424  137.6093  187.6883 C   0  0  0  0  0  0  0  0  0  0  0  0
  154.8195  137.2359  188.3886 N   0  0  0  0  0  0  0  0  0  0  0  0
  156.0304  137.5235  187.9586 N   0  0  0  0  0  0  0  0  0  0  0  0
  155.9362  138.2252  186.8006 C   0  0  0  0  0  0  0  0  0  0  0  0
  154.6372  136.6881  189.2834 H   0  0  0  0  0  0  0  0  0  0  0  0
  153.1214  138.5233  181.7298 C   0  0  0  0  0  0  0  0  0  0  0  0
  151.9371  138.7653  180.9108 C   0  0  0  0  0  0  0  0  0  0  0  0
  150.8042  138.0105  181.0633 C   0  0  0  0  0  0  0  0  0  0  0  0
  149.6817  138.2676  180.2541 C   0  0  0  0  0  0  0  0  0  0  0  0
  149.7389  139.2482  179.3448 N   0  0  0  0  0  0  0  0  0  0  0  0
  150.8281  140.0118  179.1608 C   0  0  0  0  0  0  0  0  0  0  0  0
  151.9291  139.7660  179.9486 C   0  0  0  0  0  0  0  0  0  0  0  0
  150.7662  136.9413  182.0379 C   0  0  0  0  0  0  0  0  0  0  0  0
  151.1780  135.7767  181.9074 O   0  0  0  0  0  0  0  0  0  0  0  0
  150.2001  137.2147  183.3032 O   0  0  0  0  0  0  0  0  0  0  0  0
  150.6795  136.5989  184.4843 C   0  0  0  0  0  0  0  0  0  0  0  0
  2  1  1  0  0  0
  1 27  1  0  0  0
 27 28  1  0  0  0
 28 29  2  0  0  0
 29 34  1  0  0  0
 34 35  2  0  0  0
 34 36  1  0  0  0
 36 37  1  0  0  0
 29 30  1  0  0  0
 30 31  2  0  0  0
 31 32  1  0  0  0
 32 33  2  0  0  0
  1 16  1  0  0  0
 16 17  2  0  0  0
 16 18  1  0  0  0
 18 20  1  0  0  0
 20 21  2  0  0  0
 21 22  1  0  0  0
 21 23  1  0  0  0
 23 24  1  0  0  0
 24 25  2  0  0  0
  2  3  2  0  0  0
  3  4  1  0  0  0
  4  9  1  0  0  0
  9 10  1  0  0  0
 10 11  2  0  0  0
 11 12  1  0  0  0
 12 13  2  0  0  0
 13 14  1  0  0  0
 14 15  2  0  0  0
  4  5  2  0  0  0
  5  6  1  0  0  0
  5  7  1  0  0  0
  7  8  2  0  0  0
  8  2  1  0  0  0
 33 28  1  0  0  0
 25 20  1  0  0  0
 15 10  1  0  0  0
 18 19  1  0  0  0
 23 26  1  0  0  0
M  END
> <minimizedAffinity>
-8.41246

> <CNNscore>
0.2736073434

> <CNNaffinity>
6.4478287697

> <CNN_VS>
1.7641732693

> <CNNaffinity_variance>
0.2982653379

$$$$
[H]c1nc([H])c(C(=O)OC([H])([H])[H])c(C([H])([H])[C@@]([H])(C(=O)N([H])c2c([H])nn([H])c2C([H])([H])[H])c2c([H])c([H])c(C([H])([H])[H])c(Oc3c([H])c([H])c([H])c([H])c3[H])c2[H])c1[H]


 37 40  0  0  0  0  0  0  0  0999 V2000
  153.5982  139.0617  184.3883 C   0  0  0  0  0  0  0  0  0  0  0  0
  154.6674  140.0483  183.9856 C   0  0  0  0  0  0  0  0  0  0  0  0
  155.9928  139.7850  184.1925 C   0  0  0  0  0  0  0  0  0  0  0  0
  157.0211  140.6707  183.8335 C   0  0  0  0  0  0  0  0  0  0  0  0
  156.6762  141.8627  183.2434 C   0  0  0  0  0  0  0  0  0  0  0  0
  157.6790  142.8794  182.7908 C   0  0  0  0  0  0  0  0  0  0  0  0
  155.3359  142.1262  183.0362 C   0  0  0  0  0  0  0  0  0  0  0  0
  154.3293  141.2505  183.3921 C   0  0  0  0  0  0  0  0  0  0  0  0
  158.3311  140.3544  184.0619 O   0  0  0  0  0  0  0  0  0  0  0  0
  159.2547  141.1580  184.7540 C   0  0  0  0  0  0  0  0  0  0  0  0
  160.4657  141.4923  184.1897 C   0  0  0  0  0  0  0  0  0  0  0  0
  161.3964  142.2816  184.8487 C   0  0  0  0  0  0  0  0  0  0  0  0
  161.0376  142.7182  186.1142 C   0  0  0  0  0  0  0  0  0  0  0  0
  159.8305  142.3954  186.6976 C   0  0  0  0  0  0  0  0  0  0  0  0
  158.9464  141.6149  186.0090 C   0  0  0  0  0  0  0  0  0  0  0  0
  154.2962  138.2085  185.4219 C   0  0  0  0  0  0  0  0  0  0  0  0
  154.8653  137.1550  185.0527 O   0  0  0  0  0  0  0  0  0  0  0  0
  154.3133  138.5811  186.7780 N   0  0  0  0  0  0  0  0  0  0  0  0
  153.8188  139.4760  187.0316 H   0  0  0  0  0  0  0  0  0  0  0  0
  154.9326  137.8667  187.8357 C   0  0  0  0  0  0  0  0  0  0  0  0
  154.3328  136.8445  188.5840 C   0  0  0  0  0  0  0  0  0  0  0  0
  152.9471  136.3190  188.4131 C   0  0  0  0  0  0  0  0  0  0  0  0
  155.2103  136.4098  189.4855 N   0  0  0  0  0  0  0  0  0  0  0  0
  156.3327  137.0874  189.3628 N   0  0  0  0  0  0  0  0  0  0  0  0
  156.1990  137.9913  188.3591 C   0  0  0  0  0  0  0  0  0  0  0  0
  155.0736  135.6413  190.2100 H   0  0  0  0  0  0  0  0  0  0  0  0
  153.2427  138.2290  183.1782 C   0  0  0  0  0  0  0  0  0  0  0  0
  151.8349  137.8468  183.1137 C   0  0  0  0  0  0  0  0  0  0  0  0
  150.9999  138.3770  182.1661 C   0  0  0  0  0  0  0  0  0  0  0  0
  149.6470  137.9901  182.1348 C   0  0  0  0  0  0  0  0  0  0  0  0
  149.1957  137.1079  183.0346 N   0  0  0  0  0  0  0  0  0  0  0  0
  149.9780  136.5639  183.9808 C   0  0  0  0  0  0  0  0  0  0  0  0
  151.3018  136.9375  184.0171 C   0  0  0  0  0  0  0  0  0  0  0  0
  151.4998  139.3446  181.2129 C   0  0  0  0  0  0  0  0  0  0  0  0
  151.9559  140.4765  181.4446 O   0  0  0  0  0  0  0  0  0  0  0  0
  151.4845  138.9980  179.8433 O   0  0  0  0  0  0  0  0  0  0  0  0
  150.5171  139.5206  178.9517 C   0  0  0  0  0  0  0  0  0  0  0  0
  2  1  1  0  0  0
  1 27  1  0  0  0
 27 28  1  0  0  0
 28 29  2  0  0  0
 29 34  1  0  0  0
 34 35  2  0  0  0
 34 36  1  0  0  0
 36 37  1  0  0  0
 29 30  1  0  0  0
 30 31  2  0  0  0
 31 32  1  0  0  0
 32 33  2  0  0  0
  1 16  1  0  0  0
 16 17  2  0  0  0
 16 18  1  0  0  0
 18 20  1  0  0  0
 20 21  2  0  0  0
 21 22  1  0  0  0
 21 23  1  0  0  0
 23 24  1  0  0  0
 24 25  2  0  0  0
  2  3  2  0  0  0
  3  4  1  0  0  0
  4  9  1  0  0  0
  9 10  1  0  0  0
 10 11  2  0  0  0
 11 12  1  0  0  0
 12 13  2  0  0  0
 13 14  1  0  0  0
 14 15  2  0  0  0
  4  5  2  0  0  0
  5  6  1  0  0  0
  5  7  1  0  0  0
  7  8  2  0  0  0
  8  2  1  0  0  0
 33 28  1  0  0  0
 25 20  1  0  0  0
 15 10  1  0  0  0
 18 19  1  0  0  0
 23 26  1  0  0  0
M  END
> <minimizedAffinity>
-8.00651

> <CNNscore>
0.2459844053

> <CNNaffinity>
6.4626755714

> <CNN_VS>
1.5897173882

> <CNNaffinity_variance>
0.0985935703

$$$$
[H]O[C@@]1([H])[C@]([H])(C([H])([H])OP(=O)(O[H])OP(=O)(O[H])OC([H])([H])[C@@]2([H])OC(=O)[C@]2([H])O[H])[C@@]([H])(O[H])[C@]1([H])O[H]


 30 31  0  0  0  0  0  0  0  0999 V2000
  155.0898  140.2214  183.6331 P   0  0  0  0  0  0  0  0  0  0  0  0
  154.2607  139.7608  182.2224 O   0  0  0  0  0  0  0  0  0  0  0  0
  156.2997  139.3019  183.7546 O   0  0  0  0  0  0  0  0  0  0  0  0
  153.3068  140.0004  182.3377 H   0  0  0  0  0  0  0  0  0  0  0  0
  154.0690  140.0444  184.9765 O   0  0  0  0  0  0  0  0  0  0  0  0
  154.1635  138.4534  185.4856 P   0  0  0  0  0  0  0  0  0  0  0  0
  154.3354  137.4801  184.1023 O   0  0  0  0  0  0  0  0  0  0  0  0
  152.8743  138.1265  186.2235 O   0  0  0  0  0  0  0  0  0  0  0  0
  154.0702  136.5585  184.3869 H   0  0  0  0  0  0  0  0  0  0  0  0
  155.4326  138.1716  186.5464 O   0  0  0  0  0  0  0  0  0  0  0  0
  154.8968  138.0266  187.8240 C   0  0  0  0  0  0  0  0  0  0  0  0
  157.4958  135.5992  188.4593 O   0  0  0  0  0  0  0  0  0  0  0  0
  156.4219  136.0067  187.6662 C   0  0  0  0  0  0  0  0  0  0  0  0
  155.4061  136.7738  188.5052 C   0  0  0  0  0  0  0  0  0  0  0  0
  154.5651  135.6518  188.3176 O   0  0  0  0  0  0  0  0  0  0  0  0
  155.3933  134.9633  187.4312 C   0  0  0  0  0  0  0  0  0  0  0  0
  155.3387  133.9272  186.7288 O   0  0  0  0  0  0  0  0  0  0  0  0
  157.7422  136.3886  189.0237 H   0  0  0  0  0  0  0  0  0  0  0  0
  155.6281  141.7811  183.4332 O   0  0  0  0  0  0  0  0  0  0  0  0
  155.8676  142.1465  182.1363 C   0  0  0  0  0  0  0  0  0  0  0  0
  157.3899  142.2015  181.9535 C   0  0  0  0  0  0  0  0  0  0  0  0
  157.9539  140.9837  181.2696 C   0  0  0  0  0  0  0  0  0  0  0  0
  159.1523  140.5904  181.9069 O   0  0  0  0  0  0  0  0  0  0  0  0
  158.2854  141.8181  180.0723 C   0  0  0  0  0  0  0  0  0  0  0  0
  157.5143  141.4500  178.9766 O   0  0  0  0  0  0  0  0  0  0  0  0
  157.8377  143.0434  180.8008 C   0  0  0  0  0  0  0  0  0  0  0  0
  158.8512  143.9349  181.1360 O   0  0  0  0  0  0  0  0  0  0  0  0
  159.5901  141.3661  182.3292 H   0  0  0  0  0  0  0  0  0  0  0  0
  158.0198  141.3927  178.1376 H   0  0  0  0  0  0  0  0  0  0  0  0
  158.5481  144.5330  181.8774 H   0  0  0  0  0  0  0  0  0  0  0  0
 12 13  1  0  0  0
 13 14  1  0  0  0
 14 11  1  0  0  0
 11 10  1  0  0  0
 10  6  1  0  0  0
  6  7  1  0  0  0
  6  8  2  0  0  0
  6  5  1  0  0  0
  5  1  1  0  0  0
  1  2  1  0  0  0
  1  3  2  0  0  0
  1 19  1  0  0  0
 19 20  1  0  0  0
 20 21  1  0  0  0
 21 22  1  0  0  0
 22 23  1  0  0  0
 22 24  1  0  0  0
 24 25  1  0  0  0
 24 26  1  0  0  0
 26 27  1  0  0  0
 14 15  1  0  0  0
 15 16  1  0  0  0
 16 17  2  0  0  0
 16 13  1  0  0  0
 26 21  1  0  0  0
 12 18  1  0  0  0
  7  9  1  0  0  0
  2  4  1  0  0  0
 23 28  1  0  0  0
 25 29  1  0  0  0
 27 30  1  0  0  0
M  END
> <minimizedAffinity>
-5.11044

> <CNNscore>
0.5371223092

> <CNNaffinity>
4.2236452103

> <CNN_VS>
2.2686140537

> <CNNaffinity_variance>
2.9756374359

$$$$
[H]O[C@@]1([H])[C@]([H])(C([H])([H])OP(=O)(O[H])OP(=O)(O[H])OC([H])([H])[C@@]2([H])OC(=O)[C@]2([H])O[H])[C@@]([H])(O[H])[C@]1([H])O[H]


 30 31  0  0  0  0  0  0  0  0999 V2000
  154.7602  140.2253  183.3181 P   0  0  0  0  0  0  0  0  0  0  0  0
  155.9682  139.5002  184.2693 O   0  0  0  0  0  0  0  0  0  0  0  0
  154.2745  141.4525  184.0808 O   0  0  0  0  0  0  0  0  0  0  0  0
  155.9877  138.5341  184.0526 H   0  0  0  0  0  0  0  0  0  0  0  0
  153.4879  139.1284  183.0808 O   0  0  0  0  0  0  0  0  0  0  0  0
  153.4116  138.1340  184.4243 P   0  0  0  0  0  0  0  0  0  0  0  0
  154.6278  136.9570  184.2627 O   0  0  0  0  0  0  0  0  0  0  0  0
  152.0331  137.4917  184.4468 O   0  0  0  0  0  0  0  0  0  0  0  0
  154.3655  136.2128  184.8776 H   0  0  0  0  0  0  0  0  0  0  0  0
  153.6024  138.9606  185.8720 O   0  0  0  0  0  0  0  0  0  0  0  0
  154.1689  138.0826  186.7932 C   0  0  0  0  0  0  0  0  0  0  0  0
  154.9014  138.8355  190.2497 O   0  0  0  0  0  0  0  0  0  0  0  0
  154.6891  137.8683  189.2660 C   0  0  0  0  0  0  0  0  0  0  0  0
  153.7258  138.3934  188.2074 C   0  0  0  0  0  0  0  0  0  0  0  0
  152.8093  137.4499  188.7283 O   0  0  0  0  0  0  0  0  0  0  0  0
  153.6867  136.8331  189.6201 C   0  0  0  0  0  0  0  0  0  0  0  0
  153.6786  135.8477  190.3939 O   0  0  0  0  0  0  0  0  0  0  0  0
  155.0443  139.7003  189.7657 H   0  0  0  0  0  0  0  0  0  0  0  0
  155.4529  140.7274  181.8931 O   0  0  0  0  0  0  0  0  0  0  0  0
  155.8533  142.0359  181.8765 C   0  0  0  0  0  0  0  0  0  0  0  0
  157.3781  142.0466  182.0465 C   0  0  0  0  0  0  0  0  0  0  0  0
  158.0722  140.9507  181.2811 C   0  0  0  0  0  0  0  0  0  0  0  0
  159.0933  140.3850  182.0776 O   0  0  0  0  0  0  0  0  0  0  0  0
  158.6712  141.9758  180.3700 C   0  0  0  0  0  0  0  0  0  0  0  0
  158.1639  141.8582  179.0819 O   0  0  0  0  0  0  0  0  0  0  0  0
  158.0804  143.0649  181.2051 C   0  0  0  0  0  0  0  0  0  0  0  0
  158.9992  143.8255  181.9203 O   0  0  0  0  0  0  0  0  0  0  0  0
  159.4307  141.0450  182.7273 H   0  0  0  0  0  0  0  0  0  0  0  0
  158.8449  141.9327  178.3794 H   0  0  0  0  0  0  0  0  0  0  0  0
  158.5415  144.2895  182.6783 H   0  0  0  0  0  0  0  0  0  0  0  0
 12 13  1  0  0  0
 13 14  1  0  0  0
 14 11  1  0  0  0
 11 10  1  0  0  0
 10  6  1  0  0  0
  6  7  1  0  0  0
  6  8  2  0  0  0
  6  5  1  0  0  0
  5  1  1  0  0  0
  1  2  1  0  0  0
  1  3  2  0  0  0
  1 19  1  0  0  0
 19 20  1  0  0  0
 20 21  1  0  0  0
 21 22  1  0  0  0
 22 23  1  0  0  0
 22 24  1  0  0  0
 24 25  1  0  0  0
 24 26  1  0  0  0
 26 27  1  0  0  0
 14 15  1  0  0  0
 15 16  1  0  0  0
 16 17  2  0  0  0
 16 13  1  0  0  0
 26 21  1  0  0  0
 12 18  1  0  0  0
  7  9  1  0  0  0
  2  4  1  0  0  0
 23 28  1  0  0  0
 25 29  1  0  0  0
 27 30  1  0  0  0
M  END
> <minimizedAffinity>
-5.44240

> <CNNscore>
0.5320495367

> <CNNaffinity>
4.3198232651

> <CNN_VS>
2.2983598709

> <CNNaffinity_variance>
3.7976336479

$$$$
[H]O[C@@]1([H])[C@]([H])(C([H])([H])OP(=O)(O[H])OP(=O)(O[H])OC([H])([H])[C@@]2([H])OC(=O)[C@]2([H])O[H])[C@@]([H])(O[H])[C@]1([H])O[H]


 30 31  0  0  0  0  0  0  0  0999 V2000
  156.1020  140.4887  183.6999 P   0  0  0  0  0  0  0  0  0  0  0  0
  157.0115  139.0526  183.7193 O   0  0  0  0  0  0  0  0  0  0  0  0
  156.8609  141.5038  184.5470 O   0  0  0  0  0  0  0  0  0  0  0  0
  156.3888  138.2956  183.5783 H   0  0  0  0  0  0  0  0  0  0  0  0
  154.5641  140.1970  184.3539 O   0  0  0  0  0  0  0  0  0  0  0  0
  154.6226  138.7372  185.1694 P   0  0  0  0  0  0  0  0  0  0  0  0
  154.6251  137.4977  184.0057 O   0  0  0  0  0  0  0  0  0  0  0  0
  153.3875  138.6509  186.0528 O   0  0  0  0  0  0  0  0  0  0  0  0
  154.3398  136.6714  184.4919 H   0  0  0  0  0  0  0  0  0  0  0  0
  155.9632  138.5893  186.1675 O   0  0  0  0  0  0  0  0  0  0  0  0
  155.6382  137.7003  187.1896 C   0  0  0  0  0  0  0  0  0  0  0  0
  156.9797  138.0738  190.5230 O   0  0  0  0  0  0  0  0  0  0  0  0
  156.0720  137.4381  189.6744 C   0  0  0  0  0  0  0  0  0  0  0  0
  155.6587  138.3750  188.5451 C   0  0  0  0  0  0  0  0  0  0  0  0
  154.3931  138.4033  189.1768 O   0  0  0  0  0  0  0  0  0  0  0  0
  154.6671  137.4445  190.1521 C   0  0  0  0  0  0  0  0  0  0  0  0
  154.0427  136.8332  191.0500 O   0  0  0  0  0  0  0  0  0  0  0  0
  157.6414  138.5353  189.9299 H   0  0  0  0  0  0  0  0  0  0  0  0
  156.0424  141.0444  182.1346 O   0  0  0  0  0  0  0  0  0  0  0  0
  156.0566  142.4067  182.0057 C   0  0  0  0  0  0  0  0  0  0  0  0
  157.2851  142.7704  181.1615 C   0  0  0  0  0  0  0  0  0  0  0  0
  158.4989  143.1074  181.9873 C   0  0  0  0  0  0  0  0  0  0  0  0
  159.1583  144.2271  181.4316 O   0  0  0  0  0  0  0  0  0  0  0  0
  159.1650  141.8566  181.5062 C   0  0  0  0  0  0  0  0  0  0  0  0
  159.3382  140.9504  182.5451 O   0  0  0  0  0  0  0  0  0  0  0  0
  158.0101  141.5902  180.5962 C   0  0  0  0  0  0  0  0  0  0  0  0
  158.2860  141.7167  179.2389 O   0  0  0  0  0  0  0  0  0  0  0  0
  158.9902  144.2812  180.4619 H   0  0  0  0  0  0  0  0  0  0  0  0
  160.2191  140.5183  182.5513 H   0  0  0  0  0  0  0  0  0  0  0  0
  157.4367  141.8515  178.7293 H   0  0  0  0  0  0  0  0  0  0  0  0
 12 13  1  0  0  0
 13 14  1  0  0  0
 14 11  1  0  0  0
 11 10  1  0  0  0
 10  6  1  0  0  0
  6  7  1  0  0  0
  6  8  2  0  0  0
  6  5  1  0  0  0
  5  1  1  0  0  0
  1  2  1  0  0  0
  1  3  2  0  0  0
  1 19  1  0  0  0
 19 20  1  0  0  0
 20 21  1  0  0  0
 21 22  1  0  0  0
 22 23  1  0  0  0
 22 24  1  0  0  0
 24 25  1  0  0  0
 24 26  1  0  0  0
 26 27  1  0  0  0
 14 15  1  0  0  0
 15 16  1  0  0  0
 16 17  2  0  0  0
 16 13  1  0  0  0
 26 21  1  0  0  0
 12 18  1  0  0  0
  7  9  1  0  0  0
  2  4  1  0  0  0
 23 28  1  0  0  0
 25 29  1  0  0  0
 27 30  1  0  0  0
M  END
> <minimizedAffinity>
-5.52893

> <CNNscore>
0.5239180326

> <CNNaffinity>
4.3478140831

> <CNN_VS>
2.2778983116

> <CNNaffinity_variance>
4.9051370621

$$$$
[H]O[C@@]1([H])[C@]([H])(C([H])([H])OP(=O)(O[H])OP(=O)(O[H])OC([H])([H])[C@@]2([H])OC(=O)[C@]2([H])O[H])[C@@]([H])(O[H])[C@]1([H])O[H]


 30 31  0  0  0  0  0  0  0  0999 V2000
  155.1539  139.4972  184.0417 P   0  0  0  0  0  0  0  0  0  0  0  0
  156.5232  139.6682  185.0344 O   0  0  0  0  0  0  0  0  0  0  0  0
  154.0597  140.3712  184.6439 O   0  0  0  0  0  0  0  0  0  0  0  0
  157.0623  138.8413  184.9551 H   0  0  0  0  0  0  0  0  0  0  0  0
  154.6707  137.8712  184.0140 O   0  0  0  0  0  0  0  0  0  0  0  0
  154.1768  137.4572  185.5581 P   0  0  0  0  0  0  0  0  0  0  0  0
  154.5574  135.8176  185.7975 O   0  0  0  0  0  0  0  0  0  0  0  0
  152.6751  137.6842  185.6399 O   0  0  0  0  0  0  0  0  0  0  0  0
  153.9854  135.5172  186.5612 H   0  0  0  0  0  0  0  0  0  0  0  0
  154.8903  138.3922  186.7549 O   0  0  0  0  0  0  0  0  0  0  0  0
  154.8478  137.6680  187.9442 C   0  0  0  0  0  0  0  0  0  0  0  0
  157.3898  135.4383  189.2158 O   0  0  0  0  0  0  0  0  0  0  0  0
  156.2849  136.2498  189.4785 C   0  0  0  0  0  0  0  0  0  0  0  0
  156.2357  137.4114  188.4925 C   0  0  0  0  0  0  0  0  0  0  0  0
  156.5599  138.2263  189.6026 O   0  0  0  0  0  0  0  0  0  0  0  0
  156.4818  137.2297  190.5753 C   0  0  0  0  0  0  0  0  0  0  0  0
  156.5439  137.1485  191.8240 O   0  0  0  0  0  0  0  0  0  0  0  0
  157.4132  135.3101  188.2231 H   0  0  0  0  0  0  0  0  0  0  0  0
  155.5299  140.0841  182.5329 O   0  0  0  0  0  0  0  0  0  0  0  0
  156.2206  141.2654  182.5295 C   0  0  0  0  0  0  0  0  0  0  0  0
  157.5933  140.9874  181.9031 C   0  0  0  0  0  0  0  0  0  0  0  0
  157.9524  141.9485  180.8003 C   0  0  0  0  0  0  0  0  0  0  0  0
  158.5500  141.2453  179.7300 O   0  0  0  0  0  0  0  0  0  0  0  0
  159.0258  142.5300  181.6660 C   0  0  0  0  0  0  0  0  0  0  0  0
  158.7286  143.8404  182.0196 O   0  0  0  0  0  0  0  0  0  0  0  0
  158.7473  141.4958  182.7078 C   0  0  0  0  0  0  0  0  0  0  0  0
  159.7508  140.5489  182.8834 O   0  0  0  0  0  0  0  0  0  0  0  0
  158.9947  140.4291  180.0581 H   0  0  0  0  0  0  0  0  0  0  0  0
  159.4945  144.4507  181.9587 H   0  0  0  0  0  0  0  0  0  0  0  0
  159.3777  139.7348  183.3278 H   0  0  0  0  0  0  0  0  0  0  0  0
 12 13  1  0  0  0
 13 14  1  0  0  0
 14 11  1  0  0  0
 11 10  1  0  0  0
 10  6  1  0  0  0
  6  7  1  0  0  0
  6  8  2  0  0  0
  6  5  1  0  0  0
  5  1  1  0  0  0
  1  2  1  0  0  0
  1  3  2  0  0  0
  1 19  1  0  0  0
 19 20  1  0  0  0
 20 21  1  0  0  0
 21 22  1  0  0  0
 22 23  1  0  0  0
 22 24  1  0  0  0
 24 25  1  0  0  0
 24 26  1  0  0  0
 26 27  1  0  0  0
 14 15  1  0  0  0
 15 16  1  0  0  0
 16 17  2  0  0  0
 16 13  1  0  0  0
 26 21  1  0  0  0
 12 18  1  0  0  0
  7  9  1  0  0  0
  2  4  1  0  0  0
 23 28  1  0  0  0
 25 29  1  0  0  0
 27 30  1  0  0  0
M  END
> <minimizedAffinity>
-5.45780

> <CNNscore>
0.5197810531

> <CNNaffinity>
4.2402024269

> <CNN_VS>
2.2039768696

> <CNNaffinity_variance>
4.0962209702

$$$$
[H]O[C@@]1([H])[C@]([H])(C([H])([H])OP(=O)(O[H])OP(=O)(O[H])OC([H])([H])[C@@]2([H])OC(=O)[C@]2([H])O[H])[C@@]([H])(O[H])[C@]1([H])O[H]


 30 31  0  0  0  0  0  0  0  0999 V2000
  155.4412  140.7154  183.4074 P   0  0  0  0  0  0  0  0  0  0  0  0
  154.6119  140.5081  181.9381 O   0  0  0  0  0  0  0  0  0  0  0  0
  156.5507  139.6705  183.4398 O   0  0  0  0  0  0  0  0  0  0  0  0
  153.6832  140.8278  182.0646 H   0  0  0  0  0  0  0  0  0  0  0  0
  154.3696  140.4878  184.7027 O   0  0  0  0  0  0  0  0  0  0  0  0
  154.3988  138.8659  185.1127 P   0  0  0  0  0  0  0  0  0  0  0  0
  155.9223  138.5341  185.7905 O   0  0  0  0  0  0  0  0  0  0  0  0
  154.1839  138.0628  183.8390 O   0  0  0  0  0  0  0  0  0  0  0  0
  156.0348  137.5422  185.7270 H   0  0  0  0  0  0  0  0  0  0  0  0
  153.1860  138.4326  186.1882 O   0  0  0  0  0  0  0  0  0  0  0  0
  153.1460  137.0414  186.2483 C   0  0  0  0  0  0  0  0  0  0  0  0
  152.5662  136.9836  189.8136 O   0  0  0  0  0  0  0  0  0  0  0  0
  153.2190  137.5692  188.7277 C   0  0  0  0  0  0  0  0  0  0  0  0
  153.4667  136.5323  187.6379 C   0  0  0  0  0  0  0  0  0  0  0  0
  154.8338  136.6578  187.9797 O   0  0  0  0  0  0  0  0  0  0  0  0
  154.6878  137.7067  188.8875 C   0  0  0  0  0  0  0  0  0  0  0  0
  155.4308  138.4578  189.5609 O   0  0  0  0  0  0  0  0  0  0  0  0
  151.8376  136.4148  189.4287 H   0  0  0  0  0  0  0  0  0  0  0  0
  156.1360  142.2253  183.4028 O   0  0  0  0  0  0  0  0  0  0  0  0
  155.8618  142.9827  182.2966 C   0  0  0  0  0  0  0  0  0  0  0  0
  157.2057  143.4422  181.7160 C   0  0  0  0  0  0  0  0  0  0  0  0
  158.3405  143.3651  182.7034 C   0  0  0  0  0  0  0  0  0  0  0  0
  159.1521  144.5162  182.5886 O   0  0  0  0  0  0  0  0  0  0  0  0
  158.9490  142.2538  181.9068 C   0  0  0  0  0  0  0  0  0  0  0  0
  158.9239  141.0585  182.6148 O   0  0  0  0  0  0  0  0  0  0  0  0
  157.8881  142.4167  180.8673 C   0  0  0  0  0  0  0  0  0  0  0  0
  158.3282  142.9209  179.6480 O   0  0  0  0  0  0  0  0  0  0  0  0
  159.1020  144.8850  181.6759 H   0  0  0  0  0  0  0  0  0  0  0  0
  159.7584  140.5457  182.5561 H   0  0  0  0  0  0  0  0  0  0  0  0
  157.5576  143.3040  179.1392 H   0  0  0  0  0  0  0  0  0  0  0  0
 12 13  1  0  0  0
 13 14  1  0  0  0
 14 11  1  0  0  0
 11 10  1  0  0  0
 10  6  1  0  0  0
  6  7  1  0  0  0
  6  8  2  0  0  0
  6  5  1  0  0  0
  5  1  1  0  0  0
  1  2  1  0  0  0
  1  3  2  0  0  0
  1 19  1  0  0  0
 19 20  1  0  0  0
 20 21  1  0  0  0
 21 22  1  0  0  0
 22 23  1  0  0  0
 22 24  1  0  0  0
 24 25  1  0  0  0
 24 26  1  0  0  0
 26 27  1  0  0  0
 14 15  1  0  0  0
 15 16  1  0  0  0
 16 17  2  0  0  0
 16 13  1  0  0  0
 26 21  1  0  0  0
 12 18  1  0  0  0
  7  9  1  0  0  0
  2  4  1  0  0  0
 23 28  1  0  0  0
 25 29  1  0  0  0
 27 30  1  0  0  0
M  END
> <minimizedAffinity>
-4.95772

> <CNNscore>
0.4847062230

> <CNNaffinity>
4.1594829559

> <CNN_VS>
2.0161273479

> <CNNaffinity_variance>
4.2986669540

$$$$
[H]O[C@@]1([H])[C@]([H])(C([H])([H])OP(=O)(O[H])OP(=O)(O[H])OC([H])([H])[C@@]2([H])OC(=O)[C@]2([H])O[H])[C@@]([H])(O[H])[C@]1([H])O[H]


 30 31  0  0  0  0  0  0  0  0999 V2000
  154.8268  142.5323  182.8541 P   0  0  0  0  0  0  0  0  0  0  0  0
  153.7067  143.8075  182.7605 O   0  0  0  0  0  0  0  0  0  0  0  0
  154.7098  141.9434  184.2553 O   0  0  0  0  0  0  0  0  0  0  0  0
  154.0388  144.4562  182.0900 H   0  0  0  0  0  0  0  0  0  0  0  0
  156.3922  143.1292  182.5868 O   0  0  0  0  0  0  0  0  0  0  0  0
  157.3589  141.8436  182.1261 P   0  0  0  0  0  0  0  0  0  0  0  0
  156.8955  141.3889  180.5548 O   0  0  0  0  0  0  0  0  0  0  0  0
  157.1220  140.7100  183.1122 O   0  0  0  0  0  0  0  0  0  0  0  0
  157.2389  140.4575  180.4318 H   0  0  0  0  0  0  0  0  0  0  0  0
  158.9978  142.2018  182.1596 O   0  0  0  0  0  0  0  0  0  0  0  0
  159.2053  143.1586  183.1505 C   0  0  0  0  0  0  0  0  0  0  0  0
  161.0150  143.4320  186.2652 O   0  0  0  0  0  0  0  0  0  0  0  0
  161.0555  143.2430  184.8828 C   0  0  0  0  0  0  0  0  0  0  0  0
  159.7862  142.5452  184.4072 C   0  0  0  0  0  0  0  0  0  0  0  0
  160.6222  141.4324  184.1535 O   0  0  0  0  0  0  0  0  0  0  0  0
  161.8344  142.0598  184.4411 C   0  0  0  0  0  0  0  0  0  0  0  0
  163.0557  141.7883  184.3740 O   0  0  0  0  0  0  0  0  0  0  0  0
  160.0967  143.7719  186.4744 H   0  0  0  0  0  0  0  0  0  0  0  0
  154.3832  141.3696  181.7524 O   0  0  0  0  0  0  0  0  0  0  0  0
  153.0732  140.9801  181.8213 C   0  0  0  0  0  0  0  0  0  0  0  0
  153.0514  139.4470  181.7651 C   0  0  0  0  0  0  0  0  0  0  0  0
  152.2486  138.8199  182.8746 C   0  0  0  0  0  0  0  0  0  0  0  0
  152.9333  137.6917  183.3802 O   0  0  0  0  0  0  0  0  0  0  0  0
  151.2310  138.3691  181.8742 C   0  0  0  0  0  0  0  0  0  0  0  0
  150.0216  139.0277  182.0589 O   0  0  0  0  0  0  0  0  0  0  0  0
  152.0902  138.8850  180.7660 C   0  0  0  0  0  0  0  0  0  0  0  0
  152.6553  137.9084  179.9529 O   0  0  0  0  0  0  0  0  0  0  0  0
  153.5098  137.2968  182.6850 H   0  0  0  0  0  0  0  0  0  0  0  0
  149.2375  138.4411  181.9970 H   0  0  0  0  0  0  0  0  0  0  0  0
  153.4459  138.2829  179.4689 H   0  0  0  0  0  0  0  0  0  0  0  0
 12 13  1  0  0  0
 13 14  1  0  0  0
 14 11  1  0  0  0
 11 10  1  0  0  0
 10  6  1  0  0  0
  6  7  1  0  0  0
  6  8  2  0  0  0
  6  5  1  0  0  0
  5  1  1  0  0  0
  1  2  1  0  0  0
  1  3  2  0  0  0
  1 19  1  0  0  0
 19 20  1  0  0  0
 20 21  1  0  0  0
 21 22  1  0  0  0
 22 23  1  0  0  0
 22 24  1  0  0  0
 24 25  1  0  0  0
 24 26  1  0  0  0
 26 27  1  0  0  0
 14 15  1  0  0  0
 15 16  1  0  0  0
 16 17  2  0  0  0
 16 13  1  0  0  0
 26 21  1  0  0  0
 12 18  1  0  0  0
  7  9  1  0  0  0
  2  4  1  0  0  0
 23 28  1  0  0  0
 25 29  1  0  0  0
 27 30  1  0  0  0
M  END
> <minimizedAffinity>
-5.88023

> <CNNscore>
0.4823553562

> <CNNaffinity>
4.4785428047

> <CNN_VS>
2.1602489948

> <CNNaffinity_variance>
4.0498399734

$$$$
[H]O[C@@]1([H])[C@]([H])(C([H])([H])OP(=O)(O[H])OP(=O)(O[H])OC([H])([H])[C@@]2([H])OC(=O)[C@]2([H])O[H])[C@@]([H])(O[H])[C@]1([H])O[H]


 30 31  0  0  0  0  0  0  0  0999 V2000
  154.2734  138.2283  184.3464 P   0  0  0  0  0  0  0  0  0  0  0  0
  154.2548  136.5374  184.1724 O   0  0  0  0  0  0  0  0  0  0  0  0
  153.1613  138.7760  183.4593 O   0  0  0  0  0  0  0  0  0  0  0  0
  155.1691  136.2024  184.3528 H   0  0  0  0  0  0  0  0  0  0  0  0
  155.7803  138.8342  183.8562 O   0  0  0  0  0  0  0  0  0  0  0  0
  155.5973  140.4668  183.5389 P   0  0  0  0  0  0  0  0  0  0  0  0
  154.2804  141.0249  184.4581 O   0  0  0  0  0  0  0  0  0  0  0  0
  155.3255  140.6212  182.0504 O   0  0  0  0  0  0  0  0  0  0  0  0
  153.9937  141.8803  184.0259 H   0  0  0  0  0  0  0  0  0  0  0  0
  156.9673  141.3683  183.8937 O   0  0  0  0  0  0  0  0  0  0  0  0
  157.9574  141.0180  182.9785 C   0  0  0  0  0  0  0  0  0  0  0  0
  157.8693  144.3811  181.6622 O   0  0  0  0  0  0  0  0  0  0  0  0
  157.7782  143.0096  181.4190 C   0  0  0  0  0  0  0  0  0  0  0  0
  158.6470  142.2387  182.4063 C   0  0  0  0  0  0  0  0  0  0  0  0
  159.4678  141.9482  181.2913 O   0  0  0  0  0  0  0  0  0  0  0  0
  158.6438  142.5158  180.3195 C   0  0  0  0  0  0  0  0  0  0  0  0
  158.6082  142.5987  179.0699 O   0  0  0  0  0  0  0  0  0  0  0  0
  157.7966  144.4948  182.6543 H   0  0  0  0  0  0  0  0  0  0  0  0
  153.9161  138.5914  185.9285 O   0  0  0  0  0  0  0  0  0  0  0  0
  154.9287  138.3531  186.8175 C   0  0  0  0  0  0  0  0  0  0  0  0
  154.4485  137.2481  187.7676 C   0  0  0  0  0  0  0  0  0  0  0  0
  155.4221  136.9500  188.8776 C   0  0  0  0  0  0  0  0  0  0  0  0
  155.5105  135.5531  189.0725 O   0  0  0  0  0  0  0  0  0  0  0  0
  154.4581  137.5240  189.8680 C   0  0  0  0  0  0  0  0  0  0  0  0
  154.9561  138.6920  190.4321 O   0  0  0  0  0  0  0  0  0  0  0  0
  153.4482  137.7052  188.7816 C   0  0  0  0  0  0  0  0  0  0  0  0
  152.3355  136.8749  188.8649 O   0  0  0  0  0  0  0  0  0  0  0  0
  154.6716  135.1123  188.8011 H   0  0  0  0  0  0  0  0  0  0  0  0
  154.8221  138.7519  191.4023 H   0  0  0  0  0  0  0  0  0  0  0  0
  151.8890  136.8124  187.9727 H   0  0  0  0  0  0  0  0  0  0  0  0
 12 13  1  0  0  0
 13 14  1  0  0  0
 14 11  1  0  0  0
 11 10  1  0  0  0
 10  6  1  0  0  0
  6  7  1  0  0  0
  6  8  2  0  0  0
  6  5  1  0  0  0
  5  1  1  0  0  0
  1  2  1  0  0  0
  1  3  2  0  0  0
  1 19  1  0  0  0
 19 20  1  0  0  0
 20 21  1  0  0  0
 21 22  1  0  0  0
 22 23  1  0  0  0
 22 24  1  0  0  0
 24 25  1  0  0  0
 24 26  1  0  0  0
 26 27  1  0  0  0
 14 15  1  0  0  0
 15 16  1  0  0  0
 16 17  2  0  0  0
 16 13  1  0  0  0
 26 21  1  0  0  0
 12 18  1  0  0  0
  7  9  1  0  0  0
  2  4  1  0  0  0
 23 28  1  0  0  0
 25 29  1  0  0  0
 27 30  1  0  0  0
M  END
> <minimizedAffinity>
-4.83833

> <CNNscore>
0.4767491519

> <CNNaffinity>
4.1626920700

> <CNN_VS>
1.9845598936

> <CNNaffinity_variance>
3.4160828590

$$$$
[H]O[C@@]1([H])[C@]([H])(C([H])([H])OP(=O)(O[H])OP(=O)(O[H])OC([H])([H])[C@@]2([H])OC(=O)[C@]2([H])O[H])[C@@]([H])(O[H])[C@]1([H])O[H]


 30 31  0  0  0  0  0  0  0  0999 V2000
  155.3662  141.6145  183.0159 P   0  0  0  0  0  0  0  0  0  0  0  0
  156.4825  141.0331  184.1584 O   0  0  0  0  0  0  0  0  0  0  0  0
  154.4438  142.5801  183.7511 O   0  0  0  0  0  0  0  0  0  0  0  0
  156.7833  140.1373  183.8620 H   0  0  0  0  0  0  0  0  0  0  0  0
  154.4816  140.3172  182.3734 O   0  0  0  0  0  0  0  0  0  0  0  0
  154.1190  139.2727  183.6291 P   0  0  0  0  0  0  0  0  0  0  0  0
  153.8662  140.2125  185.0232 O   0  0  0  0  0  0  0  0  0  0  0  0
  155.3055  138.3386  183.8111 O   0  0  0  0  0  0  0  0  0  0  0  0
  153.9724  139.5843  185.7943 H   0  0  0  0  0  0  0  0  0  0  0  0
  152.7720  138.3183  183.3290 O   0  0  0  0  0  0  0  0  0  0  0  0
  152.9182  137.1352  184.0498 C   0  0  0  0  0  0  0  0  0  0  0  0
  152.5326  137.9736  187.5425 O   0  0  0  0  0  0  0  0  0  0  0  0
  152.9678  137.0570  186.5840 C   0  0  0  0  0  0  0  0  0  0  0  0
  152.1081  137.1561  185.3289 C   0  0  0  0  0  0  0  0  0  0  0  0
  151.6114  135.8843  185.6993 O   0  0  0  0  0  0  0  0  0  0  0  0
  152.4697  135.6728  186.7784 C   0  0  0  0  0  0  0  0  0  0  0  0
  152.7365  134.7488  187.5813 O   0  0  0  0  0  0  0  0  0  0  0  0
  152.3780  138.8351  187.0560 H   0  0  0  0  0  0  0  0  0  0  0  0
  156.2034  142.4613  181.8563 O   0  0  0  0  0  0  0  0  0  0  0  0
  156.4643  143.7670  182.1720 C   0  0  0  0  0  0  0  0  0  0  0  0
  157.9630  143.9998  181.9400 C   0  0  0  0  0  0  0  0  0  0  0  0
  158.8340  143.3949  183.0097 C   0  0  0  0  0  0  0  0  0  0  0  0
  159.8715  144.2939  183.3453 O   0  0  0  0  0  0  0  0  0  0  0  0
  159.3486  142.3994  182.0179 C   0  0  0  0  0  0  0  0  0  0  0  0
  158.9352  141.1125  182.3399 O   0  0  0  0  0  0  0  0  0  0  0  0
  158.5766  143.0786  180.9338 C   0  0  0  0  0  0  0  0  0  0  0  0
  159.3483  143.7410  179.9850 O   0  0  0  0  0  0  0  0  0  0  0  0
  160.0840  144.8778  182.5802 H   0  0  0  0  0  0  0  0  0  0  0  0
  159.6404  140.4360  182.2513 H   0  0  0  0  0  0  0  0  0  0  0  0
  158.7924  144.4208  179.5074 H   0  0  0  0  0  0  0  0  0  0  0  0
 12 13  1  0  0  0
 13 14  1  0  0  0
 14 11  1  0  0  0
 11 10  1  0  0  0
 10  6  1  0  0  0
  6  7  1  0  0  0
  6  8  2  0  0  0
  6  5  1  0  0  0
  5  1  1  0  0  0
  1  2  1  0  0  0
  1  3  2  0  0  0
  1 19  1  0  0  0
 19 20  1  0  0  0
 20 21  1  0  0  0
 21 22  1  0  0  0
 22 23  1  0  0  0
 22 24  1  0  0  0
 24 25  1  0  0  0
 24 26  1  0  0  0
 26 27  1  0  0  0
 14 15  1  0  0  0
 15 16  1  0  0  0
 16 17  2  0  0  0
 16 13  1  0  0  0
 26 21  1  0  0  0
 12 18  1  0  0  0
  7  9  1  0  0  0
  2  4  1  0  0  0
 23 28  1  0  0  0
 25 29  1  0  0  0
 27 30  1  0  0  0
M  END
> <minimizedAffinity>
-4.48628

> <CNNscore>
0.4708691537

> <CNNaffinity>
4.1518292427

> <CNN_VS>
1.9549683332

> <CNNaffinity_variance>
3.6992385387

$$$$
[H]O[C@@]1([H])[C@]([H])(C([H])([H])OP(=O)(O[H])OP(=O)(O[H])OC([H])([H])[C@@]2([H])OC(=O)[C@]2([H])O[H])[C@@]([H])(O[H])[C@]1([H])O[H]


 30 31  0  0  0  0  0  0  0  0999 V2000
  154.1787  141.1718  182.2866 P   0  0  0  0  0  0  0  0  0  0  0  0
  153.3832  142.6576  182.5083 O   0  0  0  0  0  0  0  0  0  0  0  0
  154.3563  140.5551  183.6694 O   0  0  0  0  0  0  0  0  0  0  0  0
  153.6343  143.2527  181.7577 H   0  0  0  0  0  0  0  0  0  0  0  0
  155.6856  141.4370  181.5538 O   0  0  0  0  0  0  0  0  0  0  0  0
  156.4400  142.6867  182.3716 P   0  0  0  0  0  0  0  0  0  0  0  0
  156.5289  142.2482  184.0119 O   0  0  0  0  0  0  0  0  0  0  0  0
  155.5936  143.9370  182.1883 O   0  0  0  0  0  0  0  0  0  0  0  0
  156.6747  143.1025  184.5114 H   0  0  0  0  0  0  0  0  0  0  0  0
  157.9744  143.0306  181.7861 O   0  0  0  0  0  0  0  0  0  0  0  0
  158.7866  141.9287  182.0444 C   0  0  0  0  0  0  0  0  0  0  0  0
  161.7598  141.0383  183.8933 O   0  0  0  0  0  0  0  0  0  0  0  0
  160.3719  141.1863  183.8793 C   0  0  0  0  0  0  0  0  0  0  0  0
  159.9683  142.2973  182.9165 C   0  0  0  0  0  0  0  0  0  0  0  0
  159.6055  143.0226  184.0757 O   0  0  0  0  0  0  0  0  0  0  0  0
  159.8232  141.9964  184.9950 C   0  0  0  0  0  0  0  0  0  0  0  0
  159.6504  141.7994  186.2202 O   0  0  0  0  0  0  0  0  0  0  0  0
  162.0533  141.0616  182.9363 H   0  0  0  0  0  0  0  0  0  0  0  0
  153.1901  140.1825  181.3886 O   0  0  0  0  0  0  0  0  0  0  0  0
  152.4640  139.2791  182.1162 C   0  0  0  0  0  0  0  0  0  0  0  0
  151.5414  138.5430  181.1360 C   0  0  0  0  0  0  0  0  0  0  0  0
  150.5227  137.6674  181.8175 C   0  0  0  0  0  0  0  0  0  0  0  0
  150.4090  136.4403  181.1258 O   0  0  0  0  0  0  0  0  0  0  0  0
  149.4356  138.5900  181.3627 C   0  0  0  0  0  0  0  0  0  0  0  0
  148.8483  139.2411  182.4405 O   0  0  0  0  0  0  0  0  0  0  0  0
  150.4343  139.3862  180.5872 C   0  0  0  0  0  0  0  0  0  0  0  0
  150.3142  139.2986  179.2043 O   0  0  0  0  0  0  0  0  0  0  0  0
  150.6415  136.5564  180.1750 H   0  0  0  0  0  0  0  0  0  0  0  0
  147.8691  139.2825  182.3927 H   0  0  0  0  0  0  0  0  0  0  0  0
  151.1736  139.5666  178.7696 H   0  0  0  0  0  0  0  0  0  0  0  0
 12 13  1  0  0  0
 13 14  1  0  0  0
 14 11  1  0  0  0
 11 10  1  0  0  0
 10  6  1  0  0  0
  6  7  1  0  0  0
  6  8  2  0  0  0
  6  5  1  0  0  0
  5  1  1  0  0  0
  1  2  1  0  0  0
  1  3  2  0  0  0
  1 19  1  0  0  0
 19 20  1  0  0  0
 20 21  1  0  0  0
 21 22  1  0  0  0
 22 23  1  0  0  0
 22 24  1  0  0  0
 24 25  1  0  0  0
 24 26  1  0  0  0
 26 27  1  0  0  0
 14 15  1  0  0  0
 15 16  1  0  0  0
 16 17  2  0  0  0
 16 13  1  0  0  0
 26 21  1  0  0  0
 12 18  1  0  0  0
  7  9  1  0  0  0
  2  4  1  0  0  0
 23 28  1  0  0  0
 25 29  1  0  0  0
 27 30  1  0  0  0
M  END
> <minimizedAffinity>
-6.14912

> <CNNscore>
0.4706981182

> <CNNaffinity>
4.3817739487

> <CNN_VS>
2.0624928474

> <CNNaffinity_variance>
4.6044340134

$$$$
[H]c1c([H])c([H])c(C(=O)N2C([H])([H])C([H])([H])C([H])([H])C([H])([H])C2([H])[H])c(OC([H])([H])[H])c1[H]


 16 17  0  0  0  0  0  0  0  0999 V2000
  158.3066  133.8737  189.2687 C   0  0  0  0  0  0  0  0  0  0  0  0
  159.1610  133.0164  189.9332 C   0  0  0  0  0  0  0  0  0  0  0  0
  158.7224  132.2294  190.9768 C   0  0  0  0  0  0  0  0  0  0  0  0
  157.3951  132.3311  191.3327 C   0  0  0  0  0  0  0  0  0  0  0  0
  156.5449  133.1890  190.6660 C   0  0  0  0  0  0  0  0  0  0  0  0
  156.9698  133.9823  189.6201 C   0  0  0  0  0  0  0  0  0  0  0  0
  156.0600  134.8904  188.9181 C   0  0  0  0  0  0  0  0  0  0  0  0
  155.5247  134.4119  187.8642 O   0  0  0  0  0  0  0  0  0  0  0  0
  155.7893  136.2121  189.3745 N   0  0  0  0  0  0  0  0  0  0  0  0
  156.4492  136.6423  190.5728 C   0  0  0  0  0  0  0  0  0  0  0  0
  156.3338  138.0974  190.8634 C   0  0  0  0  0  0  0  0  0  0  0  0
  154.9140  138.5542  190.5780 C   0  0  0  0  0  0  0  0  0  0  0  0
  154.6917  138.3978  189.0981 C   0  0  0  0  0  0  0  0  0  0  0  0
  154.8759  137.0104  188.5981 C   0  0  0  0  0  0  0  0  0  0  0  0
  160.0756  134.8457  187.8564 C   0  0  0  0  0  0  0  0  0  0  0  0
  158.7282  134.6793  188.2101 O   0  0  0  0  0  0  0  0  0  0  0  0
 15 16  1  0  0  0
 16  1  1  0  0  0
  1  2  2  0  0  0
  2  3  1  0  0  0
  3  4  2  0  0  0
  4  5  1  0  0  0
  5  6  2  0  0  0
  6  7  1  0  0  0
  7  8  2  0  0  0
  7  9  1  0  0  0
  9 10  1  0  0  0
 10 11  1  0  0  0
 11 12  1  0  0  0
 12 13  1  0  0  0
 13 14  1  0  0  0
  6  1  1  0  0  0
 14  9  1  0  0  0
M  END
> <minimizedAffinity>
-4.70413

> <CNNscore>
0.6334276795

> <CNNaffinity>
4.1543860435

> <CNN_VS>
2.6315031052

> <CNNaffinity_variance>
0.0793010071

$$$$
[H]c1c([H])c([H])c(C(=O)N2C([H])([H])C([H])([H])C([H])([H])C([H])([H])C2([H])[H])c(OC([H])([H])[H])c1[H]


 16 17  0  0  0  0  0  0  0  0999 V2000
  151.4826  139.0458  181.2423 C   0  0  0  0  0  0  0  0  0  0  0  0
  151.8223  139.9290  180.2368 C   0  0  0  0  0  0  0  0  0  0  0  0
  151.0560  140.0512  179.0973 C   0  0  0  0  0  0  0  0  0  0  0  0
  149.9349  139.2562  178.9994 C   0  0  0  0  0  0  0  0  0  0  0  0
  149.5991  138.3750  180.0064 C   0  0  0  0  0  0  0  0  0  0  0  0
  150.3563  138.2421  181.1521 C   0  0  0  0  0  0  0  0  0  0  0  0
  149.9923  137.3038  182.2162 C   0  0  0  0  0  0  0  0  0  0  0  0
  150.5943  136.1803  182.1762 O   0  0  0  0  0  0  0  0  0  0  0  0
  149.0366  137.6179  183.2244 N   0  0  0  0  0  0  0  0  0  0  0  0
  148.4230  138.9129  183.1687 C   0  0  0  0  0  0  0  0  0  0  0  0
  147.2608  139.0951  184.0804 C   0  0  0  0  0  0  0  0  0  0  0  0
  147.5765  138.4665  185.4262 C   0  0  0  0  0  0  0  0  0  0  0  0
  147.7095  136.9852  185.1985 C   0  0  0  0  0  0  0  0  0  0  0  0
  148.7624  136.6121  184.2181 C   0  0  0  0  0  0  0  0  0  0  0  0
  153.3324  139.7316  182.7176 C   0  0  0  0  0  0  0  0  0  0  0  0
  152.2428  138.9053  182.4040 O   0  0  0  0  0  0  0  0  0  0  0  0
 15 16  1  0  0  0
 16  1  1  0  0  0
  1  2  2  0  0  0
  2  3  1  0  0  0
  3  4  2  0  0  0
  4  5  1  0  0  0
  5  6  2  0  0  0
  6  7  1  0  0  0
  7  8  2  0  0  0
  7  9  1  0  0  0
  9 10  1  0  0  0
 10 11  1  0  0  0
 11 12  1  0  0  0
 12 13  1  0  0  0
 13 14  1  0  0  0
  6  1  1  0  0  0
 14  9  1  0  0  0
M  END
> <minimizedAffinity>
-4.62785

> <CNNscore>
0.5943617225

> <CNNaffinity>
4.0307927132

> <CNN_VS>
2.3957488537

> <CNNaffinity_variance>
0.0998533219

$$$$
[H]c1c([H])c([H])c(C(=O)N2C([H])([H])C([H])([H])C([H])([H])C([H])([H])C2([H])[H])c(OC([H])([H])[H])c1[H]


 16 17  0  0  0  0  0  0  0  0999 V2000
  157.4375  142.4654  182.1535 C   0  0  0  0  0  0  0  0  0  0  0  0
  157.3395  142.5272  180.7776 C   0  0  0  0  0  0  0  0  0  0  0  0
  158.0213  141.6444  179.9673 C   0  0  0  0  0  0  0  0  0  0  0  0
  158.8067  140.6952  180.5843 C   0  0  0  0  0  0  0  0  0  0  0  0
  158.9018  140.6369  181.9594 C   0  0  0  0  0  0  0  0  0  0  0  0
  158.2253  141.5135  182.7826 C   0  0  0  0  0  0  0  0  0  0  0  0
  158.3323  141.4443  184.2417 C   0  0  0  0  0  0  0  0  0  0  0  0
  157.4417  140.7354  184.8165 O   0  0  0  0  0  0  0  0  0  0  0  0
  159.3542  142.1175  184.9705 N   0  0  0  0  0  0  0  0  0  0  0  0
  160.3019  142.8862  184.2172 C   0  0  0  0  0  0  0  0  0  0  0  0
  161.1841  143.7655  185.0319 C   0  0  0  0  0  0  0  0  0  0  0  0
  161.6371  143.0117  186.2699 C   0  0  0  0  0  0  0  0  0  0  0  0
  160.4096  142.7543  187.1010 C   0  0  0  0  0  0  0  0  0  0  0  0
  159.3549  141.9732  186.4035 C   0  0  0  0  0  0  0  0  0  0  0  0
  155.3675  143.3135  183.1852 C   0  0  0  0  0  0  0  0  0  0  0  0
  156.7568  143.3480  182.9931 O   0  0  0  0  0  0  0  0  0  0  0  0
 15 16  1  0  0  0
 16  1  1  0  0  0
  1  2  2  0  0  0
  2  3  1  0  0  0
  3  4  2  0  0  0
  4  5  1  0  0  0
  5  6  2  0  0  0
  6  7  1  0  0  0
  7  8  2  0  0  0
  7  9  1  0  0  0
  9 10  1  0  0  0
 10 11  1  0  0  0
 11 12  1  0  0  0
 12 13  1  0  0  0
 13 14  1  0  0  0
  6  1  1  0  0  0
 14  9  1  0  0  0
M  END
> <minimizedAffinity>
-7.02984

> <CNNscore>
0.5773759484

> <CNNaffinity>
5.2855296135

> <CNN_VS>
3.0517377853

> <CNNaffinity_variance>
0.0930940285

$$$$
[H]c1c([H])c([H])c(C(=O)N2C([H])([H])C([H])([H])C([H])([H])C([H])([H])C2([H])[H])c(OC([H])([H])[H])c1[H]


 16 17  0  0  0  0  0  0  0  0999 V2000
  158.8307  142.7821  182.1368 C   0  0  0  0  0  0  0  0  0  0  0  0
  159.2043  143.7687  181.2460 C   0  0  0  0  0  0  0  0  0  0  0  0
  159.1294  143.5737  179.8833 C   0  0  0  0  0  0  0  0  0  0  0  0
  158.6662  142.3531  179.4425 C   0  0  0  0  0  0  0  0  0  0  0  0
  158.2940  141.3700  180.3359 C   0  0  0  0  0  0  0  0  0  0  0  0
  158.3636  141.5512  181.7020 C   0  0  0  0  0  0  0  0  0  0  0  0
  157.9663  140.5017  182.6433 C   0  0  0  0  0  0  0  0  0  0  0  0
  158.9178  139.7654  183.0658 O   0  0  0  0  0  0  0  0  0  0  0  0
  156.6174  140.3130  183.0598 N   0  0  0  0  0  0  0  0  0  0  0  0
  155.6311  141.2020  182.5182 C   0  0  0  0  0  0  0  0  0  0  0  0
  154.2204  140.8079  182.7818 C   0  0  0  0  0  0  0  0  0  0  0  0
  154.0950  140.3247  184.2160 C   0  0  0  0  0  0  0  0  0  0  0  0
  154.9151  139.0684  184.3293 C   0  0  0  0  0  0  0  0  0  0  0  0
  156.3512  139.2462  183.9901 C   0  0  0  0  0  0  0  0  0  0  0  0
  160.1045  142.9953  184.2345 C   0  0  0  0  0  0  0  0  0  0  0  0
  158.8981  142.9572  183.5196 O   0  0  0  0  0  0  0  0  0  0  0  0
 15 16  1  0  0  0
 16  1  1  0  0  0
  1  2  2  0  0  0
  2  3  1  0  0  0
  3  4  2  0  0  0
  4  5  1  0  0  0
  5  6  2  0  0  0
  6  7  1  0  0  0
  7  8  2  0  0  0
  7  9  1  0  0  0
  9 10  1  0  0  0
 10 11  1  0  0  0
 11 12  1  0  0  0
 12 13  1  0  0  0
 13 14  1  0  0  0
  6  1  1  0  0  0
 14  9  1  0  0  0
M  END
> <minimizedAffinity>
-6.87737

> <CNNscore>
0.5678991675

> <CNNaffinity>
5.1119904518

> <CNN_VS>
2.9030950069

> <CNNaffinity_variance>
0.2378792018

$$$$
[H]c1c([H])c([H])c(C(=O)N2C([H])([H])C([H])([H])C([H])([H])C([H])([H])C2([H])[H])c(OC([H])([H])[H])c1[H]


 16 17  0  0  0  0  0  0  0  0999 V2000
  155.0239  136.1622  189.2659 C   0  0  0  0  0  0  0  0  0  0  0  0
  154.4466  137.4026  189.0798 C   0  0  0  0  0  0  0  0  0  0  0  0
  154.8494  138.5005  189.8099 C   0  0  0  0  0  0  0  0  0  0  0  0
  155.8531  138.3126  190.7351 C   0  0  0  0  0  0  0  0  0  0  0  0
  156.4272  137.0715  190.9178 C   0  0  0  0  0  0  0  0  0  0  0  0
  156.0342  135.9642  190.1946 C   0  0  0  0  0  0  0  0  0  0  0  0
  156.6494  134.6502  190.3953 C   0  0  0  0  0  0  0  0  0  0  0  0
  156.1096  133.9327  191.3008 O   0  0  0  0  0  0  0  0  0  0  0  0
  157.7687  134.2015  189.6374 N   0  0  0  0  0  0  0  0  0  0  0  0
  158.2922  135.0948  188.6453 C   0  0  0  0  0  0  0  0  0  0  0  0
  159.6012  134.6888  188.0650 C   0  0  0  0  0  0  0  0  0  0  0  0
  159.5910  133.1929  187.8040 C   0  0  0  0  0  0  0  0  0  0  0  0
  159.4912  132.5142  189.1431 C   0  0  0  0  0  0  0  0  0  0  0  0
  158.2853  132.8886  189.9269 C   0  0  0  0  0  0  0  0  0  0  0  0
  153.3057  134.5867  188.4697 C   0  0  0  0  0  0  0  0  0  0  0  0
  154.6324  135.0374  188.5387 O   0  0  0  0  0  0  0  0  0  0  0  0
 15 16  1  0  0  0
 16  1  1  0  0  0
  1  2  2  0  0  0
  2  3  1  0  0  0
  3  4  2  0  0  0
  4  5  1  0  0  0
  5  6  2  0  0  0
  6  7  1  0  0  0
  7  8  2  0  0  0
  7  9  1  0  0  0
  9 10  1  0  0  0
 10 11  1  0  0  0
 11 12  1  0  0  0
 12 13  1  0  0  0
 13 14  1  0  0  0
  6  1  1  0  0  0
 14  9  1  0  0  0
M  END
> <minimizedAffinity>
-4.82118

> <CNNscore>
0.5423703194

> <CNNaffinity>
4.0195031166

> <CNN_VS>
2.1800591946

> <CNNaffinity_variance>
0.1129939705

$$$$
[H]c1c([H])c([H])c(C(=O)N2C([H])([H])C([H])([H])C([H])([H])C([H])([H])C2([H])[H])c(OC([H])([H])[H])c1[H]


 16 17  0  0  0  0  0  0  0  0999 V2000
  157.4405  133.6392  189.1317 C   0  0  0  0  0  0  0  0  0  0  0  0
  158.5662  132.8889  189.4080 C   0  0  0  0  0  0  0  0  0  0  0  0
  159.7848  133.1816  188.8336 C   0  0  0  0  0  0  0  0  0  0  0  0
  159.8372  134.2545  187.9707 C   0  0  0  0  0  0  0  0  0  0  0  0
  158.7101  135.0016  187.6973 C   0  0  0  0  0  0  0  0  0  0  0  0
  157.4842  134.7204  188.2646 C   0  0  0  0  0  0  0  0  0  0  0  0
  156.2926  135.5190  187.9686 C   0  0  0  0  0  0  0  0  0  0  0  0
  155.6370  135.1511  186.9385 O   0  0  0  0  0  0  0  0  0  0  0  0
  155.8909  136.6264  188.7691 N   0  0  0  0  0  0  0  0  0  0  0  0
  156.7064  136.9479  189.9040 C   0  0  0  0  0  0  0  0  0  0  0  0
  156.3929  138.2507  190.5516 C   0  0  0  0  0  0  0  0  0  0  0  0
  154.8860  138.4202  190.6324 C   0  0  0  0  0  0  0  0  0  0  0  0
  154.3784  138.5153  189.2193 C   0  0  0  0  0  0  0  0  0  0  0  0
  154.6998  137.3343  188.3762 C   0  0  0  0  0  0  0  0  0  0  0  0
  155.9462  133.4351  191.0794 C   0  0  0  0  0  0  0  0  0  0  0  0
  156.1972  133.3616  189.7011 O   0  0  0  0  0  0  0  0  0  0  0  0
 15 16  1  0  0  0
 16  1  1  0  0  0
  1  2  2  0  0  0
  2  3  1  0  0  0
  3  4  2  0  0  0
  4  5  1  0  0  0
  5  6  2  0  0  0
  6  7  1  0  0  0
  7  8  2  0  0  0
  7  9  1  0  0  0
  9 10  1  0  0  0
 10 11  1  0  0  0
 11 12  1  0  0  0
 12 13  1  0  0  0
 13 14  1  0  0  0
  6  1  1  0  0  0
 14  9  1  0  0  0
M  END
> <minimizedAffinity>
-4.99380

> <CNNscore>
0.5395911336

> <CNNaffinity>
4.0228152275

> <CNN_VS>
2.1706755161

> <CNNaffinity_variance>
0.1272374392

$$$$
[H]c1c([H])c([H])c(C(=O)N2C([H])([H])C([H])([H])C([H])([H])C([H])([H])C2([H])[H])c(OC([H])([H])[H])c1[H]


 16 17  0  0  0  0  0  0  0  0999 V2000
  151.4726  135.5323  191.9482 C   0  0  0  0  0  0  0  0  0  0  0  0
  150.3439  135.7214  192.7206 C   0  0  0  0  0  0  0  0  0  0  0  0
  150.4037  135.7058  194.0979 C   0  0  0  0  0  0  0  0  0  0  0  0
  151.6363  135.4936  194.6762 C   0  0  0  0  0  0  0  0  0  0  0  0
  152.7615  135.3051  193.9007 C   0  0  0  0  0  0  0  0  0  0  0  0
  152.7167  135.3182  192.5217 C   0  0  0  0  0  0  0  0  0  0  0  0
  153.9166  135.1171  191.7062 C   0  0  0  0  0  0  0  0  0  0  0  0
  154.2464  133.8994  191.5200 O   0  0  0  0  0  0  0  0  0  0  0  0
  154.6642  136.1987  191.1586 N   0  0  0  0  0  0  0  0  0  0  0  0
  154.1983  137.5266  191.4344 C   0  0  0  0  0  0  0  0  0  0  0  0
  155.1445  138.6127  191.0599 C   0  0  0  0  0  0  0  0  0  0  0  0
  155.7629  138.2948  189.7099 C   0  0  0  0  0  0  0  0  0  0  0  0
  156.5921  137.0522  189.8885 C   0  0  0  0  0  0  0  0  0  0  0  0
  155.8266  135.8739  190.3727 C   0  0  0  0  0  0  0  0  0  0  0  0
  150.4912  134.8309  189.8003 C   0  0  0  0  0  0  0  0  0  0  0  0
  151.4360  135.5441  190.5533 O   0  0  0  0  0  0  0  0  0  0  0  0
 15 16  1  0  0  0
 16  1  1  0  0  0
  1  2  2  0  0  0
  2  3  1  0  0  0
  3  4  2  0  0  0
  4  5  1  0  0  0
  5  6  2  0  0  0
  6  7  1  0  0  0
  7  8  2  0  0  0
  7  9  1  0  0  0
  9 10  1  0  0  0
 10 11  1  0  0  0
 11 12  1  0  0  0
 12 13  1  0  0  0
 13 14  1  0  0  0
  6  1  1  0  0  0
 14  9  1  0  0  0
M  END
> <minimizedAffinity>
-4.78516

> <CNNscore>
0.5347918272

> <CNNaffinity>
3.9396717548

> <CNN_VS>
2.1069042683

> <CNNaffinity_variance>
0.0767250955

$$$$
[H]c1c([H])c([H])c(C(=O)N2C([H])([H])C([H])([H])C([H])([H])C([H])([H])C2([H])[H])c(OC([H])([H])[H])c1[H]


 16 17  0  0  0  0  0  0  0  0999 V2000
  156.7923  141.8878  183.3917 C   0  0  0  0  0  0  0  0  0  0  0  0
  155.4374  141.6674  183.5404 C   0  0  0  0  0  0  0  0  0  0  0  0
  154.9538  140.4896  184.0691 C   0  0  0  0  0  0  0  0  0  0  0  0
  155.8765  139.5376  184.4447 C   0  0  0  0  0  0  0  0  0  0  0  0
  157.2294  139.7619  184.2943 C   0  0  0  0  0  0  0  0  0  0  0  0
  157.7276  140.9355  183.7669 C   0  0  0  0  0  0  0  0  0  0  0  0
  159.1658  141.1650  183.6108 C   0  0  0  0  0  0  0  0  0  0  0  0
  159.6538  140.7985  182.4911 O   0  0  0  0  0  0  0  0  0  0  0  0
  159.9655  141.7541  184.6316 N   0  0  0  0  0  0  0  0  0  0  0  0
  159.3075  142.1268  185.8500 C   0  0  0  0  0  0  0  0  0  0  0  0
  160.2193  142.4975  186.9663 C   0  0  0  0  0  0  0  0  0  0  0  0
  161.3497  143.3554  186.4258 C   0  0  0  0  0  0  0  0  0  0  0  0
  162.1511  142.4888  185.4928 C   0  0  0  0  0  0  0  0  0  0  0  0
  161.3691  141.9284  184.3600 C   0  0  0  0  0  0  0  0  0  0  0  0
  156.5183  144.0173  182.1840 C   0  0  0  0  0  0  0  0  0  0  0  0
  157.3043  143.0717  182.8593 O   0  0  0  0  0  0  0  0  0  0  0  0
 15 16  1  0  0  0
 16  1  1  0  0  0
  1  2  2  0  0  0
  2  3  1  0  0  0
  3  4  2  0  0  0
  4  5  1  0  0  0
  5  6  2  0  0  0
  6  7  1  0  0  0
  7  8  2  0  0  0
  7  9  1  0  0  0
  9 10  1  0  0  0
 10 11  1  0  0  0
 11 12  1  0  0  0
 12 13  1  0  0  0
 13 14  1  0  0  0
  6  1  1  0  0  0
 14  9  1  0  0  0
M  END
> <minimizedAffinity>
-7.20096

> <CNNscore>
0.5316406488

> <CNNaffinity>
5.1340203285

> <CNN_VS>
2.7294538021

> <CNNaffinity_variance>
0.1075187325

$$$$
[H]c1c([H])c([H])c(C(=O)N2C([H])([H])C([H])([H])C([H])([H])C([H])([H])C2([H])[H])c(OC([H])([H])[H])c1[H]


 16 17  0  0  0  0  0  0  0  0999 V2000
  156.2376  136.4365  189.1679 C   0  0  0  0  0  0  0  0  0  0  0  0
  156.5808  136.2465  190.4918 C   0  0  0  0  0  0  0  0  0  0  0  0
  156.2696  137.1804  191.4570 C   0  0  0  0  0  0  0  0  0  0  0  0
  155.6010  138.3142  191.0493 C   0  0  0  0  0  0  0  0  0  0  0  0
  155.2600  138.5001  189.7255 C   0  0  0  0  0  0  0  0  0  0  0  0
  155.5649  137.5742  188.7490 C   0  0  0  0  0  0  0  0  0  0  0  0
  155.1990  137.7800  187.3458 C   0  0  0  0  0  0  0  0  0  0  0  0
  156.1111  138.2953  186.6187 O   0  0  0  0  0  0  0  0  0  0  0  0
  153.9195  137.4317  186.8259 N   0  0  0  0  0  0  0  0  0  0  0  0
  152.9727  136.8586  187.7378 C   0  0  0  0  0  0  0  0  0  0  0  0
  151.5842  136.7501  187.2129 C   0  0  0  0  0  0  0  0  0  0  0  0
  151.6293  136.2724  185.7721 C   0  0  0  0  0  0  0  0  0  0  0  0
  152.3025  137.3541  184.9718 C   0  0  0  0  0  0  0  0  0  0  0  0
  153.6783  137.6823  185.4283 C   0  0  0  0  0  0  0  0  0  0  0  0
  157.8430  135.0444  187.9216 C   0  0  0  0  0  0  0  0  0  0  0  0
  156.5423  135.5052  188.1743 O   0  0  0  0  0  0  0  0  0  0  0  0
 15 16  1  0  0  0
 16  1  1  0  0  0
  1  2  2  0  0  0
  2  3  1  0  0  0
  3  4  2  0  0  0
  4  5  1  0  0  0
  5  6  2  0  0  0
  6  7  1  0  0  0
  7  8  2  0  0  0
  7  9  1  0  0  0
  9 10  1  0  0  0
 10 11  1  0  0  0
 11 12  1  0  0  0
 12 13  1  0  0  0
 13 14  1  0  0  0
  6  1  1  0  0  0
 14  9  1  0  0  0
M  END
> <minimizedAffinity>
-4.55734

> <CNNscore>
0.5181446671

> <CNNaffinity>
4.0673198700

> <CNN_VS>
2.1074600220

> <CNNaffinity_variance>
0.1132436171

$$$$
[H]c1c([H])c([H])c2c(c1[H])c1c3c(c4c5c([H])c([H])c([H])c([H])c5n5c4c1n2[C@]1([H])O[C@]5(C([H])([H])[H])[C@]([H])(OC([H])([H])[H])[C@@]([H])(N([H])C([H])([H])[H])C1([H])[H])C([H])([H])N([H])C3=O


 37 44  0  0  0  0  0  0  0  0999 V2000
  156.5614  137.3383  189.2241 C   0  0  0  0  0  0  0  0  0  0  0  0
  155.8358  137.6275  187.8691 C   0  0  0  0  0  0  0  0  0  0  0  0
  154.5322  137.3498  188.1986 C   0  0  0  0  0  0  0  0  0  0  0  0
  154.2493  138.2505  189.2212 O   0  0  0  0  0  0  0  0  0  0  0  0
  154.3383  137.4992  190.4354 C   0  0  0  0  0  0  0  0  0  0  0  0
  154.4182  138.6478  191.4708 C   0  0  0  0  0  0  0  0  0  0  0  0
  155.5863  136.7754  190.2968 C   0  0  0  0  0  0  0  0  0  0  0  0
  153.0468  136.8512  190.5292 N   0  0  0  0  0  0  0  0  0  0  0  0
  152.4149  136.5140  191.6819 C   0  0  0  0  0  0  0  0  0  0  0  0
  152.8120  136.5415  192.9880 C   0  0  0  0  0  0  0  0  0  0  0  0
  151.9552  136.1255  193.9989 C   0  0  0  0  0  0  0  0  0  0  0  0
  150.6639  135.6658  193.7214 C   0  0  0  0  0  0  0  0  0  0  0  0
  150.2539  135.6335  192.4051 C   0  0  0  0  0  0  0  0  0  0  0  0
  151.1313  136.0540  191.4290 C   0  0  0  0  0  0  0  0  0  0  0  0
  150.9560  136.0991  190.0935 C   0  0  0  0  0  0  0  0  0  0  0  0
  149.9157  135.8246  189.1928 C   0  0  0  0  0  0  0  0  0  0  0  0
  148.5714  135.3132  189.5065 C   0  0  0  0  0  0  0  0  0  0  0  0
  147.9090  135.1986  188.2324 N   0  0  0  0  0  0  0  0  0  0  0  0
  148.7976  135.6345  187.1824 C   0  0  0  0  0  0  0  0  0  0  0  0
  148.4052  135.6189  186.0053 O   0  0  0  0  0  0  0  0  0  0  0  0
  150.0327  136.0133  187.8273 C   0  0  0  0  0  0  0  0  0  0  0  0
  151.2155  136.4905  187.2799 C   0  0  0  0  0  0  0  0  0  0  0  0
  151.7056  136.7474  186.0300 C   0  0  0  0  0  0  0  0  0  0  0  0
  151.1653  136.6771  184.7882 C   0  0  0  0  0  0  0  0  0  0  0  0
  151.9788  137.0270  183.6952 C   0  0  0  0  0  0  0  0  0  0  0  0
  153.2818  137.4276  183.8901 C   0  0  0  0  0  0  0  0  0  0  0  0
  153.8238  137.4958  185.1666 C   0  0  0  0  0  0  0  0  0  0  0  0
  153.0129  137.1503  186.2142 C   0  0  0  0  0  0  0  0  0  0  0  0
  153.3287  137.1492  187.5044 N   0  0  0  0  0  0  0  0  0  0  0  0
  152.2174  136.7503  188.1781 C   0  0  0  0  0  0  0  0  0  0  0  0
  152.0970  136.5670  189.5666 C   0  0  0  0  0  0  0  0  0  0  0  0
  146.9295  134.8451  188.1472 H   0  0  0  0  0  0  0  0  0  0  0  0
  156.8633  135.0288  188.6512 C   0  0  0  0  0  0  0  0  0  0  0  0
  157.5023  136.2752  188.9249 N   0  0  0  0  0  0  0  0  0  0  0  0
  158.1758  136.1791  189.7435 H   0  0  0  0  0  0  0  0  0  0  0  0
  156.3415  137.0351  191.4786 O   0  0  0  0  0  0  0  0  0  0  0  0
  156.5615  135.9299  192.2380 C   0  0  0  0  0  0  0  0  0  0  0  0
 33 34  1  0  0  0
 34  1  1  0  0  0
  1  2  1  0  0  0
  2  3  1  0  0  0
  3  4  1  0  0  0
  4  5  1  0  0  0
  5  6  1  0  0  0
  5  7  1  0  0  0
  7 36  1  0  0  0
 36 37  1  0  0  0
  5  8  1  0  0  0
  8  9  1  0  0  0
  9 10  2  0  0  0
 10 11  1  0  0  0
 11 12  2  0  0  0
 12 13  1  0  0  0
 13 14  2  0  0  0
 14 15  1  0  0  0
 15 16  2  0  0  0
 16 17  1  0  0  0
 17 18  1  0  0  0
 18 19  1  0  0  0
 19 20  2  0  0  0
 19 21  1  0  0  0
 21 22  2  0  0  0
 22 23  1  0  0  0
 23 24  2  0  0  0
 24 25  1  0  0  0
 25 26  2  0  0  0
 26 27  1  0  0  0
 27 28  2  0  0  0
 28 29  1  0  0  0
 29 30  1  0  0  0
 30 31  2  0  0  0
  7  1  1  0  0  0
 31  8  1  0  0  0
 29  3  1  0  0  0
 14  9  1  0  0  0
 31 15  1  0  0  0
 21 16  1  0  0  0
 30 22  1  0  0  0
 28 23  1  0  0  0
 34 35  1  0  0  0
 18 32  1  0  0  0
M  END
> <minimizedAffinity>
-7.59095

> <CNNscore>
0.4655369818

> <CNNaffinity>
5.7936415672

> <CNN_VS>
2.6971545219

> <CNNaffinity_variance>
0.5290058851

$$$$
[H]c1c([H])c([H])c2c(c1[H])c1c3c(c4c5c([H])c([H])c([H])c([H])c5n5c4c1n2[C@]1([H])O[C@]5(C([H])([H])[H])[C@]([H])(OC([H])([H])[H])[C@@]([H])(N([H])C([H])([H])[H])C1([H])[H])C([H])([H])N([H])C3=O


 37 44  0  0  0  0  0  0  0  0999 V2000
  148.1795  134.2685  188.0040 C   0  0  0  0  0  0  0  0  0  0  0  0
  148.5776  134.7860  189.4253 C   0  0  0  0  0  0  0  0  0  0  0  0
  149.7280  135.4812  189.1449 C   0  0  0  0  0  0  0  0  0  0  0  0
  149.3114  136.4671  188.2554 O   0  0  0  0  0  0  0  0  0  0  0  0
  149.7007  136.0081  186.9575 C   0  0  0  0  0  0  0  0  0  0  0  0
  148.8478  136.9406  186.0626 C   0  0  0  0  0  0  0  0  0  0  0  0
  149.2472  134.6317  186.9333 C   0  0  0  0  0  0  0  0  0  0  0  0
  151.0944  136.3904  186.8661 N   0  0  0  0  0  0  0  0  0  0  0  0
  151.7529  136.7052  185.7221 C   0  0  0  0  0  0  0  0  0  0  0  0
  151.3937  136.6325  184.4067 C   0  0  0  0  0  0  0  0  0  0  0  0
  152.2777  137.0188  183.4076 C   0  0  0  0  0  0  0  0  0  0  0  0
  153.5591  137.4926  183.7065 C   0  0  0  0  0  0  0  0  0  0  0  0
  153.9315  137.5689  185.0320 C   0  0  0  0  0  0  0  0  0  0  0  0
  153.0279  137.1769  185.9961 C   0  0  0  0  0  0  0  0  0  0  0  0
  153.1737  137.1535  187.3356 C   0  0  0  0  0  0  0  0  0  0  0  0
  154.1652  137.5190  188.2589 C   0  0  0  0  0  0  0  0  0  0  0  0
  155.5009  138.0656  187.9690 C   0  0  0  0  0  0  0  0  0  0  0  0
  156.1156  138.2525  189.2583 N   0  0  0  0  0  0  0  0  0  0  0  0
  155.1959  137.8550  190.2967 C   0  0  0  0  0  0  0  0  0  0  0  0
  155.5394  137.9500  191.4853 O   0  0  0  0  0  0  0  0  0  0  0  0
  153.9980  137.4057  189.6275 C   0  0  0  0  0  0  0  0  0  0  0  0
  152.8137  136.9098  190.1548 C   0  0  0  0  0  0  0  0  0  0  0  0
  152.3177  136.6163  191.3943 C   0  0  0  0  0  0  0  0  0  0  0  0
  152.8105  136.7599  192.6495 C   0  0  0  0  0  0  0  0  0  0  0  0
  152.0053  136.3425  193.7249 C   0  0  0  0  0  0  0  0  0  0  0  0
  150.7569  135.8065  193.5001 C   0  0  0  0  0  0  0  0  0  0  0  0
  150.2631  135.6648  192.2102 C   0  0  0  0  0  0  0  0  0  0  0  0
  151.0649  136.0778  191.1801 C   0  0  0  0  0  0  0  0  0  0  0  0
  150.7861  136.0355  189.8822 N   0  0  0  0  0  0  0  0  0  0  0  0
  151.8608  136.5585  189.2346 C   0  0  0  0  0  0  0  0  0  0  0  0
  152.0263  136.6810  187.8441 C   0  0  0  0  0  0  0  0  0  0  0  0
  157.0866  138.6245  189.3602 H   0  0  0  0  0  0  0  0  0  0  0  0
  147.5867  132.3573  189.3265 C   0  0  0  0  0  0  0  0  0  0  0  0
  148.1859  132.8221  188.1175 N   0  0  0  0  0  0  0  0  0  0  0  0
  149.1915  132.4812  188.0427 H   0  0  0  0  0  0  0  0  0  0  0  0
  148.4703  134.4794  185.7471 O   0  0  0  0  0  0  0  0  0  0  0  0
  149.0483  133.6745  184.8172 C   0  0  0  0  0  0  0  0  0  0  0  0
 33 34  1  0  0  0
 34  1  1  0  0  0
  1  2  1  0  0  0
  2  3  1  0  0  0
  3  4  1  0  0  0
  4  5  1  0  0  0
  5  6  1  0  0  0
  5  7  1  0  0  0
  7 36  1  0  0  0
 36 37  1  0  0  0
  5  8  1  0  0  0
  8  9  1  0  0  0
  9 10  2  0  0  0
 10 11  1  0  0  0
 11 12  2  0  0  0
 12 13  1  0  0  0
 13 14  2  0  0  0
 14 15  1  0  0  0
 15 16  2  0  0  0
 16 17  1  0  0  0
 17 18  1  0  0  0
 18 19  1  0  0  0
 19 20  2  0  0  0
 19 21  1  0  0  0
 21 22  2  0  0  0
 22 23  1  0  0  0
 23 24  2  0  0  0
 24 25  1  0  0  0
 25 26  2  0  0  0
 26 27  1  0  0  0
 27 28  2  0  0  0
 28 29  1  0  0  0
 29 30  1  0  0  0
 30 31  2  0  0  0
  7  1  1  0  0  0
 31  8  1  0  0  0
 29  3  1  0  0  0
 14  9  1  0  0  0
 31 15  1  0  0  0
 21 16  1  0  0  0
 30 22  1  0  0  0
 28 23  1  0  0  0
 34 35  1  0  0  0
 18 32  1  0  0  0
M  END
> <minimizedAffinity>
-6.76804

> <CNNscore>
0.3598614633

> <CNNaffinity>
5.4663696289

> <CNN_VS>
1.9671357870

> <CNNaffinity_variance>
0.3634103835

$$$$
[H]c1c([H])c([H])c2c(c1[H])c1c3c(c4c5c([H])c([H])c([H])c([H])c5n5c4c1n2[C@]1([H])O[C@]5(C([H])([H])[H])[C@]([H])(OC([H])([H])[H])[C@@]([H])(N([H])C([H])([H])[H])C1([H])[H])C([H])([H])N([H])C3=O


 37 44  0  0  0  0  0  0  0  0999 V2000
  151.3215  137.2040  185.8914 C   0  0  0  0  0  0  0  0  0  0  0  0
  152.2652  137.7915  186.9916 C   0  0  0  0  0  0  0  0  0  0  0  0
  153.3468  136.9516  186.8934 C   0  0  0  0  0  0  0  0  0  0  0  0
  153.7870  137.1289  185.5851 O   0  0  0  0  0  0  0  0  0  0  0  0
  153.2990  135.9993  184.8553 C   0  0  0  0  0  0  0  0  0  0  0  0
  153.4827  136.5031  183.4027 C   0  0  0  0  0  0  0  0  0  0  0  0
  151.9077  135.9133  185.2520 C   0  0  0  0  0  0  0  0  0  0  0  0
  154.2739  134.9663  185.1369 N   0  0  0  0  0  0  0  0  0  0  0  0
  154.6059  133.9468  184.3050 C   0  0  0  0  0  0  0  0  0  0  0  0
  154.0816  133.5235  183.1174 C   0  0  0  0  0  0  0  0  0  0  0  0
  154.6147  132.4231  182.4586 C   0  0  0  0  0  0  0  0  0  0  0  0
  155.6992  131.7113  182.9811 C   0  0  0  0  0  0  0  0  0  0  0  0
  156.2351  132.1306  184.1806 C   0  0  0  0  0  0  0  0  0  0  0  0
  155.6800  133.2265  184.8055 C   0  0  0  0  0  0  0  0  0  0  0  0
  156.0254  133.8014  185.9744 C   0  0  0  0  0  0  0  0  0  0  0  0
  157.0160  133.6109  186.9499 C   0  0  0  0  0  0  0  0  0  0  0  0
  158.0587  132.5721  186.9761 C   0  0  0  0  0  0  0  0  0  0  0  0
  158.7971  132.8150  188.1889 N   0  0  0  0  0  0  0  0  0  0  0  0
  158.2460  133.9606  188.8715 C   0  0  0  0  0  0  0  0  0  0  0  0
  158.7538  134.3373  189.9392 O   0  0  0  0  0  0  0  0  0  0  0  0
  157.1409  134.4210  188.0643 C   0  0  0  0  0  0  0  0  0  0  0  0
  156.2664  135.4793  188.2686 C   0  0  0  0  0  0  0  0  0  0  0  0
  156.0517  136.4263  189.2307 C   0  0  0  0  0  0  0  0  0  0  0  0
  156.6872  136.7344  190.3884 C   0  0  0  0  0  0  0  0  0  0  0  0
  156.1825  137.8023  191.1526 C   0  0  0  0  0  0  0  0  0  0  0  0
  155.0774  138.5070  190.7299 C   0  0  0  0  0  0  0  0  0  0  0  0
  154.4354  138.1820  189.5425 C   0  0  0  0  0  0  0  0  0  0  0  0
  154.9447  137.1391  188.8163 C   0  0  0  0  0  0  0  0  0  0  0  0
  154.4887  136.6707  187.6600 N   0  0  0  0  0  0  0  0  0  0  0  0
  155.3071  135.6452  187.3041 C   0  0  0  0  0  0  0  0  0  0  0  0
  155.1843  134.8279  186.1670 C   0  0  0  0  0  0  0  0  0  0  0  0
  159.6025  132.2149  188.4767 H   0  0  0  0  0  0  0  0  0  0  0  0
  148.9763  137.5704  186.2364 C   0  0  0  0  0  0  0  0  0  0  0  0
  150.1223  136.8029  186.6029 N   0  0  0  0  0  0  0  0  0  0  0  0
  150.3069  136.8811  187.6482 H   0  0  0  0  0  0  0  0  0  0  0  0
  151.1432  135.8637  184.0490 O   0  0  0  0  0  0  0  0  0  0  0  0
  150.5395  134.6649  183.8365 C   0  0  0  0  0  0  0  0  0  0  0  0
 33 34  1  0  0  0
 34  1  1  0  0  0
  1  2  1  0  0  0
  2  3  1  0  0  0
  3  4  1  0  0  0
  4  5  1  0  0  0
  5  6  1  0  0  0
  5  7  1  0  0  0
  7 36  1  0  0  0
 36 37  1  0  0  0
  5  8  1  0  0  0
  8  9  1  0  0  0
  9 10  2  0  0  0
 10 11  1  0  0  0
 11 12  2  0  0  0
 12 13  1  0  0  0
 13 14  2  0  0  0
 14 15  1  0  0  0
 15 16  2  0  0  0
 16 17  1  0  0  0
 17 18  1  0  0  0
 18 19  1  0  0  0
 19 20  2  0  0  0
 19 21  1  0  0  0
 21 22  2  0  0  0
 22 23  1  0  0  0
 23 24  2  0  0  0
 24 25  1  0  0  0
 25 26  2  0  0  0
 26 27  1  0  0  0
 27 28  2  0  0  0
 28 29  1  0  0  0
 29 30  1  0  0  0
 30 31  2  0  0  0
  7  1  1  0  0  0
 31  8  1  0  0  0
 29  3  1  0  0  0
 14  9  1  0  0  0
 31 15  1  0  0  0
 21 16  1  0  0  0
 30 22  1  0  0  0
 28 23  1  0  0  0
 34 35  1  0  0  0
 18 32  1  0  0  0
M  END
> <minimizedAffinity>
-6.70441

> <CNNscore>
0.3564025760

> <CNNaffinity>
5.4327888489

> <CNN_VS>
1.9362599850

> <CNNaffinity_variance>
0.3507146239

$$$$
[H]c1c([H])c([H])c2c(c1[H])c1c3c(c4c5c([H])c([H])c([H])c([H])c5n5c4c1n2[C@]1([H])O[C@]5(C([H])([H])[H])[C@]([H])(OC([H])([H])[H])[C@@]([H])(N([H])C([H])([H])[H])C1([H])[H])C([H])([H])N([H])C3=O


 37 44  0  0  0  0  0  0  0  0999 V2000
  157.4334  134.5867  188.4289 C   0  0  0  0  0  0  0  0  0  0  0  0
  156.8280  134.5475  186.9874 C   0  0  0  0  0  0  0  0  0  0  0  0
  155.5177  134.8722  187.2381 C   0  0  0  0  0  0  0  0  0  0  0  0
  155.5932  136.1387  187.8101 O   0  0  0  0  0  0  0  0  0  0  0  0
  155.4369  135.9384  189.2180 C   0  0  0  0  0  0  0  0  0  0  0  0
  155.9396  137.3017  189.7529 C   0  0  0  0  0  0  0  0  0  0  0  0
  156.3455  134.8472  189.5092 C   0  0  0  0  0  0  0  0  0  0  0  0
  154.0021  135.8491  189.3910 N   0  0  0  0  0  0  0  0  0  0  0  0
  153.3166  136.2202  190.5019 C   0  0  0  0  0  0  0  0  0  0  0  0
  153.7256  136.6215  191.7413 C   0  0  0  0  0  0  0  0  0  0  0  0
  152.7989  136.9446  192.7240 C   0  0  0  0  0  0  0  0  0  0  0  0
  151.4228  136.8719  192.4853 C   0  0  0  0  0  0  0  0  0  0  0  0
  150.9998  136.4669  191.2368 C   0  0  0  0  0  0  0  0  0  0  0  0
  151.9482  136.1544  190.2868 C   0  0  0  0  0  0  0  0  0  0  0  0
  151.7717  135.7301  189.0199 C   0  0  0  0  0  0  0  0  0  0  0  0
  150.6824  135.4894  188.1686 C   0  0  0  0  0  0  0  0  0  0  0  0
  149.2512  135.6209  188.4869 C   0  0  0  0  0  0  0  0  0  0  0  0
  148.5640  135.2457  187.2778 N   0  0  0  0  0  0  0  0  0  0  0  0
  149.5266  134.9138  186.2554 C   0  0  0  0  0  0  0  0  0  0  0  0
  149.1290  134.5716  185.1308 O   0  0  0  0  0  0  0  0  0  0  0  0
  150.8293  135.0793  186.8557 C   0  0  0  0  0  0  0  0  0  0  0  0
  152.0925  134.8810  186.3157 C   0  0  0  0  0  0  0  0  0  0  0  0
  152.6150  134.4501  185.1283 C   0  0  0  0  0  0  0  0  0  0  0  0
  152.0582  134.0851  183.9469 C   0  0  0  0  0  0  0  0  0  0  0  0
  152.9194  133.6876  182.9079 C   0  0  0  0  0  0  0  0  0  0  0  0
  154.2838  133.6734  183.0941 C   0  0  0  0  0  0  0  0  0  0  0  0
  154.8420  134.0497  184.3083 C   0  0  0  0  0  0  0  0  0  0  0  0
  153.9839  134.4323  185.3043 C   0  0  0  0  0  0  0  0  0  0  0  0
  154.3065  134.8299  186.5298 N   0  0  0  0  0  0  0  0  0  0  0  0
  153.1406  135.1209  187.1655 C   0  0  0  0  0  0  0  0  0  0  0  0
  152.9929  135.5457  188.4973 C   0  0  0  0  0  0  0  0  0  0  0  0
  147.5212  135.2354  187.2138 H   0  0  0  0  0  0  0  0  0  0  0  0
  159.3437  133.1374  188.4870 C   0  0  0  0  0  0  0  0  0  0  0  0
  157.9314  133.2440  188.6618 N   0  0  0  0  0  0  0  0  0  0  0  0
  157.4216  132.5759  188.0085 H   0  0  0  0  0  0  0  0  0  0  0  0
  157.1687  135.2799  190.5905 O   0  0  0  0  0  0  0  0  0  0  0  0
  157.1676  134.4290  191.6500 C   0  0  0  0  0  0  0  0  0  0  0  0
 33 34  1  0  0  0
 34  1  1  0  0  0
  1  2  1  0  0  0
  2  3  1  0  0  0
  3  4  1  0  0  0
  4  5  1  0  0  0
  5  6  1  0  0  0
  5  7  1  0  0  0
  7 36  1  0  0  0
 36 37  1  0  0  0
  5  8  1  0  0  0
  8  9  1  0  0  0
  9 10  2  0  0  0
 10 11  1  0  0  0
 11 12  2  0  0  0
 12 13  1  0  0  0
 13 14  2  0  0  0
 14 15  1  0  0  0
 15 16  2  0  0  0
 16 17  1  0  0  0
 17 18  1  0  0  0
 18 19  1  0  0  0
 19 20  2  0  0  0
 19 21  1  0  0  0
 21 22  2  0  0  0
 22 23  1  0  0  0
 23 24  2  0  0  0
 24 25  1  0  0  0
 25 26  2  0  0  0
 26 27  1  0  0  0
 27 28  2  0  0  0
 28 29  1  0  0  0
 29 30  1  0  0  0
 30 31  2  0  0  0
  7  1  1  0  0  0
 31  8  1  0  0  0
 29  3  1  0  0  0
 14  9  1  0  0  0
 31 15  1  0  0  0
 21 16  1  0  0  0
 30 22  1  0  0  0
 28 23  1  0  0  0
 34 35  1  0  0  0
 18 32  1  0  0  0
M  END
> <minimizedAffinity>
-5.63976

> <CNNscore>
0.3548015058

> <CNNaffinity>
5.6931867599

> <CNN_VS>
2.0199513435

> <CNNaffinity_variance>
0.1447004229

$$$$
[H]c1c([H])c([H])c2c(c1[H])c1c3c(c4c5c([H])c([H])c([H])c([H])c5n5c4c1n2[C@]1([H])O[C@]5(C([H])([H])[H])[C@]([H])(OC([H])([H])[H])[C@@]([H])(N([H])C([H])([H])[H])C1([H])[H])C([H])([H])N([H])C3=O


 37 44  0  0  0  0  0  0  0  0999 V2000
  156.3905  136.6107  189.9947 C   0  0  0  0  0  0  0  0  0  0  0  0
  156.2299  137.4683  188.6967 C   0  0  0  0  0  0  0  0  0  0  0  0
  154.8945  137.2986  188.4268 C   0  0  0  0  0  0  0  0  0  0  0  0
  154.2602  137.8130  189.5537 O   0  0  0  0  0  0  0  0  0  0  0  0
  153.8775  136.6777  190.3356 C   0  0  0  0  0  0  0  0  0  0  0  0
  153.5779  137.3598  191.6930 C   0  0  0  0  0  0  0  0  0  0  0  0
  155.0770  135.8646  190.3642 C   0  0  0  0  0  0  0  0  0  0  0  0
  152.6370  136.2475  189.7250 N   0  0  0  0  0  0  0  0  0  0  0  0
  151.6145  135.6281  190.3673 C   0  0  0  0  0  0  0  0  0  0  0  0
  151.4930  135.1310  191.6333 C   0  0  0  0  0  0  0  0  0  0  0  0
  150.3142  134.5239  192.0468 C   0  0  0  0  0  0  0  0  0  0  0  0
  149.2156  134.3985  191.1907 C   0  0  0  0  0  0  0  0  0  0  0  0
  149.3289  134.8967  189.9098 C   0  0  0  0  0  0  0  0  0  0  0  0
  150.5138  135.4926  189.5348 C   0  0  0  0  0  0  0  0  0  0  0  0
  150.8529  136.0325  188.3475 C   0  0  0  0  0  0  0  0  0  0  0  0
  150.2230  136.2588  187.1142 C   0  0  0  0  0  0  0  0  0  0  0  0
  148.8528  135.8853  186.7269 C   0  0  0  0  0  0  0  0  0  0  0  0
  148.7153  136.3320  185.3642 N   0  0  0  0  0  0  0  0  0  0  0  0
  149.9385  136.9663  184.9357 C   0  0  0  0  0  0  0  0  0  0  0  0
  150.0162  137.4282  183.7866 O   0  0  0  0  0  0  0  0  0  0  0  0
  150.8461  136.8963  186.0564 C   0  0  0  0  0  0  0  0  0  0  0  0
  152.1540  137.3456  186.1751 C   0  0  0  0  0  0  0  0  0  0  0  0
  153.0805  137.9474  185.3700 C   0  0  0  0  0  0  0  0  0  0  0  0
  153.0445  138.4046  184.0939 C   0  0  0  0  0  0  0  0  0  0  0  0
  154.2132  138.9865  183.5696 C   0  0  0  0  0  0  0  0  0  0  0  0
  155.3529  139.0847  184.3362 C   0  0  0  0  0  0  0  0  0  0  0  0
  155.3773  138.6130  185.6419 C   0  0  0  0  0  0  0  0  0  0  0  0
  154.2282  138.0508  186.1298 C   0  0  0  0  0  0  0  0  0  0  0  0
  154.0369  137.5456  187.3432 N   0  0  0  0  0  0  0  0  0  0  0  0
  152.7490  137.1128  187.3875 C   0  0  0  0  0  0  0  0  0  0  0  0
  152.1142  136.4726  188.4659 C   0  0  0  0  0  0  0  0  0  0  0  0
  147.8349  136.1882  184.8204 H   0  0  0  0  0  0  0  0  0  0  0  0
  156.8300  134.5886  188.7817 C   0  0  0  0  0  0  0  0  0  0  0  0
  157.3612  135.5889  189.6500 N   0  0  0  0  0  0  0  0  0  0  0  0
  157.7242  135.1500  190.5492 H   0  0  0  0  0  0  0  0  0  0  0  0
  155.3369  135.5698  191.7352 O   0  0  0  0  0  0  0  0  0  0  0  0
  156.4780  136.1370  192.2074 C   0  0  0  0  0  0  0  0  0  0  0  0
 33 34  1  0  0  0
 34  1  1  0  0  0
  1  2  1  0  0  0
  2  3  1  0  0  0
  3  4  1  0  0  0
  4  5  1  0  0  0
  5  6  1  0  0  0
  5  7  1  0  0  0
  7 36  1  0  0  0
 36 37  1  0  0  0
  5  8  1  0  0  0
  8  9  1  0  0  0
  9 10  2  0  0  0
 10 11  1  0  0  0
 11 12  2  0  0  0
 12 13  1  0  0  0
 13 14  2  0  0  0
 14 15  1  0  0  0
 15 16  2  0  0  0
 16 17  1  0  0  0
 17 18  1  0  0  0
 18 19  1  0  0  0
 19 20  2  0  0  0
 19 21  1  0  0  0
 21 22  2  0  0  0
 22 23  1  0  0  0
 23 24  2  0  0  0
 24 25  1  0  0  0
 25 26  2  0  0  0
 26 27  1  0  0  0
 27 28  2  0  0  0
 28 29  1  0  0  0
 29 30  1  0  0  0
 30 31  2  0  0  0
  7  1  1  0  0  0
 31  8  1  0  0  0
 29  3  1  0  0  0
 14  9  1  0  0  0
 31 15  1  0  0  0
 21 16  1  0  0  0
 30 22  1  0  0  0
 28 23  1  0  0  0
 34 35  1  0  0  0
 18 32  1  0  0  0
M  END
> <minimizedAffinity>
-7.26384

> <CNNscore>
0.3411999345

> <CNNaffinity>
5.6708898544

> <CNN_VS>
1.9349071980

> <CNNaffinity_variance>
0.3619394898

$$$$
[H]c1c([H])c([H])c2c(c1[H])c1c3c(c4c5c([H])c([H])c([H])c([H])c5n5c4c1n2[C@]1([H])O[C@]5(C([H])([H])[H])[C@]([H])(OC([H])([H])[H])[C@@]([H])(N([H])C([H])([H])[H])C1([H])[H])C([H])([H])N([H])C3=O


 37 44  0  0  0  0  0  0  0  0999 V2000
  153.8780  133.8026  188.9969 C   0  0  0  0  0  0  0  0  0  0  0  0
  152.3675  134.1748  189.1585 C   0  0  0  0  0  0  0  0  0  0  0  0
  152.0238  134.4691  187.8623 C   0  0  0  0  0  0  0  0  0  0  0  0
  152.2671  133.2825  187.1769 O   0  0  0  0  0  0  0  0  0  0  0  0
  153.5175  133.4703  186.5079 C   0  0  0  0  0  0  0  0  0  0  0  0
  153.8652  132.0054  186.1463 C   0  0  0  0  0  0  0  0  0  0  0  0
  154.3764  134.0169  187.5395 C   0  0  0  0  0  0  0  0  0  0  0  0
  153.1547  134.1929  185.3066 N   0  0  0  0  0  0  0  0  0  0  0  0
  153.8058  134.1249  184.1179 C   0  0  0  0  0  0  0  0  0  0  0  0
  154.9761  133.5282  183.7453 C   0  0  0  0  0  0  0  0  0  0  0  0
  155.4329  133.6180  182.4368 C   0  0  0  0  0  0  0  0  0  0  0  0
  154.7191  134.3171  181.4582 C   0  0  0  0  0  0  0  0  0  0  0  0
  153.5364  134.9238  181.8249 C   0  0  0  0  0  0  0  0  0  0  0  0
  153.1144  134.8134  183.1324 C   0  0  0  0  0  0  0  0  0  0  0  0
  152.0123  135.3264  183.7140 C   0  0  0  0  0  0  0  0  0  0  0  0
  150.8966  136.0717  183.3029 C   0  0  0  0  0  0  0  0  0  0  0  0
  150.6135  136.5898  181.9545 C   0  0  0  0  0  0  0  0  0  0  0  0
  149.3596  137.2880  182.0786 N   0  0  0  0  0  0  0  0  0  0  0  0
  148.8828  137.1915  183.4371 C   0  0  0  0  0  0  0  0  0  0  0  0
  147.8058  137.7255  183.7451 O   0  0  0  0  0  0  0  0  0  0  0  0
  149.8713  136.4274  184.1607 C   0  0  0  0  0  0  0  0  0  0  0  0
  149.9084  136.0546  185.4972 C   0  0  0  0  0  0  0  0  0  0  0  0
  149.1414  136.2529  186.6112 C   0  0  0  0  0  0  0  0  0  0  0  0
  147.9592  136.8819  186.8247 C   0  0  0  0  0  0  0  0  0  0  0  0
  147.4447  136.8905  188.1340 C   0  0  0  0  0  0  0  0  0  0  0  0
  148.1274  136.2764  189.1602 C   0  0  0  0  0  0  0  0  0  0  0  0
  149.3371  135.6353  188.9291 C   0  0  0  0  0  0  0  0  0  0  0  0
  149.8176  135.6404  187.6470 C   0  0  0  0  0  0  0  0  0  0  0  0
  150.9439  135.0868  187.2121 N   0  0  0  0  0  0  0  0  0  0  0  0
  151.0074  135.3288  185.8759 C   0  0  0  0  0  0  0  0  0  0  0  0
  152.0458  134.9595  185.0034 C   0  0  0  0  0  0  0  0  0  0  0  0
  148.9130  137.7729  181.2680 H   0  0  0  0  0  0  0  0  0  0  0  0
  155.0354  134.2087  191.0581 C   0  0  0  0  0  0  0  0  0  0  0  0
  154.5896  134.7620  189.8205 N   0  0  0  0  0  0  0  0  0  0  0  0
  153.9539  135.5985  189.9914 H   0  0  0  0  0  0  0  0  0  0  0  0
  155.5532  133.2114  187.5592 O   0  0  0  0  0  0  0  0  0  0  0  0
  156.6705  133.8695  187.1527 C   0  0  0  0  0  0  0  0  0  0  0  0
 33 34  1  0  0  0
 34  1  1  0  0  0
  1  2  1  0  0  0
  2  3  1  0  0  0
  3  4  1  0  0  0
  4  5  1  0  0  0
  5  6  1  0  0  0
  5  7  1  0  0  0
  7 36  1  0  0  0
 36 37  1  0  0  0
  5  8  1  0  0  0
  8  9  1  0  0  0
  9 10  2  0  0  0
 10 11  1  0  0  0
 11 12  2  0  0  0
 12 13  1  0  0  0
 13 14  2  0  0  0
 14 15  1  0  0  0
 15 16  2  0  0  0
 16 17  1  0  0  0
 17 18  1  0  0  0
 18 19  1  0  0  0
 19 20  2  0  0  0
 19 21  1  0  0  0
 21 22  2  0  0  0
 22 23  1  0  0  0
 23 24  2  0  0  0
 24 25  1  0  0  0
 25 26  2  0  0  0
 26 27  1  0  0  0
 27 28  2  0  0  0
 28 29  1  0  0  0
 29 30  1  0  0  0
 30 31  2  0  0  0
  7  1  1  0  0  0
 31  8  1  0  0  0
 29  3  1  0  0  0
 14  9  1  0  0  0
 31 15  1  0  0  0
 21 16  1  0  0  0
 30 22  1  0  0  0
 28 23  1  0  0  0
 34 35  1  0  0  0
 18 32  1  0  0  0
M  END
> <minimizedAffinity>
-4.13127

> <CNNscore>
0.3389994800

> <CNNaffinity>
5.6890792847

> <CNN_VS>
1.9285949469

> <CNNaffinity_variance>
0.2435445338

$$$$
[H]c1c([H])c([H])c2c(c1[H])c1c3c(c4c5c([H])c([H])c([H])c([H])c5n5c4c1n2[C@]1([H])O[C@]5(C([H])([H])[H])[C@]([H])(OC([H])([H])[H])[C@@]([H])(N([H])C([H])([H])[H])C1([H])[H])C([H])([H])N([H])C3=O


 37 44  0  0  0  0  0  0  0  0999 V2000
  154.8515  136.0558  191.4457 C   0  0  0  0  0  0  0  0  0  0  0  0
  156.2165  135.4322  191.0052 C   0  0  0  0  0  0  0  0  0  0  0  0
  155.9904  135.2088  189.6695 C   0  0  0  0  0  0  0  0  0  0  0  0
  155.7319  136.4779  189.1600 O   0  0  0  0  0  0  0  0  0  0  0  0
  154.3105  136.5569  189.0184 C   0  0  0  0  0  0  0  0  0  0  0  0
  154.1293  138.0859  188.8548 C   0  0  0  0  0  0  0  0  0  0  0  0
  153.8144  136.0615  190.2870 C   0  0  0  0  0  0  0  0  0  0  0  0
  154.0583  135.9007  187.7525 N   0  0  0  0  0  0  0  0  0  0  0  0
  153.0348  136.1832  186.9073 C   0  0  0  0  0  0  0  0  0  0  0  0
  151.9417  136.9924  187.0281 C   0  0  0  0  0  0  0  0  0  0  0  0
  151.0209  137.0999  185.9939 C   0  0  0  0  0  0  0  0  0  0  0  0
  151.1753  136.3896  184.7991 C   0  0  0  0  0  0  0  0  0  0  0  0
  152.2758  135.5690  184.6679 C   0  0  0  0  0  0  0  0  0  0  0  0
  153.1682  135.4876  185.7151 C   0  0  0  0  0  0  0  0  0  0  0  0
  154.2929  134.7520  185.8155 C   0  0  0  0  0  0  0  0  0  0  0  0
  155.0163  133.8788  184.9888 C   0  0  0  0  0  0  0  0  0  0  0  0
  154.6743  133.4501  183.6227 C   0  0  0  0  0  0  0  0  0  0  0  0
  155.7319  132.5508  183.2380 N   0  0  0  0  0  0  0  0  0  0  0  0
  156.6908  132.4421  184.3108 C   0  0  0  0  0  0  0  0  0  0  0  0
  157.6865  131.7155  184.1680 O   0  0  0  0  0  0  0  0  0  0  0  0
  156.2033  133.2843  185.3775 C   0  0  0  0  0  0  0  0  0  0  0  0
  156.7377  133.5317  186.6344 C   0  0  0  0  0  0  0  0  0  0  0  0
  157.8146  133.1095  187.3629 C   0  0  0  0  0  0  0  0  0  0  0  0
  158.8532  132.2814  187.0898 C   0  0  0  0  0  0  0  0  0  0  0  0
  159.8085  132.0680  188.1003 C   0  0  0  0  0  0  0  0  0  0  0  0
  159.6845  132.6853  189.3250 C   0  0  0  0  0  0  0  0  0  0  0  0
  158.6166  133.5313  189.5925 C   0  0  0  0  0  0  0  0  0  0  0  0
  157.6998  133.7233  188.5938 C   0  0  0  0  0  0  0  0  0  0  0  0
  156.6154  134.4890  188.6391 N   0  0  0  0  0  0  0  0  0  0  0  0
  156.0139  134.3862  187.4243 C   0  0  0  0  0  0  0  0  0  0  0  0
  154.8119  134.9975  187.0274 C   0  0  0  0  0  0  0  0  0  0  0  0
  155.7457  132.0783  182.3063 H   0  0  0  0  0  0  0  0  0  0  0  0
  153.9189  133.8967  191.9165 C   0  0  0  0  0  0  0  0  0  0  0  0
  154.3355  135.1507  192.4555 N   0  0  0  0  0  0  0  0  0  0  0  0
  153.5283  135.6291  192.9581 H   0  0  0  0  0  0  0  0  0  0  0  0
  152.9004  137.0404  190.7775 O   0  0  0  0  0  0  0  0  0  0  0  0
  151.6391  136.5670  190.9554 C   0  0  0  0  0  0  0  0  0  0  0  0
 33 34  1  0  0  0
 34  1  1  0  0  0
  1  2  1  0  0  0
  2  3  1  0  0  0
  3  4  1  0  0  0
  4  5  1  0  0  0
  5  6  1  0  0  0
  5  7  1  0  0  0
  7 36  1  0  0  0
 36 37  1  0  0  0
  5  8  1  0  0  0
  8  9  1  0  0  0
  9 10  2  0  0  0
 10 11  1  0  0  0
 11 12  2  0  0  0
 12 13  1  0  0  0
 13 14  2  0  0  0
 14 15  1  0  0  0
 15 16  2  0  0  0
 16 17  1  0  0  0
 17 18  1  0  0  0
 18 19  1  0  0  0
 19 20  2  0  0  0
 19 21  1  0  0  0
 21 22  2  0  0  0
 22 23  1  0  0  0
 23 24  2  0  0  0
 24 25  1  0  0  0
 25 26  2  0  0  0
 26 27  1  0  0  0
 27 28  2  0  0  0
 28 29  1  0  0  0
 29 30  1  0  0  0
 30 31  2  0  0  0
  7  1  1  0  0  0
 31  8  1  0  0  0
 29  3  1  0  0  0
 14  9  1  0  0  0
 31 15  1  0  0  0
 21 16  1  0  0  0
 30 22  1  0  0  0
 28 23  1  0  0  0
 34 35  1  0  0  0
 18 32  1  0  0  0
M  END
> <minimizedAffinity>
-6.44327

> <CNNscore>
0.3152838945

> <CNNaffinity>
5.5001296997

> <CNN_VS>
1.7341023684

> <CNNaffinity_variance>
0.2066027373

$$$$
[H]c1c([H])c([H])c2c(c1[H])c1c3c(c4c5c([H])c([H])c([H])c([H])c5n5c4c1n2[C@]1([H])O[C@]5(C([H])([H])[H])[C@]([H])(OC([H])([H])[H])[C@@]([H])(N([H])C([H])([H])[H])C1([H])[H])C([H])([H])N([H])C3=O


 37 44  0  0  0  0  0  0  0  0999 V2000
  154.1624  136.1774  192.1909 C   0  0  0  0  0  0  0  0  0  0  0  0
  154.2517  136.9913  190.8584 C   0  0  0  0  0  0  0  0  0  0  0  0
  153.0590  136.6624  190.2630 C   0  0  0  0  0  0  0  0  0  0  0  0
  152.1015  137.1152  191.1657 O   0  0  0  0  0  0  0  0  0  0  0  0
  151.6555  135.9544  191.8730 C   0  0  0  0  0  0  0  0  0  0  0  0
  150.9408  136.6164  193.0765 C   0  0  0  0  0  0  0  0  0  0  0  0
  152.8879  135.2880  192.2442 C   0  0  0  0  0  0  0  0  0  0  0  0
  150.6709  135.3730  190.9845 N   0  0  0  0  0  0  0  0  0  0  0  0
  149.5909  134.6474  191.3702 C   0  0  0  0  0  0  0  0  0  0  0  0
  149.1998  134.1579  192.5835 C   0  0  0  0  0  0  0  0  0  0  0  0
  148.0278  133.4230  192.7076 C   0  0  0  0  0  0  0  0  0  0  0  0
  147.2098  133.1572  191.6049 C   0  0  0  0  0  0  0  0  0  0  0  0
  147.5967  133.6466  190.3751 C   0  0  0  0  0  0  0  0  0  0  0  0
  148.7658  134.3717  190.2902 C   0  0  0  0  0  0  0  0  0  0  0  0
  149.3405  134.9303  189.2068 C   0  0  0  0  0  0  0  0  0  0  0  0
  149.0317  135.0632  187.8444 C   0  0  0  0  0  0  0  0  0  0  0  0
  147.8585  134.5262  187.1357 C   0  0  0  0  0  0  0  0  0  0  0  0
  148.0316  134.9337  185.7650 N   0  0  0  0  0  0  0  0  0  0  0  0
  149.2471  135.7007  185.6365 C   0  0  0  0  0  0  0  0  0  0  0  0
  149.5696  136.1518  184.5264 O   0  0  0  0  0  0  0  0  0  0  0  0
  149.8345  135.7539  186.9544 C   0  0  0  0  0  0  0  0  0  0  0  0
  151.0094  136.3551  187.3843 C   0  0  0  0  0  0  0  0  0  0  0  0
  152.0415  137.0495  186.8177 C   0  0  0  0  0  0  0  0  0  0  0  0
  152.2885  137.4807  185.5560 C   0  0  0  0  0  0  0  0  0  0  0  0
  153.4822  138.1878  185.3235 C   0  0  0  0  0  0  0  0  0  0  0  0
  154.3659  138.4301  186.3515 C   0  0  0  0  0  0  0  0  0  0  0  0
  154.1018  137.9836  187.6393 C   0  0  0  0  0  0  0  0  0  0  0  0
  152.9341  137.2977  187.8409 C   0  0  0  0  0  0  0  0  0  0  0  0
  152.4906  136.7914  188.9860 N   0  0  0  0  0  0  0  0  0  0  0  0
  151.2908  136.2112  188.7178 C   0  0  0  0  0  0  0  0  0  0  0  0
  150.4717  135.5168  189.6248 C   0  0  0  0  0  0  0  0  0  0  0  0
  147.3439  134.6799  185.0206 H   0  0  0  0  0  0  0  0  0  0  0  0
  156.4885  135.8945  191.6786 C   0  0  0  0  0  0  0  0  0  0  0  0
  155.2951  135.2715  192.1523 N   0  0  0  0  0  0  0  0  0  0  0  0
  155.0405  134.4372  191.5423 H   0  0  0  0  0  0  0  0  0  0  0  0
  152.8134  135.0457  193.6478 O   0  0  0  0  0  0  0  0  0  0  0  0
  152.6208  133.7385  193.9653 C   0  0  0  0  0  0  0  0  0  0  0  0
 33 34  1  0  0  0
 34  1  1  0  0  0
  1  2  1  0  0  0
  2  3  1  0  0  0
  3  4  1  0  0  0
  4  5  1  0  0  0
  5  6  1  0  0  0
  5  7  1  0  0  0
  7 36  1  0  0  0
 36 37  1  0  0  0
  5  8  1  0  0  0
  8  9  1  0  0  0
  9 10  2  0  0  0
 10 11  1  0  0  0
 11 12  2  0  0  0
 12 13  1  0  0  0
 13 14  2  0  0  0
 14 15  1  0  0  0
 15 16  2  0  0  0
 16 17  1  0  0  0
 17 18  1  0  0  0
 18 19  1  0  0  0
 19 20  2  0  0  0
 19 21  1  0  0  0
 21 22  2  0  0  0
 22 23  1  0  0  0
 23 24  2  0  0  0
 24 25  1  0  0  0
 25 26  2  0  0  0
 26 27  1  0  0  0
 27 28  2  0  0  0
 28 29  1  0  0  0
 29 30  1  0  0  0
 30 31  2  0  0  0
  7  1  1  0  0  0
 31  8  1  0  0  0
 29  3  1  0  0  0
 14  9  1  0  0  0
 31 15  1  0  0  0
 21 16  1  0  0  0
 30 22  1  0  0  0
 28 23  1  0  0  0
 34 35  1  0  0  0
 18 32  1  0  0  0
M  END
> <minimizedAffinity>
-6.65213

> <CNNscore>
0.3115539253

> <CNNaffinity>
5.5375456810

> <CNN_VS>
1.7252440453

> <CNNaffinity_variance>
0.2093853951

$$$$
[H]c1c([H])c([H])c2c(c1[H])c1c3c(c4c5c([H])c([H])c([H])c([H])c5n5c4c1n2[C@]1([H])O[C@]5(C([H])([H])[H])[C@]([H])(OC([H])([H])[H])[C@@]([H])(N([H])C([H])([H])[H])C1([H])[H])C([H])([H])N([H])C3=O


 37 44  0  0  0  0  0  0  0  0999 V2000
  153.0262  136.2961  191.7795 C   0  0  0  0  0  0  0  0  0  0  0  0
  151.7494  135.4426  191.4837 C   0  0  0  0  0  0  0  0  0  0  0  0
  151.5892  135.6579  190.1372 C   0  0  0  0  0  0  0  0  0  0  0  0
  152.7665  135.1675  189.5803 O   0  0  0  0  0  0  0  0  0  0  0  0
  153.5722  136.3165  189.3022 C   0  0  0  0  0  0  0  0  0  0  0  0
  154.9525  135.6472  189.0918 C   0  0  0  0  0  0  0  0  0  0  0  0
  153.4989  137.0877  190.5273 C   0  0  0  0  0  0  0  0  0  0  0  0
  153.0635  136.7884  188.0313 N   0  0  0  0  0  0  0  0  0  0  0  0
  153.7848  137.4438  187.0869 C   0  0  0  0  0  0  0  0  0  0  0  0
  155.0543  137.9467  187.0868 C   0  0  0  0  0  0  0  0  0  0  0  0
  155.5604  138.5948  185.9674 C   0  0  0  0  0  0  0  0  0  0  0  0
  154.7967  138.7568  184.8072 C   0  0  0  0  0  0  0  0  0  0  0  0
  153.5130  138.2530  184.7979 C   0  0  0  0  0  0  0  0  0  0  0  0
  153.0448  137.6160  185.9268 C   0  0  0  0  0  0  0  0  0  0  0  0
  151.8360  137.0629  186.1486 C   0  0  0  0  0  0  0  0  0  0  0  0
  150.6594  136.8567  185.4122 C   0  0  0  0  0  0  0  0  0  0  0  0
  150.3841  137.2767  184.0285 C   0  0  0  0  0  0  0  0  0  0  0  0
  149.0393  136.8331  183.7644 N   0  0  0  0  0  0  0  0  0  0  0  0
  148.5146  136.1562  184.9258 C   0  0  0  0  0  0  0  0  0  0  0  0
  147.3650  135.6902  184.8930 O   0  0  0  0  0  0  0  0  0  0  0  0
  149.5569  136.1965  185.9242 C   0  0  0  0  0  0  0  0  0  0  0  0
  149.5699  135.7023  187.2212 C   0  0  0  0  0  0  0  0  0  0  0  0
  148.6942  135.0678  188.0573 C   0  0  0  0  0  0  0  0  0  0  0  0
  147.4273  134.6102  187.9011 C   0  0  0  0  0  0  0  0  0  0  0  0
  146.8116  133.9875  189.0020 C   0  0  0  0  0  0  0  0  0  0  0  0
  147.4826  133.8510  190.1968 C   0  0  0  0  0  0  0  0  0  0  0  0
  148.7798  134.3235  190.3444 C   0  0  0  0  0  0  0  0  0  0  0  0
  149.3578  134.9259  189.2593 C   0  0  0  0  0  0  0  0  0  0  0  0
  150.5807  135.4391  189.1856 N   0  0  0  0  0  0  0  0  0  0  0  0
  150.7284  135.9163  187.9213 C   0  0  0  0  0  0  0  0  0  0  0  0
  151.8525  136.5797  187.3995 C   0  0  0  0  0  0  0  0  0  0  0  0
  148.5688  137.0064  182.8478 H   0  0  0  0  0  0  0  0  0  0  0  0
  151.7196  136.7450  193.7402 C   0  0  0  0  0  0  0  0  0  0  0  0
  152.5987  137.2832  192.7532 N   0  0  0  0  0  0  0  0  0  0  0  0
  152.1332  138.0889  192.2363 H   0  0  0  0  0  0  0  0  0  0  0  0
  154.8428  137.3753  190.9088 O   0  0  0  0  0  0  0  0  0  0  0  0
  155.1707  138.6894  190.7985 C   0  0  0  0  0  0  0  0  0  0  0  0
 33 34  1  0  0  0
 34  1  1  0  0  0
  1  2  1  0  0  0
  2  3  1  0  0  0
  3  4  1  0  0  0
  4  5  1  0  0  0
  5  6  1  0  0  0
  5  7  1  0  0  0
  7 36  1  0  0  0
 36 37  1  0  0  0
  5  8  1  0  0  0
  8  9  1  0  0  0
  9 10  2  0  0  0
 10 11  1  0  0  0
 11 12  2  0  0  0
 12 13  1  0  0  0
 13 14  2  0  0  0
 14 15  1  0  0  0
 15 16  2  0  0  0
 16 17  1  0  0  0
 17 18  1  0  0  0
 18 19  1  0  0  0
 19 20  2  0  0  0
 19 21  1  0  0  0
 21 22  2  0  0  0
 22 23  1  0  0  0
 23 24  2  0  0  0
 24 25  1  0  0  0
 25 26  2  0  0  0
 26 27  1  0  0  0
 27 28  2  0  0  0
 28 29  1  0  0  0
 29 30  1  0  0  0
 30 31  2  0  0  0
  7  1  1  0  0  0
 31  8  1  0  0  0
 29  3  1  0  0  0
 14  9  1  0  0  0
 31 15  1  0  0  0
 21 16  1  0  0  0
 30 22  1  0  0  0
 28 23  1  0  0  0
 34 35  1  0  0  0
 18 32  1  0  0  0
M  END
> <minimizedAffinity>
-6.59536

> <CNNscore>
0.3046957552

> <CNNaffinity>
5.6380624771

> <CNN_VS>
1.7178937197

> <CNNaffinity_variance>
0.2099213153

$$$$
[H]c1c([H])c(N([H])C(=O)N([H])c2c([H])c([H])c(Cl)c(C(F)(F)F)c2[H])c([H])c(OC([H])([H])[H])c1Cl


 26 27  0  0  0  0  0  0  0  0999 V2000
  153.4456  139.6984  181.5415 N   0  0  0  0  0  0  0  0  0  0  0  0
  153.7898  141.0664  182.0030 C   0  0  0  0  0  0  0  0  0  0  0  0
  152.8119  141.8385  181.9949 O   0  0  0  0  0  0  0  0  0  0  0  0
  155.0557  141.3159  182.3638 N   0  0  0  0  0  0  0  0  0  0  0  0
  154.1928  138.9812  181.5355 H   0  0  0  0  0  0  0  0  0  0  0  0
  154.6920  142.5815  182.7383 H   0  0  0  0  0  0  0  0  0  0  0  0
  149.9129  138.6209  181.5289 C   0  0  0  0  0  0  0  0  0  0  0  0
  151.1791  138.9001  182.0070 C   0  0  0  0  0  0  0  0  0  0  0  0
  152.1288  139.4579  181.1327 C   0  0  0  0  0  0  0  0  0  0  0  0
  151.8212  139.7304  179.8160 C   0  0  0  0  0  0  0  0  0  0  0  0
  150.5614  139.4518  179.3476 C   0  0  0  0  0  0  0  0  0  0  0  0
  149.6290  138.9018  180.2108 C   0  0  0  0  0  0  0  0  0  0  0  0
  148.0060  138.5342  179.6570 Cl  0  0  0  0  0  0  0  0  0  0  0  0
  149.3969  137.3680  183.5215 C   0  0  0  0  0  0  0  0  0  0  0  0
  148.9765  138.0731  182.3865 O   0  0  0  0  0  0  0  0  0  0  0  0
  156.3452  141.5708  182.7315 C   0  0  0  0  0  0  0  0  0  0  0  0
  157.0947  140.6672  183.4856 C   0  0  0  0  0  0  0  0  0  0  0  0
  158.3823  140.9037  183.8994 C   0  0  0  0  0  0  0  0  0  0  0  0
  158.9253  142.1320  183.5155 C   0  0  0  0  0  0  0  0  0  0  0  0
  160.5561  142.5181  184.0164 Cl  0  0  0  0  0  0  0  0  0  0  0  0
  158.2480  143.0617  182.7774 C   0  0  0  0  0  0  0  0  0  0  0  0
  156.9653  142.7715  182.3927 C   0  0  0  0  0  0  0  0  0  0  0  0
  158.9035  144.3727  182.3963 C   0  0  0  0  0  0  0  0  0  0  0  0
  157.8477  145.2804  182.3094 F   0  0  0  0  0  0  0  0  0  0  0  0
  159.7018  144.7836  183.4445 F   0  0  0  0  0  0  0  0  0  0  0  0
  159.5712  144.1721  181.2327 F   0  0  0  0  0  0  0  0  0  0  0  0
 14 15  1  0  0  0
 15  7  1  0  0  0
  7  8  2  0  0  0
  8  9  1  0  0  0
  9  1  1  0  0  0
  1  2  1  0  0  0
  2  3  2  0  0  0
  2  4  1  0  0  0
  4 16  1  0  0  0
 16 17  2  0  0  0
 17 18  1  0  0  0
 18 19  2  0  0  0
 19 20  1  0  0  0
 19 21  1  0  0  0
 21 22  2  0  0  0
 21 23  1  0  0  0
 23 24  1  0  0  0
 23 25  1  0  0  0
 23 26  1  0  0  0
  9 10  2  0  0  0
 10 11  1  0  0  0
 11 12  2  0  0  0
 12 13  1  0  0  0
 12  7  1  0  0  0
 22 16  1  0  0  0
  1  5  1  0  0  0
  4  6  1  0  0  0
M  END
> <minimizedAffinity>
-7.67432

> <CNNscore>
0.6454560161

> <CNNaffinity>
6.0218439102

> <CNN_VS>
3.8868353367

> <CNNaffinity_variance>
0.0269589480

$$$$
[H]c1c([H])c(N([H])C(=O)N([H])c2c([H])c([H])c(Cl)c(C(F)(F)F)c2[H])c([H])c(OC([H])([H])[H])c1Cl


 26 27  0  0  0  0  0  0  0  0999 V2000
  152.9261  139.9124  180.5056 N   0  0  0  0  0  0  0  0  0  0  0  0
  153.2407  140.2452  181.9175 C   0  0  0  0  0  0  0  0  0  0  0  0
  152.3491  139.8826  182.7087 O   0  0  0  0  0  0  0  0  0  0  0  0
  154.3959  140.8704  182.1810 N   0  0  0  0  0  0  0  0  0  0  0  0
  153.6216  140.1570  179.7783 H   0  0  0  0  0  0  0  0  0  0  0  0
  154.1283  140.7847  183.5210 H   0  0  0  0  0  0  0  0  0  0  0  0
  150.1352  137.4934  180.5249 C   0  0  0  0  0  0  0  0  0  0  0  0
  151.3261  138.0981  180.8794 C   0  0  0  0  0  0  0  0  0  0  0  0
  151.7006  139.2918  180.2373 C   0  0  0  0  0  0  0  0  0  0  0  0
  150.9058  139.8664  179.2674 C   0  0  0  0  0  0  0  0  0  0  0  0
  149.7236  139.2614  178.9206 C   0  0  0  0  0  0  0  0  0  0  0  0
  149.3583  138.0857  179.5541 C   0  0  0  0  0  0  0  0  0  0  0  0
  147.8544  137.2808  179.1464 Cl  0  0  0  0  0  0  0  0  0  0  0  0
  150.7427  135.4818  181.7043 C   0  0  0  0  0  0  0  0  0  0  0  0
  149.7638  136.3198  181.1551 O   0  0  0  0  0  0  0  0  0  0  0  0
  155.5727  141.5073  182.4503 C   0  0  0  0  0  0  0  0  0  0  0  0
  155.7068  142.8926  182.3511 C   0  0  0  0  0  0  0  0  0  0  0  0
  156.8820  143.5632  182.5839 C   0  0  0  0  0  0  0  0  0  0  0  0
  157.9732  142.7665  182.9384 C   0  0  0  0  0  0  0  0  0  0  0  0
  159.5125  143.5419  183.2363 Cl  0  0  0  0  0  0  0  0  0  0  0  0
  157.9116  141.4061  183.0543 C   0  0  0  0  0  0  0  0  0  0  0  0
  156.7121  140.7906  182.8096 C   0  0  0  0  0  0  0  0  0  0  0  0
  159.1375  140.6075  183.4455 C   0  0  0  0  0  0  0  0  0  0  0  0
  159.3620  140.9412  184.7813 F   0  0  0  0  0  0  0  0  0  0  0  0
  158.8137  139.2662  183.4150 F   0  0  0  0  0  0  0  0  0  0  0  0
  160.1395  140.9582  182.6011 F   0  0  0  0  0  0  0  0  0  0  0  0
 14 15  1  0  0  0
 15  7  1  0  0  0
  7  8  2  0  0  0
  8  9  1  0  0  0
  9  1  1  0  0  0
  1  2  1  0  0  0
  2  3  2  0  0  0
  2  4  1  0  0  0
  4 16  1  0  0  0
 16 17  2  0  0  0
 17 18  1  0  0  0
 18 19  2  0  0  0
 19 20  1  0  0  0
 19 21  1  0  0  0
 21 22  2  0  0  0
 21 23  1  0  0  0
 23 24  1  0  0  0
 23 25  1  0  0  0
 23 26  1  0  0  0
  9 10  2  0  0  0
 10 11  1  0  0  0
 11 12  2  0  0  0
 12 13  1  0  0  0
 12  7  1  0  0  0
 22 16  1  0  0  0
  1  5  1  0  0  0
  4  6  1  0  0  0
M  END
> <minimizedAffinity>
-7.46937

> <CNNscore>
0.6233549118

> <CNNaffinity>
5.8464617729

> <CNN_VS>
3.6444206238

> <CNNaffinity_variance>
0.0438039266

$$$$
[H]c1c([H])c(N([H])C(=O)N([H])c2c([H])c([H])c(Cl)c(C(F)(F)F)c2[H])c([H])c(OC([H])([H])[H])c1Cl


 26 27  0  0  0  0  0  0  0  0999 V2000
  156.4848  141.6404  182.1177 N   0  0  0  0  0  0  0  0  0  0  0  0
  155.2828  141.6210  182.9883 C   0  0  0  0  0  0  0  0  0  0  0  0
  155.3475  142.4475  183.9184 O   0  0  0  0  0  0  0  0  0  0  0  0
  154.3003  140.7583  182.6962 N   0  0  0  0  0  0  0  0  0  0  0  0
  156.5102  141.0006  181.3037 H   0  0  0  0  0  0  0  0  0  0  0  0
  153.5466  141.2842  183.7111 H   0  0  0  0  0  0  0  0  0  0  0  0
  159.5159  143.0679  183.6720 C   0  0  0  0  0  0  0  0  0  0  0  0
  158.5569  142.1363  183.3226 C   0  0  0  0  0  0  0  0  0  0  0  0
  157.5209  142.5199  182.4525 C   0  0  0  0  0  0  0  0  0  0  0  0
  157.4457  143.8000  181.9443 C   0  0  0  0  0  0  0  0  0  0  0  0
  158.4020  144.7203  182.2943 C   0  0  0  0  0  0  0  0  0  0  0  0
  159.4201  144.3396  183.1519 C   0  0  0  0  0  0  0  0  0  0  0  0
  160.6660  145.4809  183.6222 Cl  0  0  0  0  0  0  0  0  0  0  0  0
  160.2936  142.5930  185.9027 C   0  0  0  0  0  0  0  0  0  0  0  0
  160.5364  142.6936  184.5268 O   0  0  0  0  0  0  0  0  0  0  0  0
  153.2988  139.8797  182.3994 C   0  0  0  0  0  0  0  0  0  0  0  0
  153.1927  138.6363  183.0236 C   0  0  0  0  0  0  0  0  0  0  0  0
  152.2178  137.7158  182.7280 C   0  0  0  0  0  0  0  0  0  0  0  0
  151.3057  138.0963  181.7409 C   0  0  0  0  0  0  0  0  0  0  0  0
  150.0415  136.9734  181.2935 Cl  0  0  0  0  0  0  0  0  0  0  0  0
  151.3510  139.2975  181.0906 C   0  0  0  0  0  0  0  0  0  0  0  0
  152.3466  140.1769  181.4267 C   0  0  0  0  0  0  0  0  0  0  0  0
  150.3250  139.6421  180.0313 C   0  0  0  0  0  0  0  0  0  0  0  0
  150.8647  140.7426  179.3652 F   0  0  0  0  0  0  0  0  0  0  0  0
  150.2725  138.6067  179.1202 F   0  0  0  0  0  0  0  0  0  0  0  0
  149.1509  139.8870  180.6648 F   0  0  0  0  0  0  0  0  0  0  0  0
 14 15  1  0  0  0
 15  7  1  0  0  0
  7  8  2  0  0  0
  8  9  1  0  0  0
  9  1  1  0  0  0
  1  2  1  0  0  0
  2  3  2  0  0  0
  2  4  1  0  0  0
  4 16  1  0  0  0
 16 17  2  0  0  0
 17 18  1  0  0  0
 18 19  2  0  0  0
 19 20  1  0  0  0
 19 21  1  0  0  0
 21 22  2  0  0  0
 21 23  1  0  0  0
 23 24  1  0  0  0
 23 25  1  0  0  0
 23 26  1  0  0  0
  9 10  2  0  0  0
 10 11  1  0  0  0
 11 12  2  0  0  0
 12 13  1  0  0  0
 12  7  1  0  0  0
 22 16  1  0  0  0
  1  5  1  0  0  0
  4  6  1  0  0  0
M  END
> <minimizedAffinity>
-8.02239

> <CNNscore>
0.5146252513

> <CNNaffinity>
6.0682063103

> <CNN_VS>
3.1228520870

> <CNNaffinity_variance>
0.0329487324

$$$$
[H]c1c([H])c(N([H])C(=O)N([H])c2c([H])c([H])c(Cl)c(C(F)(F)F)c2[H])c([H])c(OC([H])([H])[H])c1Cl


 26 27  0  0  0  0  0  0  0  0999 V2000
  153.9056  138.2580  186.2792 N   0  0  0  0  0  0  0  0  0  0  0  0
  152.9640  137.2230  185.7841 C   0  0  0  0  0  0  0  0  0  0  0  0
  152.8629  136.2525  186.5589 O   0  0  0  0  0  0  0  0  0  0  0  0
  152.3497  137.4311  184.6118 N   0  0  0  0  0  0  0  0  0  0  0  0
  154.0369  139.1131  185.7099 H   0  0  0  0  0  0  0  0  0  0  0  0
  151.6325  136.2788  184.7913 H   0  0  0  0  0  0  0  0  0  0  0  0
  156.2633  136.9086  188.7816 C   0  0  0  0  0  0  0  0  0  0  0  0
  155.6898  137.1670  187.5511 C   0  0  0  0  0  0  0  0  0  0  0  0
  154.5694  138.0143  187.4872 C   0  0  0  0  0  0  0  0  0  0  0  0
  154.0368  138.5890  188.6224 C   0  0  0  0  0  0  0  0  0  0  0  0
  154.6118  138.3293  189.8414 C   0  0  0  0  0  0  0  0  0  0  0  0
  155.7142  137.4937  189.9009 C   0  0  0  0  0  0  0  0  0  0  0  0
  156.4840  137.1379  191.4361 Cl  0  0  0  0  0  0  0  0  0  0  0  0
  157.1915  134.6865  188.8685 C   0  0  0  0  0  0  0  0  0  0  0  0
  157.3657  136.0762  188.8477 O   0  0  0  0  0  0  0  0  0  0  0  0
  151.7234  137.6424  183.4176 C   0  0  0  0  0  0  0  0  0  0  0  0
  150.7215  136.7943  182.9445 C   0  0  0  0  0  0  0  0  0  0  0  0
  150.0923  136.9583  181.7352 C   0  0  0  0  0  0  0  0  0  0  0  0
  150.5155  138.0519  180.9763 C   0  0  0  0  0  0  0  0  0  0  0  0
  149.7754  138.3224  179.4148 Cl  0  0  0  0  0  0  0  0  0  0  0  0
  151.4898  138.9216  181.3794 C   0  0  0  0  0  0  0  0  0  0  0  0
  152.0833  138.7082  182.5958 C   0  0  0  0  0  0  0  0  0  0  0  0
  151.8954  140.0880  180.5027 C   0  0  0  0  0  0  0  0  0  0  0  0
  152.4392  139.4970  179.3620 F   0  0  0  0  0  0  0  0  0  0  0  0
  150.7539  140.7541  180.1051 F   0  0  0  0  0  0  0  0  0  0  0  0
  152.7658  140.8487  181.2125 F   0  0  0  0  0  0  0  0  0  0  0  0
 14 15  1  0  0  0
 15  7  1  0  0  0
  7  8  2  0  0  0
  8  9  1  0  0  0
  9  1  1  0  0  0
  1  2  1  0  0  0
  2  3  2  0  0  0
  2  4  1  0  0  0
  4 16  1  0  0  0
 16 17  2  0  0  0
 17 18  1  0  0  0
 18 19  2  0  0  0
 19 20  1  0  0  0
 19 21  1  0  0  0
 21 22  2  0  0  0
 21 23  1  0  0  0
 23 24  1  0  0  0
 23 25  1  0  0  0
 23 26  1  0  0  0
  9 10  2  0  0  0
 10 11  1  0  0  0
 11 12  2  0  0  0
 12 13  1  0  0  0
 12  7  1  0  0  0
 22 16  1  0  0  0
  1  5  1  0  0  0
  4  6  1  0  0  0
M  END
> <minimizedAffinity>
-6.61714

> <CNNscore>
0.4743318856

> <CNNaffinity>
5.1320471764

> <CNN_VS>
2.4342935085

> <CNNaffinity_variance>
0.0903773755

$$$$
[H]c1c([H])c(N([H])C(=O)N([H])c2c([H])c([H])c(Cl)c(C(F)(F)F)c2[H])c([H])c(OC([H])([H])[H])c1Cl


 26 27  0  0  0  0  0  0  0  0999 V2000
  156.7339  139.7796  185.0297 N   0  0  0  0  0  0  0  0  0  0  0  0
  155.4594  139.0189  185.0173 C   0  0  0  0  0  0  0  0  0  0  0  0
  154.9822  138.8958  183.8730 O   0  0  0  0  0  0  0  0  0  0  0  0
  154.9787  138.5651  186.1826 N   0  0  0  0  0  0  0  0  0  0  0  0
  157.2156  139.9132  185.9367 H   0  0  0  0  0  0  0  0  0  0  0  0
  153.9633  137.9383  185.5114 H   0  0  0  0  0  0  0  0  0  0  0  0
  157.2097  141.9212  182.0584 C   0  0  0  0  0  0  0  0  0  0  0  0
  156.7584  141.5092  183.2979 C   0  0  0  0  0  0  0  0  0  0  0  0
  157.2087  140.2802  183.8119 C   0  0  0  0  0  0  0  0  0  0  0  0
  158.0875  139.4846  183.1067 C   0  0  0  0  0  0  0  0  0  0  0  0
  158.5329  139.9001  181.8767 C   0  0  0  0  0  0  0  0  0  0  0  0
  158.0868  141.1101  181.3730 C   0  0  0  0  0  0  0  0  0  0  0  0
  158.6333  141.6828  179.8080 Cl  0  0  0  0  0  0  0  0  0  0  0  0
  157.0861  144.3228  182.2124 C   0  0  0  0  0  0  0  0  0  0  0  0
  156.7692  143.1296  181.5505 O   0  0  0  0  0  0  0  0  0  0  0  0
  154.4883  138.1023  187.3693 C   0  0  0  0  0  0  0  0  0  0  0  0
  153.2625  137.4419  187.4592 C   0  0  0  0  0  0  0  0  0  0  0  0
  152.7243  136.9910  188.6391 C   0  0  0  0  0  0  0  0  0  0  0  0
  153.4883  137.2312  189.7834 C   0  0  0  0  0  0  0  0  0  0  0  0
  152.8659  136.7027  191.3302 Cl  0  0  0  0  0  0  0  0  0  0  0  0
  154.6960  137.8709  189.7670 C   0  0  0  0  0  0  0  0  0  0  0  0
  155.1837  138.2994  188.5604 C   0  0  0  0  0  0  0  0  0  0  0  0
  155.4699  138.0941  191.0496 C   0  0  0  0  0  0  0  0  0  0  0  0
  156.7245  138.5366  190.6297 F   0  0  0  0  0  0  0  0  0  0  0  0
  154.8848  139.1380  191.7373 F   0  0  0  0  0  0  0  0  0  0  0  0
  155.4845  136.9191  191.7271 F   0  0  0  0  0  0  0  0  0  0  0  0
 14 15  1  0  0  0
 15  7  1  0  0  0
  7  8  2  0  0  0
  8  9  1  0  0  0
  9  1  1  0  0  0
  1  2  1  0  0  0
  2  3  2  0  0  0
  2  4  1  0  0  0
  4 16  1  0  0  0
 16 17  2  0  0  0
 17 18  1  0  0  0
 18 19  2  0  0  0
 19 20  1  0  0  0
 19 21  1  0  0  0
 21 22  2  0  0  0
 21 23  1  0  0  0
 23 24  1  0  0  0
 23 25  1  0  0  0
 23 26  1  0  0  0
  9 10  2  0  0  0
 10 11  1  0  0  0
 11 12  2  0  0  0
 12 13  1  0  0  0
 12  7  1  0  0  0
 22 16  1  0  0  0
  1  5  1  0  0  0
  4  6  1  0  0  0
M  END
> <minimizedAffinity>
-8.02841

> <CNNscore>
0.4740327001

> <CNNaffinity>
5.6802968979

> <CNN_VS>
2.6926465034

> <CNNaffinity_variance>
0.0567330234

$$$$
[H]c1c([H])c(N([H])C(=O)N([H])c2c([H])c([H])c(Cl)c(C(F)(F)F)c2[H])c([H])c(OC([H])([H])[H])c1Cl


 26 27  0  0  0  0  0  0  0  0999 V2000
  154.6748  138.3823  185.3630 N   0  0  0  0  0  0  0  0  0  0  0  0
  153.8286  138.2937  186.5792 C   0  0  0  0  0  0  0  0  0  0  0  0
  152.6454  138.6221  186.3685 O   0  0  0  0  0  0  0  0  0  0  0  0
  154.3984  137.8882  187.7219 N   0  0  0  0  0  0  0  0  0  0  0  0
  155.6704  138.1068  185.4381 H   0  0  0  0  0  0  0  0  0  0  0  0
  153.1759  137.9275  188.3370 H   0  0  0  0  0  0  0  0  0  0  0  0
  153.5365  140.5934  182.6323 C   0  0  0  0  0  0  0  0  0  0  0  0
  154.2037  140.1796  183.7696 C   0  0  0  0  0  0  0  0  0  0  0  0
  154.0783  138.8414  184.1830 C   0  0  0  0  0  0  0  0  0  0  0  0
  153.3074  137.9404  183.4783 C   0  0  0  0  0  0  0  0  0  0  0  0
  152.6482  138.3574  182.3489 C   0  0  0  0  0  0  0  0  0  0  0  0
  152.7731  139.6759  181.9452 C   0  0  0  0  0  0  0  0  0  0  0  0
  151.9526  140.2513  180.5058 Cl  0  0  0  0  0  0  0  0  0  0  0  0
  154.2835  142.8447  183.0565 C   0  0  0  0  0  0  0  0  0  0  0  0
  153.6585  141.9086  182.2228 O   0  0  0  0  0  0  0  0  0  0  0  0
  154.9782  137.4751  188.8865 C   0  0  0  0  0  0  0  0  0  0  0  0
  155.2170  138.3490  189.9477 C   0  0  0  0  0  0  0  0  0  0  0  0
  155.8257  137.9755  191.1203 C   0  0  0  0  0  0  0  0  0  0  0  0
  156.2056  136.6340  191.2043 C   0  0  0  0  0  0  0  0  0  0  0  0
  157.0025  136.0805  192.6596 Cl  0  0  0  0  0  0  0  0  0  0  0  0
  156.0015  135.7252  190.2041 C   0  0  0  0  0  0  0  0  0  0  0  0
  155.3897  136.1549  189.0559 C   0  0  0  0  0  0  0  0  0  0  0  0
  156.4392  134.2846  190.3677 C   0  0  0  0  0  0  0  0  0  0  0  0
  157.8011  134.3628  190.6594 F   0  0  0  0  0  0  0  0  0  0  0  0
  155.8181  133.7629  191.4844 F   0  0  0  0  0  0  0  0  0  0  0  0
  156.1466  133.6356  189.2130 F   0  0  0  0  0  0  0  0  0  0  0  0
 14 15  1  0  0  0
 15  7  1  0  0  0
  7  8  2  0  0  0
  8  9  1  0  0  0
  9  1  1  0  0  0
  1  2  1  0  0  0
  2  3  2  0  0  0
  2  4  1  0  0  0
  4 16  1  0  0  0
 16 17  2  0  0  0
 17 18  1  0  0  0
 18 19  2  0  0  0
 19 20  1  0  0  0
 19 21  1  0  0  0
 21 22  2  0  0  0
 21 23  1  0  0  0
 23 24  1  0  0  0
 23 25  1  0  0  0
 23 26  1  0  0  0
  9 10  2  0  0  0
 10 11  1  0  0  0
 11 12  2  0  0  0
 12 13  1  0  0  0
 12  7  1  0  0  0
 22 16  1  0  0  0
  1  5  1  0  0  0
  4  6  1  0  0  0
M  END
> <minimizedAffinity>
-6.38007

> <CNNscore>
0.4667257071

> <CNNaffinity>
5.3028578758

> <CNN_VS>
2.4749801159

> <CNNaffinity_variance>
0.0571805909

$$$$
[H]c1c([H])c(N([H])C(=O)N([H])c2c([H])c([H])c(Cl)c(C(F)(F)F)c2[H])c([H])c(OC([H])([H])[H])c1Cl


 26 27  0  0  0  0  0  0  0  0999 V2000
  152.8419  140.0183  180.4288 N   0  0  0  0  0  0  0  0  0  0  0  0
  153.2576  140.5250  181.7605 C   0  0  0  0  0  0  0  0  0  0  0  0
  152.5214  140.1217  182.6813 O   0  0  0  0  0  0  0  0  0  0  0  0
  154.3304  141.3244  181.8300 N   0  0  0  0  0  0  0  0  0  0  0  0
  153.4097  140.2846  179.6045 H   0  0  0  0  0  0  0  0  0  0  0  0
  154.2274  141.3321  183.1952 H   0  0  0  0  0  0  0  0  0  0  0  0
  150.4691  137.2372  180.9545 C   0  0  0  0  0  0  0  0  0  0  0  0
  151.5916  138.0278  181.1113 C   0  0  0  0  0  0  0  0  0  0  0  0
  151.6988  139.2134  180.3628 C   0  0  0  0  0  0  0  0  0  0  0  0
  150.7101  139.5993  179.4818 C   0  0  0  0  0  0  0  0  0  0  0  0
  149.5971  138.8102  179.3315 C   0  0  0  0  0  0  0  0  0  0  0  0
  149.4952  137.6430  180.0692 C   0  0  0  0  0  0  0  0  0  0  0  0
  148.0889  136.6068  179.9129 Cl  0  0  0  0  0  0  0  0  0  0  0  0
  150.0986  136.1337  183.0643 C   0  0  0  0  0  0  0  0  0  0  0  0
  150.3605  136.0710  181.6897 O   0  0  0  0  0  0  0  0  0  0  0  0
  155.4234  142.1389  181.9016 C   0  0  0  0  0  0  0  0  0  0  0  0
  155.3435  143.4485  182.3764 C   0  0  0  0  0  0  0  0  0  0  0  0
  156.4149  144.3052  182.4333 C   0  0  0  0  0  0  0  0  0  0  0  0
  157.6297  143.7859  181.9798 C   0  0  0  0  0  0  0  0  0  0  0  0
  159.0411  144.8186  182.0036 Cl  0  0  0  0  0  0  0  0  0  0  0  0
  157.7785  142.5136  181.5033 C   0  0  0  0  0  0  0  0  0  0  0  0
  156.6741  141.7032  181.4695 C   0  0  0  0  0  0  0  0  0  0  0  0
  159.1293  142.0186  181.0301 C   0  0  0  0  0  0  0  0  0  0  0  0
  158.8567  140.8043  180.3997 F   0  0  0  0  0  0  0  0  0  0  0  0
  159.5950  142.8806  180.0581 F   0  0  0  0  0  0  0  0  0  0  0  0
  159.9322  141.9203  182.1190 F   0  0  0  0  0  0  0  0  0  0  0  0
 14 15  1  0  0  0
 15  7  1  0  0  0
  7  8  2  0  0  0
  8  9  1  0  0  0
  9  1  1  0  0  0
  1  2  1  0  0  0
  2  3  2  0  0  0
  2  4  1  0  0  0
  4 16  1  0  0  0
 16 17  2  0  0  0
 17 18  1  0  0  0
 18 19  2  0  0  0
 19 20  1  0  0  0
 19 21  1  0  0  0
 21 22  2  0  0  0
 21 23  1  0  0  0
 23 24  1  0  0  0
 23 25  1  0  0  0
 23 26  1  0  0  0
  9 10  2  0  0  0
 10 11  1  0  0  0
 11 12  2  0  0  0
 12 13  1  0  0  0
 12  7  1  0  0  0
 22 16  1  0  0  0
  1  5  1  0  0  0
  4  6  1  0  0  0
M  END
> <minimizedAffinity>
-7.63163

> <CNNscore>
0.4589964151

> <CNNaffinity>
5.8613586426

> <CNN_VS>
2.6903426647

> <CNNaffinity_variance>
0.0430554450

$$$$
[H]c1c([H])c(N([H])C(=O)N([H])c2c([H])c([H])c(Cl)c(C(F)(F)F)c2[H])c([H])c(OC([H])([H])[H])c1Cl


 26 27  0  0  0  0  0  0  0  0999 V2000
  154.2342  138.6451  186.1655 N   0  0  0  0  0  0  0  0  0  0  0  0
  153.4248  137.7396  185.3123 C   0  0  0  0  0  0  0  0  0  0  0  0
  153.2607  136.6148  185.8225 O   0  0  0  0  0  0  0  0  0  0  0  0
  152.9759  138.2046  184.1387 N   0  0  0  0  0  0  0  0  0  0  0  0
  154.4043  139.6105  185.8313 H   0  0  0  0  0  0  0  0  0  0  0  0
  152.2972  137.0320  183.9419 H   0  0  0  0  0  0  0  0  0  0  0  0
  156.2539  136.7661  188.6215 C   0  0  0  0  0  0  0  0  0  0  0  0
  155.8516  137.2923  187.4086 C   0  0  0  0  0  0  0  0  0  0  0  0
  154.7286  138.1379  187.3727 C   0  0  0  0  0  0  0  0  0  0  0  0
  154.0269  138.4503  188.5184 C   0  0  0  0  0  0  0  0  0  0  0  0
  154.4323  137.9255  189.7201 C   0  0  0  0  0  0  0  0  0  0  0  0
  155.5378  137.0924  189.7518 C   0  0  0  0  0  0  0  0  0  0  0  0
  156.0943  136.4032  191.2654 Cl  0  0  0  0  0  0  0  0  0  0  0  0
  157.2509  134.6097  188.2190 C   0  0  0  0  0  0  0  0  0  0  0  0
  157.3583  135.9348  188.6602 O   0  0  0  0  0  0  0  0  0  0  0  0
  152.5181  138.6776  182.9430 C   0  0  0  0  0  0  0  0  0  0  0  0
  153.1801  139.6854  182.2408 C   0  0  0  0  0  0  0  0  0  0  0  0
  152.7321  140.2066  181.0522 C   0  0  0  0  0  0  0  0  0  0  0  0
  151.5436  139.6608  180.5619 C   0  0  0  0  0  0  0  0  0  0  0  0
  150.8959  140.2812  179.0602 Cl  0  0  0  0  0  0  0  0  0  0  0  0
  150.8454  138.6726  181.1974 C   0  0  0  0  0  0  0  0  0  0  0  0
  151.3399  138.1910  182.3810 C   0  0  0  0  0  0  0  0  0  0  0  0
  149.5632  138.1276  180.6034 C   0  0  0  0  0  0  0  0  0  0  0  0
  148.6568  139.1839  180.6967 F   0  0  0  0  0  0  0  0  0  0  0  0
  149.7694  137.8922  179.2592 F   0  0  0  0  0  0  0  0  0  0  0  0
  149.2195  137.0257  181.3159 F   0  0  0  0  0  0  0  0  0  0  0  0
 14 15  1  0  0  0
 15  7  1  0  0  0
  7  8  2  0  0  0
  8  9  1  0  0  0
  9  1  1  0  0  0
  1  2  1  0  0  0
  2  3  2  0  0  0
  2  4  1  0  0  0
  4 16  1  0  0  0
 16 17  2  0  0  0
 17 18  1  0  0  0
 18 19  2  0  0  0
 19 20  1  0  0  0
 19 21  1  0  0  0
 21 22  2  0  0  0
 21 23  1  0  0  0
 23 24  1  0  0  0
 23 25  1  0  0  0
 23 26  1  0  0  0
  9 10  2  0  0  0
 10 11  1  0  0  0
 11 12  2  0  0  0
 12 13  1  0  0  0
 12  7  1  0  0  0
 22 16  1  0  0  0
  1  5  1  0  0  0
  4  6  1  0  0  0
M  END
> <minimizedAffinity>
-6.43932

> <CNNscore>
0.4455508888

> <CNNaffinity>
5.1247978210

> <CNN_VS>
2.2833583355

> <CNNaffinity_variance>
0.1421537101

$$$$
[H]c1c([H])c(N([H])C(=O)N([H])c2c([H])c([H])c(Cl)c(C(F)(F)F)c2[H])c([H])c(OC([H])([H])[H])c1Cl


 26 27  0  0  0  0  0  0  0  0999 V2000
  157.4051  139.8153  184.5164 N   0  0  0  0  0  0  0  0  0  0  0  0
  155.9946  139.3673  184.6292 C   0  0  0  0  0  0  0  0  0  0  0  0
  155.3273  139.6126  183.6059 O   0  0  0  0  0  0  0  0  0  0  0  0
  155.6051  138.7736  185.7652 N   0  0  0  0  0  0  0  0  0  0  0  0
  158.0419  139.6330  185.3126 H   0  0  0  0  0  0  0  0  0  0  0  0
  154.3716  138.5474  185.2157 H   0  0  0  0  0  0  0  0  0  0  0  0
  157.9332  142.4252  181.9570 C   0  0  0  0  0  0  0  0  0  0  0  0
  157.5941  141.8479  183.1660 C   0  0  0  0  0  0  0  0  0  0  0  0
  157.7925  140.4667  183.3397 C   0  0  0  0  0  0  0  0  0  0  0  0
  158.3167  139.6833  182.3326 C   0  0  0  0  0  0  0  0  0  0  0  0
  158.6525  140.2630  181.1347 C   0  0  0  0  0  0  0  0  0  0  0  0
  158.4549  141.6230  180.9666 C   0  0  0  0  0  0  0  0  0  0  0  0
  158.8740  142.4068  179.4546 Cl  0  0  0  0  0  0  0  0  0  0  0  0
  158.5859  144.6971  182.4250 C   0  0  0  0  0  0  0  0  0  0  0  0
  157.7399  143.7835  181.7834 O   0  0  0  0  0  0  0  0  0  0  0  0
  155.2074  138.1685  186.9223 C   0  0  0  0  0  0  0  0  0  0  0  0
  153.9780  137.5184  187.0357 C   0  0  0  0  0  0  0  0  0  0  0  0
  153.5326  136.9266  188.1917 C   0  0  0  0  0  0  0  0  0  0  0  0
  154.3979  137.0073  189.2851 C   0  0  0  0  0  0  0  0  0  0  0  0
  153.8982  136.2925  190.8012 Cl  0  0  0  0  0  0  0  0  0  0  0  0
  155.6151  137.6276  189.2432 C   0  0  0  0  0  0  0  0  0  0  0  0
  156.0074  138.2013  188.0624 C   0  0  0  0  0  0  0  0  0  0  0  0
  156.5018  137.6735  190.4702 C   0  0  0  0  0  0  0  0  0  0  0  0
  157.5788  138.4767  190.0946 F   0  0  0  0  0  0  0  0  0  0  0  0
  155.8291  138.3450  191.4709 F   0  0  0  0  0  0  0  0  0  0  0  0
  156.8336  136.3958  190.7819 F   0  0  0  0  0  0  0  0  0  0  0  0
 14 15  1  0  0  0
 15  7  1  0  0  0
  7  8  2  0  0  0
  8  9  1  0  0  0
  9  1  1  0  0  0
  1  2  1  0  0  0
  2  3  2  0  0  0
  2  4  1  0  0  0
  4 16  1  0  0  0
 16 17  2  0  0  0
 17 18  1  0  0  0
 18 19  2  0  0  0
 19 20  1  0  0  0
 19 21  1  0  0  0
 21 22  2  0  0  0
 21 23  1  0  0  0
 23 24  1  0  0  0
 23 25  1  0  0  0
 23 26  1  0  0  0
  9 10  2  0  0  0
 10 11  1  0  0  0
 11 12  2  0  0  0
 12 13  1  0  0  0
 12  7  1  0  0  0
 22 16  1  0  0  0
  1  5  1  0  0  0
  4  6  1  0  0  0
M  END
> <minimizedAffinity>
-7.45886

> <CNNscore>
0.4304196537

> <CNNaffinity>
5.7447328568

> <CNN_VS>
2.4726459980

> <CNNaffinity_variance>
0.0940053463

$$$$
[H]OC(=O)[C@@]([H])(N([H])C(=O)[C@@]([H])(N([H])C(=O)[C@@]([H])(N([H])[H])C([H])([H])C([H])([H])c1c([H])c([H])c([H])c([H])c1[H])[C@@]([H])(C([H])([H])[H])C([H])([H])C([H])([H])[H])C([H])([H])c1c([H])c([H])c([H])c([H])c1[H]


 37 38  0  0  0  0  0  0  0  0999 V2000
  154.0127  139.9595  183.3580 C   0  0  0  0  0  0  0  0  0  0  0  0
  155.3927  140.1648  182.8720 N   0  0  0  0  0  0  0  0  0  0  0  0
  155.9540  141.4361  183.0748 C   0  0  0  0  0  0  0  0  0  0  0  0
  155.3434  142.3500  183.6281 O   0  0  0  0  0  0  0  0  0  0  0  0
  155.8341  139.3441  182.4178 H   0  0  0  0  0  0  0  0  0  0  0  0
  157.3641  141.6676  182.5861 C   0  0  0  0  0  0  0  0  0  0  0  0
  157.5369  143.1131  182.6768 N   0  0  0  0  0  0  0  0  0  0  0  0
  157.1279  143.3803  183.6091 H   0  0  0  0  0  0  0  0  0  0  0  0
  157.0096  143.6062  181.9516 H   0  0  0  0  0  0  0  0  0  0  0  0
  158.2316  140.8889  183.5029 C   0  0  0  0  0  0  0  0  0  0  0  0
  159.6907  141.0696  183.4346 C   0  0  0  0  0  0  0  0  0  0  0  0
  160.2547  141.6886  184.6245 C   0  0  0  0  0  0  0  0  0  0  0  0
  161.5989  142.0571  184.5983 C   0  0  0  0  0  0  0  0  0  0  0  0
  162.1323  142.6782  185.6949 C   0  0  0  0  0  0  0  0  0  0  0  0
  161.3496  142.9347  186.8088 C   0  0  0  0  0  0  0  0  0  0  0  0
  160.0265  142.5625  186.8124 C   0  0  0  0  0  0  0  0  0  0  0  0
  159.4675  141.9400  185.7290 C   0  0  0  0  0  0  0  0  0  0  0  0
  154.1153  139.0885  184.5312 C   0  0  0  0  0  0  0  0  0  0  0  0
  155.1585  138.3342  184.5834 O   0  0  0  0  0  0  0  0  0  0  0  0
  153.2344  138.9639  185.6064 N   0  0  0  0  0  0  0  0  0  0  0  0
  152.3542  139.4666  185.7743 H   0  0  0  0  0  0  0  0  0  0  0  0
  153.5701  137.9967  186.6806 C   0  0  0  0  0  0  0  0  0  0  0  0
  152.6900  136.8419  186.4960 C   0  0  0  0  0  0  0  0  0  0  0  0
  151.6126  136.5731  187.3013 O   0  0  0  0  0  0  0  0  0  0  0  0
  152.9090  136.0282  185.5557 O   0  0  0  0  0  0  0  0  0  0  0  0
  151.4166  135.6235  187.5715 H   0  0  0  0  0  0  0  0  0  0  0  0
  153.4293  138.6516  188.0071 C   0  0  0  0  0  0  0  0  0  0  0  0
  154.5356  138.3722  188.9318 C   0  0  0  0  0  0  0  0  0  0  0  0
  155.6860  137.7693  188.4439 C   0  0  0  0  0  0  0  0  0  0  0  0
  156.7740  137.5062  189.2275 C   0  0  0  0  0  0  0  0  0  0  0  0
  156.7386  137.8497  190.5598 C   0  0  0  0  0  0  0  0  0  0  0  0
  155.6059  138.4533  191.0800 C   0  0  0  0  0  0  0  0  0  0  0  0
  154.5228  138.7081  190.2713 C   0  0  0  0  0  0  0  0  0  0  0  0
  153.2559  139.3965  182.1831 C   0  0  0  0  0  0  0  0  0  0  0  0
  152.2099  138.3910  182.6494 C   0  0  0  0  0  0  0  0  0  0  0  0
  152.0464  139.7569  180.0633 C   0  0  0  0  0  0  0  0  0  0  0  0
  152.5942  140.4260  181.3063 C   0  0  0  0  0  0  0  0  0  0  0  0
 36 37  1  0  0  0
 37 34  1  0  0  0
 34 35  1  0  0  0
 34  1  1  0  0  0
  1  2  1  0  0  0
  2  3  1  0  0  0
  3  4  2  0  0  0
  3  6  1  0  0  0
  6  7  1  0  0  0
  6 10  1  0  0  0
 10 11  1  0  0  0
 11 12  1  0  0  0
 12 13  2  0  0  0
 13 14  1  0  0  0
 14 15  2  0  0  0
 15 16  1  0  0  0
 16 17  2  0  0  0
  1 18  1  0  0  0
 18 19  2  0  0  0
 18 20  1  0  0  0
 20 22  1  0  0  0
 22 27  1  0  0  0
 27 28  1  0  0  0
 28 29  2  0  0  0
 29 30  1  0  0  0
 30 31  2  0  0  0
 31 32  1  0  0  0
 32 33  2  0  0  0
 22 23  1  0  0  0
 23 24  1  0  0  0
 23 25  2  0  0  0
 17 12  1  0  0  0
 33 28  1  0  0  0
  2  5  1  0  0  0
  7  8  1  0  0  0
  7  9  1  0  0  0
 20 21  1  0  0  0
 24 26  1  0  0  0
M  END
> <minimizedAffinity>
-8.84030

> <CNNscore>
0.3912104666

> <CNNaffinity>
6.3707156181

> <CNN_VS>
2.4922907352

> <CNNaffinity_variance>
0.0661370307

$$$$
[H]OC(=O)[C@@]([H])(N([H])C(=O)[C@@]([H])(N([H])C(=O)[C@@]([H])(N([H])[H])C([H])([H])C([H])([H])c1c([H])c([H])c([H])c([H])c1[H])[C@@]([H])(C([H])([H])[H])C([H])([H])C([H])([H])[H])C([H])([H])c1c([H])c([H])c([H])c([H])c1[H]


 37 38  0  0  0  0  0  0  0  0999 V2000
  155.0713  141.1819  183.5954 C   0  0  0  0  0  0  0  0  0  0  0  0
  156.0784  140.9471  182.5403 N   0  0  0  0  0  0  0  0  0  0  0  0
  157.0736  141.9257  182.3842 C   0  0  0  0  0  0  0  0  0  0  0  0
  157.1231  142.9382  183.0817 O   0  0  0  0  0  0  0  0  0  0  0  0
  155.9636  140.0704  181.9990 H   0  0  0  0  0  0  0  0  0  0  0  0
  158.1136  141.7053  181.3116 C   0  0  0  0  0  0  0  0  0  0  0  0
  157.8957  142.8037  180.3768 N   0  0  0  0  0  0  0  0  0  0  0  0
  157.7659  143.6560  180.9807 H   0  0  0  0  0  0  0  0  0  0  0  0
  157.0403  142.6749  179.8304 H   0  0  0  0  0  0  0  0  0  0  0  0
  159.4191  141.7491  182.0137 C   0  0  0  0  0  0  0  0  0  0  0  0
  159.6715  140.8074  183.1163 C   0  0  0  0  0  0  0  0  0  0  0  0
  160.1490  141.4510  184.3308 C   0  0  0  0  0  0  0  0  0  0  0  0
  161.4611  141.9213  184.3522 C   0  0  0  0  0  0  0  0  0  0  0  0
  161.9108  142.5659  185.4725 C   0  0  0  0  0  0  0  0  0  0  0  0
  161.0763  142.7464  186.5634 C   0  0  0  0  0  0  0  0  0  0  0  0
  159.7862  142.2742  186.5202 C   0  0  0  0  0  0  0  0  0  0  0  0
  159.3107  141.6261  185.4122 C   0  0  0  0  0  0  0  0  0  0  0  0
  155.0551  139.9744  184.4244 C   0  0  0  0  0  0  0  0  0  0  0  0
  156.1831  139.3659  184.5556 O   0  0  0  0  0  0  0  0  0  0  0  0
  153.9804  139.3903  185.0961 N   0  0  0  0  0  0  0  0  0  0  0  0
  153.0033  139.7055  185.1367 H   0  0  0  0  0  0  0  0  0  0  0  0
  154.2289  138.1526  185.8762 C   0  0  0  0  0  0  0  0  0  0  0  0
  153.6945  137.0432  185.0851 C   0  0  0  0  0  0  0  0  0  0  0  0
  152.6560  137.1750  184.1986 O   0  0  0  0  0  0  0  0  0  0  0  0
  154.1920  135.8889  185.2041 O   0  0  0  0  0  0  0  0  0  0  0  0
  151.9552  136.4549  184.1409 H   0  0  0  0  0  0  0  0  0  0  0  0
  153.6158  138.2775  187.2240 C   0  0  0  0  0  0  0  0  0  0  0  0
  154.5837  138.2286  188.3275 C   0  0  0  0  0  0  0  0  0  0  0  0
  154.1987  138.6783  189.5823 C   0  0  0  0  0  0  0  0  0  0  0  0
  155.0244  138.6358  190.6701 C   0  0  0  0  0  0  0  0  0  0  0  0
  156.2953  138.1271  190.5268 C   0  0  0  0  0  0  0  0  0  0  0  0
  156.7124  137.6694  189.2881 C   0  0  0  0  0  0  0  0  0  0  0  0
  155.8630  137.7223  188.2075 C   0  0  0  0  0  0  0  0  0  0  0  0
  153.7925  141.4961  182.8632 C   0  0  0  0  0  0  0  0  0  0  0  0
  153.6804  142.9921  182.5949 C   0  0  0  0  0  0  0  0  0  0  0  0
  152.4250  139.8069  181.6958 C   0  0  0  0  0  0  0  0  0  0  0  0
  153.6049  140.7476  181.5704 C   0  0  0  0  0  0  0  0  0  0  0  0
 36 37  1  0  0  0
 37 34  1  0  0  0
 34 35  1  0  0  0
 34  1  1  0  0  0
  1  2  1  0  0  0
  2  3  1  0  0  0
  3  4  2  0  0  0
  3  6  1  0  0  0
  6  7  1  0  0  0
  6 10  1  0  0  0
 10 11  1  0  0  0
 11 12  1  0  0  0
 12 13  2  0  0  0
 13 14  1  0  0  0
 14 15  2  0  0  0
 15 16  1  0  0  0
 16 17  2  0  0  0
  1 18  1  0  0  0
 18 19  2  0  0  0
 18 20  1  0  0  0
 20 22  1  0  0  0
 22 27  1  0  0  0
 27 28  1  0  0  0
 28 29  2  0  0  0
 29 30  1  0  0  0
 30 31  2  0  0  0
 31 32  1  0  0  0
 32 33  2  0  0  0
 22 23  1  0  0  0
 23 24  1  0  0  0
 23 25  2  0  0  0
 17 12  1  0  0  0
 33 28  1  0  0  0
  2  5  1  0  0  0
  7  8  1  0  0  0
  7  9  1  0  0  0
 20 21  1  0  0  0
 24 26  1  0  0  0
M  END
> <minimizedAffinity>
-8.97865

> <CNNscore>
0.3407930136

> <CNNaffinity>
6.3663549423

> <CNN_VS>
2.1696093082

> <CNNaffinity_variance>
0.1247893572

$$$$
[H]OC(=O)[C@@]([H])(N([H])C(=O)[C@@]([H])(N([H])C(=O)[C@@]([H])(N([H])[H])C([H])([H])C([H])([H])c1c([H])c([H])c([H])c([H])c1[H])[C@@]([H])(C([H])([H])[H])C([H])([H])C([H])([H])[H])C([H])([H])c1c([H])c([H])c([H])c([H])c1[H]


 37 38  0  0  0  0  0  0  0  0999 V2000
  154.5724  139.6502  184.3632 C   0  0  0  0  0  0  0  0  0  0  0  0
  155.7579  139.3881  183.5214 N   0  0  0  0  0  0  0  0  0  0  0  0
  156.6660  140.4468  183.3575 C   0  0  0  0  0  0  0  0  0  0  0  0
  156.5016  141.5485  183.8805 O   0  0  0  0  0  0  0  0  0  0  0  0
  155.8193  138.4347  183.1190 H   0  0  0  0  0  0  0  0  0  0  0  0
  157.8853  140.2003  182.5011 C   0  0  0  0  0  0  0  0  0  0  0  0
  157.8719  141.2994  181.5422 N   0  0  0  0  0  0  0  0  0  0  0  0
  157.6484  142.1566  182.1106 H   0  0  0  0  0  0  0  0  0  0  0  0
  157.1328  141.1865  180.8436 H   0  0  0  0  0  0  0  0  0  0  0  0
  159.0349  140.2195  183.4378 C   0  0  0  0  0  0  0  0  0  0  0  0
  160.0844  141.2365  183.2632 C   0  0  0  0  0  0  0  0  0  0  0  0
  160.5298  141.8310  184.5144 C   0  0  0  0  0  0  0  0  0  0  0  0
  159.5963  141.9811  185.5388 C   0  0  0  0  0  0  0  0  0  0  0  0
  160.0105  142.5000  186.7354 C   0  0  0  0  0  0  0  0  0  0  0  0
  161.3326  142.8686  186.9229 C   0  0  0  0  0  0  0  0  0  0  0  0
  162.2358  142.7117  185.8988 C   0  0  0  0  0  0  0  0  0  0  0  0
  161.8484  142.1951  184.6918 C   0  0  0  0  0  0  0  0  0  0  0  0
  154.7385  138.8388  185.5713 C   0  0  0  0  0  0  0  0  0  0  0  0
  155.9502  138.5269  185.8783 O   0  0  0  0  0  0  0  0  0  0  0  0
  153.7594  138.3559  186.4406 N   0  0  0  0  0  0  0  0  0  0  0  0
  152.7414  138.4873  186.3948 H   0  0  0  0  0  0  0  0  0  0  0  0
  154.1930  137.5458  187.6059 C   0  0  0  0  0  0  0  0  0  0  0  0
  153.8228  136.1600  187.3151 C   0  0  0  0  0  0  0  0  0  0  0  0
  154.7344  135.1440  187.1786 O   0  0  0  0  0  0  0  0  0  0  0  0
  152.6070  135.8503  187.1732 O   0  0  0  0  0  0  0  0  0  0  0  0
  154.6036  134.4497  186.4617 H   0  0  0  0  0  0  0  0  0  0  0  0
  153.5771  138.0827  188.8471 C   0  0  0  0  0  0  0  0  0  0  0  0
  153.9835  137.3771  190.0694 C   0  0  0  0  0  0  0  0  0  0  0  0
  153.0103  136.7836  190.8603 C   0  0  0  0  0  0  0  0  0  0  0  0
  153.3047  136.0791  191.9935 C   0  0  0  0  0  0  0  0  0  0  0  0
  154.6199  135.9458  192.3765 C   0  0  0  0  0  0  0  0  0  0  0  0
  155.6171  136.5256  191.6100 C   0  0  0  0  0  0  0  0  0  0  0  0
  155.2961  137.2302  190.4730 C   0  0  0  0  0  0  0  0  0  0  0  0
  153.3863  139.3101  183.4984 C   0  0  0  0  0  0  0  0  0  0  0  0
  153.2761  140.2827  182.3304 C   0  0  0  0  0  0  0  0  0  0  0  0
  152.2478  137.7440  181.9695 C   0  0  0  0  0  0  0  0  0  0  0  0
  153.3741  137.9005  182.9695 C   0  0  0  0  0  0  0  0  0  0  0  0
 36 37  1  0  0  0
 37 34  1  0  0  0
 34 35  1  0  0  0
 34  1  1  0  0  0
  1  2  1  0  0  0
  2  3  1  0  0  0
  3  4  2  0  0  0
  3  6  1  0  0  0
  6  7  1  0  0  0
  6 10  1  0  0  0
 10 11  1  0  0  0
 11 12  1  0  0  0
 12 13  2  0  0  0
 13 14  1  0  0  0
 14 15  2  0  0  0
 15 16  1  0  0  0
 16 17  2  0  0  0
  1 18  1  0  0  0
 18 19  2  0  0  0
 18 20  1  0  0  0
 20 22  1  0  0  0
 22 27  1  0  0  0
 27 28  1  0  0  0
 28 29  2  0  0  0
 29 30  1  0  0  0
 30 31  2  0  0  0
 31 32  1  0  0  0
 32 33  2  0  0  0
 22 23  1  0  0  0
 23 24  1  0  0  0
 23 25  2  0  0  0
 17 12  1  0  0  0
 33 28  1  0  0  0
  2  5  1  0  0  0
  7  8  1  0  0  0
  7  9  1  0  0  0
 20 21  1  0  0  0
 24 26  1  0  0  0
M  END
> <minimizedAffinity>
-7.59913

> <CNNscore>
0.3318554163

> <CNNaffinity>
6.0838484764

> <CNN_VS>
2.0189580917

> <CNNaffinity_variance>
0.2553119957

$$$$
[H]OC(=O)[C@@]([H])(N([H])C(=O)[C@@]([H])(N([H])C(=O)[C@@]([H])(N([H])[H])C([H])([H])C([H])([H])c1c([H])c([H])c([H])c([H])c1[H])[C@@]([H])(C([H])([H])[H])C([H])([H])C([H])([H])[H])C([H])([H])c1c([H])c([H])c([H])c([H])c1[H]


 37 38  0  0  0  0  0  0  0  0999 V2000
  153.6125  139.7612  183.5868 C   0  0  0  0  0  0  0  0  0  0  0  0
  154.8528  140.4662  183.2030 N   0  0  0  0  0  0  0  0  0  0  0  0
  154.7667  141.8586  183.0407 C   0  0  0  0  0  0  0  0  0  0  0  0
  153.7184  142.4818  183.2048 O   0  0  0  0  0  0  0  0  0  0  0  0
  155.6903  139.8667  183.0849 H   0  0  0  0  0  0  0  0  0  0  0  0
  156.0231  142.5993  182.6489 C   0  0  0  0  0  0  0  0  0  0  0  0
  155.6320  144.0040  182.6872 N   0  0  0  0  0  0  0  0  0  0  0  0
  155.0739  144.1092  183.5733 H   0  0  0  0  0  0  0  0  0  0  0  0
  155.0228  144.2514  181.9032 H   0  0  0  0  0  0  0  0  0  0  0  0
  157.0370  142.2185  183.6620 C   0  0  0  0  0  0  0  0  0  0  0  0
  158.4080  141.9118  183.2233 C   0  0  0  0  0  0  0  0  0  0  0  0
  158.7072  142.3860  181.8806 C   0  0  0  0  0  0  0  0  0  0  0  0
  158.5300  141.5018  180.8175 C   0  0  0  0  0  0  0  0  0  0  0  0
  158.7672  141.9467  179.5453 C   0  0  0  0  0  0  0  0  0  0  0  0
  159.1758  143.2511  179.3205 C   0  0  0  0  0  0  0  0  0  0  0  0
  159.3441  144.1055  180.3839 C   0  0  0  0  0  0  0  0  0  0  0  0
  159.1135  143.6867  181.6665 C   0  0  0  0  0  0  0  0  0  0  0  0
  153.9436  138.9599  184.7675 C   0  0  0  0  0  0  0  0  0  0  0  0
  155.1845  138.6404  184.9016 O   0  0  0  0  0  0  0  0  0  0  0  0
  153.0954  138.4939  185.7728 N   0  0  0  0  0  0  0  0  0  0  0  0
  152.0822  138.6338  185.8714 H   0  0  0  0  0  0  0  0  0  0  0  0
  153.6851  137.6911  186.8728 C   0  0  0  0  0  0  0  0  0  0  0  0
  153.0577  136.3703  186.8118 C   0  0  0  0  0  0  0  0  0  0  0  0
  153.7191  135.2026  187.0959 O   0  0  0  0  0  0  0  0  0  0  0  0
  151.8439  136.2652  186.4800 O   0  0  0  0  0  0  0  0  0  0  0  0
  153.5517  134.3851  186.5331 H   0  0  0  0  0  0  0  0  0  0  0  0
  153.4837  138.3910  188.1681 C   0  0  0  0  0  0  0  0  0  0  0  0
  154.5505  138.1514  189.1488 C   0  0  0  0  0  0  0  0  0  0  0  0
  154.2138  137.9893  190.4850 C   0  0  0  0  0  0  0  0  0  0  0  0
  155.1392  137.7287  191.4559 C   0  0  0  0  0  0  0  0  0  0  0  0
  156.4656  137.6200  191.1049 C   0  0  0  0  0  0  0  0  0  0  0  0
  156.8369  137.7761  189.7799 C   0  0  0  0  0  0  0  0  0  0  0  0
  155.8870  138.0381  188.8201 C   0  0  0  0  0  0  0  0  0  0  0  0
  153.1971  138.9892  182.3614 C   0  0  0  0  0  0  0  0  0  0  0  0
  152.4386  137.7268  182.7530 C   0  0  0  0  0  0  0  0  0  0  0  0
  152.0377  138.8910  180.1860 C   0  0  0  0  0  0  0  0  0  0  0  0
  152.3759  139.7710  181.3710 C   0  0  0  0  0  0  0  0  0  0  0  0
 36 37  1  0  0  0
 37 34  1  0  0  0
 34 35  1  0  0  0
 34  1  1  0  0  0
  1  2  1  0  0  0
  2  3  1  0  0  0
  3  4  2  0  0  0
  3  6  1  0  0  0
  6  7  1  0  0  0
  6 10  1  0  0  0
 10 11  1  0  0  0
 11 12  1  0  0  0
 12 13  2  0  0  0
 13 14  1  0  0  0
 14 15  2  0  0  0
 15 16  1  0  0  0
 16 17  2  0  0  0
  1 18  1  0  0  0
 18 19  2  0  0  0
 18 20  1  0  0  0
 20 22  1  0  0  0
 22 27  1  0  0  0
 27 28  1  0  0  0
 28 29  2  0  0  0
 29 30  1  0  0  0
 30 31  2  0  0  0
 31 32  1  0  0  0
 32 33  2  0  0  0
 22 23  1  0  0  0
 23 24  1  0  0  0
 23 25  2  0  0  0
 17 12  1  0  0  0
 33 28  1  0  0  0
  2  5  1  0  0  0
  7  8  1  0  0  0
  7  9  1  0  0  0
 20 21  1  0  0  0
 24 26  1  0  0  0
M  END
> <minimizedAffinity>
-7.40081

> <CNNscore>
0.3192760348

> <CNNaffinity>
6.0625391006

> <CNN_VS>
1.9356234074

> <CNNaffinity_variance>
0.1098605022

$$$$
[H]OC(=O)[C@@]([H])(N([H])C(=O)[C@@]([H])(N([H])C(=O)[C@@]([H])(N([H])[H])C([H])([H])C([H])([H])c1c([H])c([H])c([H])c([H])c1[H])[C@@]([H])(C([H])([H])[H])C([H])([H])C([H])([H])[H])C([H])([H])c1c([H])c([H])c([H])c([H])c1[H]


 37 38  0  0  0  0  0  0  0  0999 V2000
  154.1763  136.1345  188.2728 C   0  0  0  0  0  0  0  0  0  0  0  0
  153.8780  136.9254  187.0611 N   0  0  0  0  0  0  0  0  0  0  0  0
  154.2383  136.3574  185.8282 C   0  0  0  0  0  0  0  0  0  0  0  0
  154.7780  135.2552  185.7383 O   0  0  0  0  0  0  0  0  0  0  0  0
  153.4231  137.8423  187.2257 H   0  0  0  0  0  0  0  0  0  0  0  0
  153.9420  137.1490  184.5766 C   0  0  0  0  0  0  0  0  0  0  0  0
  152.5699  136.7828  184.2433 N   0  0  0  0  0  0  0  0  0  0  0  0
  152.0495  136.8079  185.1578 H   0  0  0  0  0  0  0  0  0  0  0  0
  152.5086  135.8301  183.8750 H   0  0  0  0  0  0  0  0  0  0  0  0
  154.1203  138.5709  184.9583 C   0  0  0  0  0  0  0  0  0  0  0  0
  155.3378  139.2797  184.5323 C   0  0  0  0  0  0  0  0  0  0  0  0
  155.0678  140.5108  183.8051 C   0  0  0  0  0  0  0  0  0  0  0  0
  153.9367  140.5580  182.9917 C   0  0  0  0  0  0  0  0  0  0  0  0
  153.6471  141.7230  182.3345 C   0  0  0  0  0  0  0  0  0  0  0  0
  154.4639  142.8329  182.4763 C   0  0  0  0  0  0  0  0  0  0  0  0
  155.5741  142.7634  183.2838 C   0  0  0  0  0  0  0  0  0  0  0  0
  155.8869  141.6109  183.9526 C   0  0  0  0  0  0  0  0  0  0  0  0
  152.9126  135.5172  188.6822 C   0  0  0  0  0  0  0  0  0  0  0  0
  152.9553  134.2522  188.9225 O   0  0  0  0  0  0  0  0  0  0  0  0
  151.6626  136.1146  188.8498 N   0  0  0  0  0  0  0  0  0  0  0  0
  151.4019  137.1003  188.7224 H   0  0  0  0  0  0  0  0  0  0  0  0
  150.5269  135.2591  189.2749 C   0  0  0  0  0  0  0  0  0  0  0  0
  149.6062  135.1887  188.1393 C   0  0  0  0  0  0  0  0  0  0  0  0
  149.9763  134.7660  186.8879 O   0  0  0  0  0  0  0  0  0  0  0  0
  148.3999  135.5316  188.2855 O   0  0  0  0  0  0  0  0  0  0  0  0
  149.6182  135.2398  186.0753 H   0  0  0  0  0  0  0  0  0  0  0  0
  149.9146  135.8153  190.5093 C   0  0  0  0  0  0  0  0  0  0  0  0
  150.8221  135.8490  191.6635 C   0  0  0  0  0  0  0  0  0  0  0  0
  151.4484  134.6772  192.0630 C   0  0  0  0  0  0  0  0  0  0  0  0
  152.3330  134.6274  193.1033 C   0  0  0  0  0  0  0  0  0  0  0  0
  152.6230  135.7834  193.7917 C   0  0  0  0  0  0  0  0  0  0  0  0
  152.0157  136.9711  193.4194 C   0  0  0  0  0  0  0  0  0  0  0  0
  151.1284  136.9963  192.3686 C   0  0  0  0  0  0  0  0  0  0  0  0
  154.7792  137.1117  189.2484 C   0  0  0  0  0  0  0  0  0  0  0  0
  154.2952  138.5276  188.9594 C   0  0  0  0  0  0  0  0  0  0  0  0
  155.7998  137.0156  191.4923 C   0  0  0  0  0  0  0  0  0  0  0  0
  154.5302  136.7914  190.6982 C   0  0  0  0  0  0  0  0  0  0  0  0
 36 37  1  0  0  0
 37 34  1  0  0  0
 34 35  1  0  0  0
 34  1  1  0  0  0
  1  2  1  0  0  0
  2  3  1  0  0  0
  3  4  2  0  0  0
  3  6  1  0  0  0
  6  7  1  0  0  0
  6 10  1  0  0  0
 10 11  1  0  0  0
 11 12  1  0  0  0
 12 13  2  0  0  0
 13 14  1  0  0  0
 14 15  2  0  0  0
 15 16  1  0  0  0
 16 17  2  0  0  0
  1 18  1  0  0  0
 18 19  2  0  0  0
 18 20  1  0  0  0
 20 22  1  0  0  0
 22 27  1  0  0  0
 27 28  1  0  0  0
 28 29  2  0  0  0
 29 30  1  0  0  0
 30 31  2  0  0  0
 31 32  1  0  0  0
 32 33  2  0  0  0
 22 23  1  0  0  0
 23 24  1  0  0  0
 23 25  2  0  0  0
 17 12  1  0  0  0
 33 28  1  0  0  0
  2  5  1  0  0  0
  7  8  1  0  0  0
  7  9  1  0  0  0
 20 21  1  0  0  0
 24 26  1  0  0  0
M  END
> <minimizedAffinity>
-6.08639

> <CNNscore>
0.3124394715

> <CNNaffinity>
5.3196535110

> <CNN_VS>
1.6620696783

> <CNNaffinity_variance>
0.2101584226

$$$$
[H]OC(=O)[C@@]([H])(N([H])C(=O)[C@@]([H])(N([H])C(=O)[C@@]([H])(N([H])[H])C([H])([H])C([H])([H])c1c([H])c([H])c([H])c([H])c1[H])[C@@]([H])(C([H])([H])[H])C([H])([H])C([H])([H])[H])C([H])([H])c1c([H])c([H])c([H])c([H])c1[H]


 37 38  0  0  0  0  0  0  0  0999 V2000
  155.7701  141.1797  183.7354 C   0  0  0  0  0  0  0  0  0  0  0  0
  157.1739  140.9179  183.3568 N   0  0  0  0  0  0  0  0  0  0  0  0
  158.1389  141.0499  184.3686 C   0  0  0  0  0  0  0  0  0  0  0  0
  157.8511  141.3679  185.5220 O   0  0  0  0  0  0  0  0  0  0  0  0
  157.3290  140.6561  182.3658 H   0  0  0  0  0  0  0  0  0  0  0  0
  159.5804  140.7863  184.0034 C   0  0  0  0  0  0  0  0  0  0  0  0
  159.5222  139.5839  183.1797 N   0  0  0  0  0  0  0  0  0  0  0  0
  158.7116  139.7380  182.5263 H   0  0  0  0  0  0  0  0  0  0  0  0
  159.3201  138.7498  183.7368 H   0  0  0  0  0  0  0  0  0  0  0  0
  160.0324  142.0008  183.2823 C   0  0  0  0  0  0  0  0  0  0  0  0
  160.2927  143.2320  184.0456 C   0  0  0  0  0  0  0  0  0  0  0  0
  161.2516  143.0532  185.1254 C   0  0  0  0  0  0  0  0  0  0  0  0
  160.8769  143.4494  186.4083 C   0  0  0  0  0  0  0  0  0  0  0  0
  161.7525  143.2489  187.4408 C   0  0  0  0  0  0  0  0  0  0  0  0
  162.9870  142.6633  187.2130 C   0  0  0  0  0  0  0  0  0  0  0  0
  163.3354  142.2804  185.9397 C   0  0  0  0  0  0  0  0  0  0  0  0
  162.4787  142.4691  184.8889 C   0  0  0  0  0  0  0  0  0  0  0  0
  155.1680  139.8731  184.0107 C   0  0  0  0  0  0  0  0  0  0  0  0
  155.9364  138.8524  183.8446 O   0  0  0  0  0  0  0  0  0  0  0  0
  153.8700  139.5807  184.4318 N   0  0  0  0  0  0  0  0  0  0  0  0
  153.1002  140.2310  184.6321 H   0  0  0  0  0  0  0  0  0  0  0  0
  153.5034  138.1579  184.6404 C   0  0  0  0  0  0  0  0  0  0  0  0
  152.6175  137.7863  183.5362 C   0  0  0  0  0  0  0  0  0  0  0  0
  152.0242  138.6978  182.7002 O   0  0  0  0  0  0  0  0  0  0  0  0
  152.3627  136.5694  183.3165 O   0  0  0  0  0  0  0  0  0  0  0  0
  151.0713  138.5593  182.4073 H   0  0  0  0  0  0  0  0  0  0  0  0
  152.8901  137.9897  185.9834 C   0  0  0  0  0  0  0  0  0  0  0  0
  153.8596  137.9853  187.0867 C   0  0  0  0  0  0  0  0  0  0  0  0
  155.1113  137.4229  186.8819 C   0  0  0  0  0  0  0  0  0  0  0  0
  156.0830  137.4082  187.8424 C   0  0  0  0  0  0  0  0  0  0  0  0
  155.8201  137.9729  189.0697 C   0  0  0  0  0  0  0  0  0  0  0  0
  154.5809  138.5432  189.3082 C   0  0  0  0  0  0  0  0  0  0  0  0
  153.6184  138.5460  188.3255 C   0  0  0  0  0  0  0  0  0  0  0  0
  155.1817  141.9463  182.5793 C   0  0  0  0  0  0  0  0  0  0  0  0
  154.1724  142.9751  183.0747 C   0  0  0  0  0  0  0  0  0  0  0  0
  156.3261  144.0809  182.1108 C   0  0  0  0  0  0  0  0  0  0  0  0
  156.1911  142.6307  181.6966 C   0  0  0  0  0  0  0  0  0  0  0  0
 36 37  1  0  0  0
 37 34  1  0  0  0
 34 35  1  0  0  0
 34  1  1  0  0  0
  1  2  1  0  0  0
  2  3  1  0  0  0
  3  4  2  0  0  0
  3  6  1  0  0  0
  6  7  1  0  0  0
  6 10  1  0  0  0
 10 11  1  0  0  0
 11 12  1  0  0  0
 12 13  2  0  0  0
 13 14  1  0  0  0
 14 15  2  0  0  0
 15 16  1  0  0  0
 16 17  2  0  0  0
  1 18  1  0  0  0
 18 19  2  0  0  0
 18 20  1  0  0  0
 20 22  1  0  0  0
 22 27  1  0  0  0
 27 28  1  0  0  0
 28 29  2  0  0  0
 29 30  1  0  0  0
 30 31  2  0  0  0
 31 32  1  0  0  0
 32 33  2  0  0  0
 22 23  1  0  0  0
 23 24  1  0  0  0
 23 25  2  0  0  0
 17 12  1  0  0  0
 33 28  1  0  0  0
  2  5  1  0  0  0
  7  8  1  0  0  0
  7  9  1  0  0  0
 20 21  1  0  0  0
 24 26  1  0  0  0
M  END
> <minimizedAffinity>
-8.24355

> <CNNscore>
0.2575604022

> <CNNaffinity>
6.2993659973

> <CNN_VS>
1.6224672794

> <CNNaffinity_variance>
0.1085354462

$$$$
[H]OC(=O)[C@@]([H])(N([H])C(=O)[C@@]([H])(N([H])C(=O)[C@@]([H])(N([H])[H])C([H])([H])C([H])([H])c1c([H])c([H])c([H])c([H])c1[H])[C@@]([H])(C([H])([H])[H])C([H])([H])C([H])([H])[H])C([H])([H])c1c([H])c([H])c([H])c([H])c1[H]


 37 38  0  0  0  0  0  0  0  0999 V2000
  155.2521  140.5680  182.9175 C   0  0  0  0  0  0  0  0  0  0  0  0
  154.6507  140.2421  184.2270 N   0  0  0  0  0  0  0  0  0  0  0  0
  154.4889  138.8802  184.5294 C   0  0  0  0  0  0  0  0  0  0  0  0
  154.8246  137.9846  183.7552 O   0  0  0  0  0  0  0  0  0  0  0  0
  154.3966  141.0553  184.8177 H   0  0  0  0  0  0  0  0  0  0  0  0
  153.8764  138.5247  185.8633 C   0  0  0  0  0  0  0  0  0  0  0  0
  152.6079  137.8954  185.5134 N   0  0  0  0  0  0  0  0  0  0  0  0
  152.8345  137.2459  184.7167 H   0  0  0  0  0  0  0  0  0  0  0  0
  151.9245  138.5778  185.1753 H   0  0  0  0  0  0  0  0  0  0  0  0
  154.8510  137.6163  186.5147 C   0  0  0  0  0  0  0  0  0  0  0  0
  154.4245  136.8249  187.6800 C   0  0  0  0  0  0  0  0  0  0  0  0
  154.9442  137.3263  188.9433 C   0  0  0  0  0  0  0  0  0  0  0  0
  156.3218  137.5032  189.0625 C   0  0  0  0  0  0  0  0  0  0  0  0
  156.8210  138.0136  190.2301 C   0  0  0  0  0  0  0  0  0  0  0  0
  155.9716  138.3472  191.2723 C   0  0  0  0  0  0  0  0  0  0  0  0
  154.6166  138.1642  191.1326 C   0  0  0  0  0  0  0  0  0  0  0  0
  154.0907  137.6558  189.9756 C   0  0  0  0  0  0  0  0  0  0  0  0
  156.4662  141.3362  183.2024 C   0  0  0  0  0  0  0  0  0  0  0  0
  156.5591  141.8225  184.3918 O   0  0  0  0  0  0  0  0  0  0  0  0
  157.5424  141.6140  182.3585 N   0  0  0  0  0  0  0  0  0  0  0  0
  157.6822  141.3240  181.3827 H   0  0  0  0  0  0  0  0  0  0  0  0
  158.6633  142.4258  182.8940 C   0  0  0  0  0  0  0  0  0  0  0  0
  159.0296  143.3792  181.8457 C   0  0  0  0  0  0  0  0  0  0  0  0
  159.2511  143.0226  180.5398 O   0  0  0  0  0  0  0  0  0  0  0  0
  159.1600  144.6033  182.1265 O   0  0  0  0  0  0  0  0  0  0  0  0
  160.0058  143.4482  180.0278 H   0  0  0  0  0  0  0  0  0  0  0  0
  159.7766  141.5326  183.3074 C   0  0  0  0  0  0  0  0  0  0  0  0
  160.4984  141.9911  184.5015 C   0  0  0  0  0  0  0  0  0  0  0  0
  159.7822  142.2695  185.6567 C   0  0  0  0  0  0  0  0  0  0  0  0
  160.3782  142.6669  186.8203 C   0  0  0  0  0  0  0  0  0  0  0  0
  161.7475  142.8002  186.8598 C   0  0  0  0  0  0  0  0  0  0  0  0
  162.4935  142.5304  185.7246 C   0  0  0  0  0  0  0  0  0  0  0  0
  161.8709  142.1316  184.5647 C   0  0  0  0  0  0  0  0  0  0  0  0
  154.1756  141.2953  182.1542 C   0  0  0  0  0  0  0  0  0  0  0  0
  153.0419  140.3454  181.7871 C   0  0  0  0  0  0  0  0  0  0  0  0
  154.3370  143.7436  182.4107 C   0  0  0  0  0  0  0  0  0  0  0  0
  153.6040  142.4967  182.8589 C   0  0  0  0  0  0  0  0  0  0  0  0
 36 37  1  0  0  0
 37 34  1  0  0  0
 34 35  1  0  0  0
 34  1  1  0  0  0
  1  2  1  0  0  0
  2  3  1  0  0  0
  3  4  2  0  0  0
  3  6  1  0  0  0
  6  7  1  0  0  0
  6 10  1  0  0  0
 10 11  1  0  0  0
 11 12  1  0  0  0
 12 13  2  0  0  0
 13 14  1  0  0  0
 14 15  2  0  0  0
 15 16  1  0  0  0
 16 17  2  0  0  0
  1 18  1  0  0  0
 18 19  2  0  0  0
 18 20  1  0  0  0
 20 22  1  0  0  0
 22 27  1  0  0  0
 27 28  1  0  0  0
 28 29  2  0  0  0
 29 30  1  0  0  0
 30 31  2  0  0  0
 31 32  1  0  0  0
 32 33  2  0  0  0
 22 23  1  0  0  0
 23 24  1  0  0  0
 23 25  2  0  0  0
 17 12  1  0  0  0
 33 28  1  0  0  0
  2  5  1  0  0  0
  7  8  1  0  0  0
  7  9  1  0  0  0
 20 21  1  0  0  0
 24 26  1  0  0  0
M  END
> <minimizedAffinity>
-8.68406

> <CNNscore>
0.2403408736

> <CNNaffinity>
6.2438721657

> <CNN_VS>
1.5006576777

> <CNNaffinity_variance>
0.1415333748

$$$$
[H]OC(=O)[C@@]([H])(N([H])C(=O)[C@@]([H])(N([H])C(=O)[C@@]([H])(N([H])[H])C([H])([H])C([H])([H])c1c([H])c([H])c([H])c([H])c1[H])[C@@]([H])(C([H])([H])[H])C([H])([H])C([H])([H])[H])C([H])([H])c1c([H])c([H])c([H])c([H])c1[H]


 37 38  0  0  0  0  0  0  0  0999 V2000
  154.6052  136.2370  188.5543 C   0  0  0  0  0  0  0  0  0  0  0  0
  154.5683  137.0152  187.2990 N   0  0  0  0  0  0  0  0  0  0  0  0
  154.3769  136.2925  186.1101 C   0  0  0  0  0  0  0  0  0  0  0  0
  154.2444  135.0693  186.0916 O   0  0  0  0  0  0  0  0  0  0  0  0
  154.6881  138.0396  187.4037 H   0  0  0  0  0  0  0  0  0  0  0  0
  154.3355  137.0686  184.8152 C   0  0  0  0  0  0  0  0  0  0  0  0
  153.0277  136.7495  184.2534 N   0  0  0  0  0  0  0  0  0  0  0  0
  152.3582  136.8141  185.0630 H   0  0  0  0  0  0  0  0  0  0  0  0
  152.9909  135.7924  183.8934 H   0  0  0  0  0  0  0  0  0  0  0  0
  154.5049  138.4902  185.2023 C   0  0  0  0  0  0  0  0  0  0  0  0
  155.5620  139.2868  184.5587 C   0  0  0  0  0  0  0  0  0  0  0  0
  155.0546  140.4262  183.8093 C   0  0  0  0  0  0  0  0  0  0  0  0
  153.9665  140.2227  182.9620 C   0  0  0  0  0  0  0  0  0  0  0  0
  153.4523  141.2936  182.2827 C   0  0  0  0  0  0  0  0  0  0  0  0
  154.0041  142.5550  182.4357 C   0  0  0  0  0  0  0  0  0  0  0  0
  155.0768  142.7323  183.2766 C   0  0  0  0  0  0  0  0  0  0  0  0
  155.6106  141.6786  183.9681 C   0  0  0  0  0  0  0  0  0  0  0  0
  153.2753  136.3627  189.1552 C   0  0  0  0  0  0  0  0  0  0  0  0
  152.6824  137.4930  188.9799 O   0  0  0  0  0  0  0  0  0  0  0  0
  152.5580  135.4208  189.8940 N   0  0  0  0  0  0  0  0  0  0  0  0
  152.8305  134.4627  190.1463 H   0  0  0  0  0  0  0  0  0  0  0  0
  151.2152  135.7997  190.3995 C   0  0  0  0  0  0  0  0  0  0  0  0
  151.2576  135.6530  191.8551 C   0  0  0  0  0  0  0  0  0  0  0  0
  152.4058  135.7719  192.5962 O   0  0  0  0  0  0  0  0  0  0  0  0
  150.1977  135.3999  192.4929 O   0  0  0  0  0  0  0  0  0  0  0  0
  152.5699  135.1442  193.3657 H   0  0  0  0  0  0  0  0  0  0  0  0
  150.1776  134.9627  189.7428 C   0  0  0  0  0  0  0  0  0  0  0  0
  149.3585  135.6869  188.7622 C   0  0  0  0  0  0  0  0  0  0  0  0
  148.0580  136.0360  189.0967 C   0  0  0  0  0  0  0  0  0  0  0  0
  147.2407  136.7397  188.2578 C   0  0  0  0  0  0  0  0  0  0  0  0
  147.7173  137.1241  187.0251 C   0  0  0  0  0  0  0  0  0  0  0  0
  149.0110  136.7924  186.6588 C   0  0  0  0  0  0  0  0  0  0  0  0
  149.8152  136.0833  187.5206 C   0  0  0  0  0  0  0  0  0  0  0  0
  155.7456  136.8174  189.3499 C   0  0  0  0  0  0  0  0  0  0  0  0
  156.2249  138.1235  188.7279 C   0  0  0  0  0  0  0  0  0  0  0  0
  155.4535  138.5313  191.1001 C   0  0  0  0  0  0  0  0  0  0  0  0
  155.4467  137.0456  190.8076 C   0  0  0  0  0  0  0  0  0  0  0  0
 36 37  1  0  0  0
 37 34  1  0  0  0
 34 35  1  0  0  0
 34  1  1  0  0  0
  1  2  1  0  0  0
  2  3  1  0  0  0
  3  4  2  0  0  0
  3  6  1  0  0  0
  6  7  1  0  0  0
  6 10  1  0  0  0
 10 11  1  0  0  0
 11 12  1  0  0  0
 12 13  2  0  0  0
 13 14  1  0  0  0
 14 15  2  0  0  0
 15 16  1  0  0  0
 16 17  2  0  0  0
  1 18  1  0  0  0
 18 19  2  0  0  0
 18 20  1  0  0  0
 20 22  1  0  0  0
 22 27  1  0  0  0
 27 28  1  0  0  0
 28 29  2  0  0  0
 29 30  1  0  0  0
 30 31  2  0  0  0
 31 32  1  0  0  0
 32 33  2  0  0  0
 22 23  1  0  0  0
 23 24  1  0  0  0
 23 25  2  0  0  0
 17 12  1  0  0  0
 33 28  1  0  0  0
  2  5  1  0  0  0
  7  8  1  0  0  0
  7  9  1  0  0  0
 20 21  1  0  0  0
 24 26  1  0  0  0
M  END
> <minimizedAffinity>
-5.93870

> <CNNscore>
0.2388133109

> <CNNaffinity>
5.3989663124

> <CNN_VS>
1.2893450260

> <CNNaffinity_variance>
0.1598788500

$$$$
[H]OC(=O)[C@@]([H])(N([H])C(=O)[C@@]([H])(N([H])C(=O)[C@@]([H])(N([H])[H])C([H])([H])C([H])([H])c1c([H])c([H])c([H])c([H])c1[H])[C@@]([H])(C([H])([H])[H])C([H])([H])C([H])([H])[H])C([H])([H])c1c([H])c([H])c([H])c([H])c1[H]


 37 38  0  0  0  0  0  0  0  0999 V2000
  155.2770  140.9786  183.2449 C   0  0  0  0  0  0  0  0  0  0  0  0
  156.4836  140.6551  182.4561 N   0  0  0  0  0  0  0  0  0  0  0  0
  157.4357  141.6766  182.3056 C   0  0  0  0  0  0  0  0  0  0  0  0
  157.2918  142.7950  182.7982 O   0  0  0  0  0  0  0  0  0  0  0  0
  156.5254  139.6912  182.0768 H   0  0  0  0  0  0  0  0  0  0  0  0
  158.6772  141.3671  181.5033 C   0  0  0  0  0  0  0  0  0  0  0  0
  158.4204  141.9793  180.2044 N   0  0  0  0  0  0  0  0  0  0  0  0
  158.0157  142.9261  180.4226 H   0  0  0  0  0  0  0  0  0  0  0  0
  157.7224  141.4572  179.6685 H   0  0  0  0  0  0  0  0  0  0  0  0
  159.7969  141.9801  182.2580 C   0  0  0  0  0  0  0  0  0  0  0  0
  160.5309  141.1646  183.2391 C   0  0  0  0  0  0  0  0  0  0  0  0
  160.5853  141.7618  184.5649 C   0  0  0  0  0  0  0  0  0  0  0  0
  161.7571  142.4156  184.9427 C   0  0  0  0  0  0  0  0  0  0  0  0
  161.8079  143.0181  186.1704 C   0  0  0  0  0  0  0  0  0  0  0  0
  160.7144  142.9776  187.0200 C   0  0  0  0  0  0  0  0  0  0  0  0
  159.5693  142.3271  186.6266 C   0  0  0  0  0  0  0  0  0  0  0  0
  159.4915  141.7164  185.4041 C   0  0  0  0  0  0  0  0  0  0  0  0
  154.9950  139.7995  184.0671 C   0  0  0  0  0  0  0  0  0  0  0  0
  155.8388  138.8308  183.9709 O   0  0  0  0  0  0  0  0  0  0  0  0
  153.9331  139.5811  184.9457 N   0  0  0  0  0  0  0  0  0  0  0  0
  153.1570  140.2119  185.1813 H   0  0  0  0  0  0  0  0  0  0  0  0
  153.8735  138.2853  185.6666 C   0  0  0  0  0  0  0  0  0  0  0  0
  153.0755  137.3802  184.8384 C   0  0  0  0  0  0  0  0  0  0  0  0
  153.6055  136.5922  183.8485 O   0  0  0  0  0  0  0  0  0  0  0  0
  151.8282  137.2993  185.0172 O   0  0  0  0  0  0  0  0  0  0  0  0
  153.1072  136.4781  182.9815 H   0  0  0  0  0  0  0  0  0  0  0  0
  153.3203  138.4947  187.0298 C   0  0  0  0  0  0  0  0  0  0  0  0
  154.3028  138.3177  188.1070 C   0  0  0  0  0  0  0  0  0  0  0  0
  155.5440  137.7761  187.8050 C   0  0  0  0  0  0  0  0  0  0  0  0
  156.5269  137.6097  188.7395 C   0  0  0  0  0  0  0  0  0  0  0  0
  156.2867  137.9922  190.0396 C   0  0  0  0  0  0  0  0  0  0  0  0
  155.0585  138.5366  190.3759 C   0  0  0  0  0  0  0  0  0  0  0  0
  154.0844  138.6944  189.4176 C   0  0  0  0  0  0  0  0  0  0  0  0
  154.2236  141.3425  182.2309 C   0  0  0  0  0  0  0  0  0  0  0  0
  153.1733  140.2430  182.1287 C   0  0  0  0  0  0  0  0  0  0  0  0
  154.1200  143.3103  183.7153 C   0  0  0  0  0  0  0  0  0  0  0  0
  153.5368  142.6592  182.4788 C   0  0  0  0  0  0  0  0  0  0  0  0
 36 37  1  0  0  0
 37 34  1  0  0  0
 34 35  1  0  0  0
 34  1  1  0  0  0
  1  2  1  0  0  0
  2  3  1  0  0  0
  3  4  2  0  0  0
  3  6  1  0  0  0
  6  7  1  0  0  0
  6 10  1  0  0  0
 10 11  1  0  0  0
 11 12  1  0  0  0
 12 13  2  0  0  0
 13 14  1  0  0  0
 14 15  2  0  0  0
 15 16  1  0  0  0
 16 17  2  0  0  0
  1 18  1  0  0  0
 18 19  2  0  0  0
 18 20  1  0  0  0
 20 22  1  0  0  0
 22 27  1  0  0  0
 27 28  1  0  0  0
 28 29  2  0  0  0
 29 30  1  0  0  0
 30 31  2  0  0  0
 31 32  1  0  0  0
 32 33  2  0  0  0
 22 23  1  0  0  0
 23 24  1  0  0  0
 23 25  2  0  0  0
 17 12  1  0  0  0
 33 28  1  0  0  0
  2  5  1  0  0  0
  7  8  1  0  0  0
  7  9  1  0  0  0
 20 21  1  0  0  0
 24 26  1  0  0  0
M  END
> <minimizedAffinity>
-8.99274

> <CNNscore>
0.2387115061

> <CNNaffinity>
6.2008314133

> <CNN_VS>
1.4802098274

> <CNNaffinity_variance>
0.1638782322

$$$$
[H]c1nc2c(-c3c([H])c([H])c([H])c4c([H])c([H])c(N([H])C(=O)c5sc6c([H])c([H])c(C(=O)OC([H])([H])[H])c([H])c6c5[H])c([H])c34)c([H])c([H])nc2c([H])c1[H]


 37 42  0  0  0  0  0  0  0  0999 V2000
  153.2000  137.5306  188.4364 C   0  0  0  0  0  0  0  0  0  0  0  0
  154.3594  138.0042  189.0925 C   0  0  0  0  0  0  0  0  0  0  0  0
  154.6587  137.6460  190.3727 C   0  0  0  0  0  0  0  0  0  0  0  0
  153.8081  136.7907  191.0650 C   0  0  0  0  0  0  0  0  0  0  0  0
  154.1311  136.4533  192.3870 C   0  0  0  0  0  0  0  0  0  0  0  0
  153.2756  135.6208  193.0678 C   0  0  0  0  0  0  0  0  0  0  0  0
  152.1341  135.1091  192.5217 C   0  0  0  0  0  0  0  0  0  0  0  0
  151.8484  135.4746  191.1870 C   0  0  0  0  0  0  0  0  0  0  0  0
  152.6673  136.3064  190.4589 C   0  0  0  0  0  0  0  0  0  0  0  0
  152.3977  136.7052  189.1345 C   0  0  0  0  0  0  0  0  0  0  0  0
  150.6877  134.8820  190.5724 C   0  0  0  0  0  0  0  0  0  0  0  0
  149.4810  135.5192  190.4579 C   0  0  0  0  0  0  0  0  0  0  0  0
  148.4242  134.9413  189.7987 C   0  0  0  0  0  0  0  0  0  0  0  0
  148.5816  133.7242  189.2553 N   0  0  0  0  0  0  0  0  0  0  0  0
  149.7674  133.0743  189.3559 C   0  0  0  0  0  0  0  0  0  0  0  0
  149.9207  131.8188  188.7905 C   0  0  0  0  0  0  0  0  0  0  0  0
  151.1163  131.1307  188.8748 C   0  0  0  0  0  0  0  0  0  0  0  0
  152.1599  131.7175  189.5348 C   0  0  0  0  0  0  0  0  0  0  0  0
  151.9922  132.9294  190.0729 N   0  0  0  0  0  0  0  0  0  0  0  0
  150.8349  133.6358  190.0112 C   0  0  0  0  0  0  0  0  0  0  0  0
  153.4555  137.4108  185.9506 C   0  0  0  0  0  0  0  0  0  0  0  0
  154.2566  136.4177  185.9447 O   0  0  0  0  0  0  0  0  0  0  0  0
  152.9476  137.9492  187.1150 N   0  0  0  0  0  0  0  0  0  0  0  0
  152.2766  138.7875  186.9684 H   0  0  0  0  0  0  0  0  0  0  0  0
  150.8718  138.8541  180.5507 C   0  0  0  0  0  0  0  0  0  0  0  0
  151.8138  139.8013  180.2437 C   0  0  0  0  0  0  0  0  0  0  0  0
  152.8139  139.9870  181.1714 C   0  0  0  0  0  0  0  0  0  0  0  0
  152.8542  139.2388  182.3630 C   0  0  0  0  0  0  0  0  0  0  0  0
  153.8875  139.1775  183.7237 S   0  0  0  0  0  0  0  0  0  0  0  0
  153.0917  137.9674  184.6164 C   0  0  0  0  0  0  0  0  0  0  0  0
  152.0311  137.6385  183.8223 C   0  0  0  0  0  0  0  0  0  0  0  0
  151.9072  138.2961  182.6562 C   0  0  0  0  0  0  0  0  0  0  0  0
  150.8988  138.1283  181.6914 C   0  0  0  0  0  0  0  0  0  0  0  0
  149.7727  138.6367  179.5778 C   0  0  0  0  0  0  0  0  0  0  0  0
  149.7215  139.2606  178.4913 O   0  0  0  0  0  0  0  0  0  0  0  0
  147.9052  137.2518  178.8741 C   0  0  0  0  0  0  0  0  0  0  0  0
  148.7841  137.7327  179.8627 O   0  0  0  0  0  0  0  0  0  0  0  0
 36 37  1  0  0  0
 37 34  1  0  0  0
 34 35  2  0  0  0
 34 25  1  0  0  0
 25 26  2  0  0  0
 26 27  1  0  0  0
 27 28  2  0  0  0
 28 29  1  0  0  0
 29 30  1  0  0  0
 30 31  2  0  0  0
 31 32  1  0  0  0
 32 33  2  0  0  0
 30 21  1  0  0  0
 21 22  2  0  0  0
 21 23  1  0  0  0
 23  1  1  0  0  0
  1  2  2  0  0  0
  2  3  1  0  0  0
  3  4  2  0  0  0
  4  5  1  0  0  0
  5  6  2  0  0  0
  6  7  1  0  0  0
  7  8  2  0  0  0
  8  9  1  0  0  0
  9 10  2  0  0  0
  8 11  1  0  0  0
 11 12  2  0  0  0
 12 13  1  0  0  0
 13 14  2  0  0  0
 14 15  1  0  0  0
 15 16  2  0  0  0
 16 17  1  0  0  0
 17 18  2  0  0  0
 18 19  1  0  0  0
 19 20  2  0  0  0
 33 25  1  0  0  0
 10  1  1  0  0  0
 20 11  1  0  0  0
 32 28  1  0  0  0
  9  4  1  0  0  0
 20 15  1  0  0  0
 23 24  1  0  0  0
M  END
> <minimizedAffinity>
-6.85469

> <CNNscore>
0.1911298782

> <CNNaffinity>
5.8434319496

> <CNN_VS>
1.1168544292

> <CNNaffinity_variance>
0.1749170125

$$$$
[H]c1nc2c(-c3c([H])c([H])c([H])c4c([H])c([H])c(N([H])C(=O)c5sc6c([H])c([H])c(C(=O)OC([H])([H])[H])c([H])c6c5[H])c([H])c34)c([H])c([H])nc2c([H])c1[H]


 37 42  0  0  0  0  0  0  0  0999 V2000
  153.1016  138.8455  183.5547 C   0  0  0  0  0  0  0  0  0  0  0  0
  153.7560  139.8817  182.8500 C   0  0  0  0  0  0  0  0  0  0  0  0
  153.3239  140.3062  181.6293 C   0  0  0  0  0  0  0  0  0  0  0  0
  152.2084  139.7118  181.0490 C   0  0  0  0  0  0  0  0  0  0  0  0
  151.7967  140.1559  179.7844 C   0  0  0  0  0  0  0  0  0  0  0  0
  150.7035  139.5508  179.2126 C   0  0  0  0  0  0  0  0  0  0  0  0
  150.0029  138.5451  179.8133 C   0  0  0  0  0  0  0  0  0  0  0  0
  150.4523  138.1300  181.0871 C   0  0  0  0  0  0  0  0  0  0  0  0
  151.5420  138.6979  181.7058 C   0  0  0  0  0  0  0  0  0  0  0  0
  152.0259  138.2909  182.9651 C   0  0  0  0  0  0  0  0  0  0  0  0
  149.6779  137.1225  181.7662 C   0  0  0  0  0  0  0  0  0  0  0  0
  149.8876  135.7772  181.6195 C   0  0  0  0  0  0  0  0  0  0  0  0
  149.1718  134.8562  182.3441 C   0  0  0  0  0  0  0  0  0  0  0  0
  148.2466  135.2885  183.2150 N   0  0  0  0  0  0  0  0  0  0  0  0
  148.0219  136.6157  183.3773 C   0  0  0  0  0  0  0  0  0  0  0  0
  147.0657  137.0524  184.2798 C   0  0  0  0  0  0  0  0  0  0  0  0
  146.8132  138.3980  184.4689 C   0  0  0  0  0  0  0  0  0  0  0  0
  147.5325  139.3038  183.7404 C   0  0  0  0  0  0  0  0  0  0  0  0
  148.4509  138.8627  182.8752 N   0  0  0  0  0  0  0  0  0  0  0  0
  148.7272  137.5511  182.6617 C   0  0  0  0  0  0  0  0  0  0  0  0
  154.1814  137.2401  185.1408 C   0  0  0  0  0  0  0  0  0  0  0  0
  154.3215  136.2917  184.2989 O   0  0  0  0  0  0  0  0  0  0  0  0
  153.6084  138.4505  184.8086 N   0  0  0  0  0  0  0  0  0  0  0  0
  153.5577  139.1635  185.6231 H   0  0  0  0  0  0  0  0  0  0  0  0
  156.7776  135.0002  190.2556 C   0  0  0  0  0  0  0  0  0  0  0  0
  156.3732  136.0515  191.0367 C   0  0  0  0  0  0  0  0  0  0  0  0
  155.6412  137.0317  190.4052 C   0  0  0  0  0  0  0  0  0  0  0  0
  155.3328  136.9456  189.0345 C   0  0  0  0  0  0  0  0  0  0  0  0
  154.4843  137.9227  187.9174 S   0  0  0  0  0  0  0  0  0  0  0  0
  154.6752  136.9694  186.5211 C   0  0  0  0  0  0  0  0  0  0  0  0
  155.4019  135.9031  186.9666 C   0  0  0  0  0  0  0  0  0  0  0  0
  155.7430  135.8901  188.2670 C   0  0  0  0  0  0  0  0  0  0  0  0
  156.4881  134.9050  188.9381 C   0  0  0  0  0  0  0  0  0  0  0  0
  157.5787  133.9315  190.9019 C   0  0  0  0  0  0  0  0  0  0  0  0
  158.0306  134.0586  192.0647 O   0  0  0  0  0  0  0  0  0  0  0  0
  159.0849  132.1256  190.2926 C   0  0  0  0  0  0  0  0  0  0  0  0
  157.8364  132.7715  190.2208 O   0  0  0  0  0  0  0  0  0  0  0  0
 36 37  1  0  0  0
 37 34  1  0  0  0
 34 35  2  0  0  0
 34 25  1  0  0  0
 25 26  2  0  0  0
 26 27  1  0  0  0
 27 28  2  0  0  0
 28 29  1  0  0  0
 29 30  1  0  0  0
 30 31  2  0  0  0
 31 32  1  0  0  0
 32 33  2  0  0  0
 30 21  1  0  0  0
 21 22  2  0  0  0
 21 23  1  0  0  0
 23  1  1  0  0  0
  1  2  2  0  0  0
  2  3  1  0  0  0
  3  4  2  0  0  0
  4  5  1  0  0  0
  5  6  2  0  0  0
  6  7  1  0  0  0
  7  8  2  0  0  0
  8  9  1  0  0  0
  9 10  2  0  0  0
  8 11  1  0  0  0
 11 12  2  0  0  0
 12 13  1  0  0  0
 13 14  2  0  0  0
 14 15  1  0  0  0
 15 16  2  0  0  0
 16 17  1  0  0  0
 17 18  2  0  0  0
 18 19  1  0  0  0
 19 20  2  0  0  0
 33 25  1  0  0  0
 10  1  1  0  0  0
 20 11  1  0  0  0
 32 28  1  0  0  0
  9  4  1  0  0  0
 20 15  1  0  0  0
 23 24  1  0  0  0
M  END
> <minimizedAffinity>
-7.47493

> <CNNscore>
0.1885820329

> <CNNaffinity>
5.8326735497

> <CNN_VS>
1.0999374390

> <CNNaffinity_variance>
0.0855716914

$$$$
[H]c1nc2c(-c3c([H])c([H])c([H])c4c([H])c([H])c(N([H])C(=O)c5sc6c([H])c([H])c(C(=O)OC([H])([H])[H])c([H])c6c5[H])c([H])c34)c([H])c([H])nc2c([H])c1[H]


 37 42  0  0  0  0  0  0  0  0999 V2000
  151.6892  139.2650  181.2125 C   0  0  0  0  0  0  0  0  0  0  0  0
  151.6600  139.3082  179.7997 C   0  0  0  0  0  0  0  0  0  0  0  0
  150.5114  139.0991  179.0970 C   0  0  0  0  0  0  0  0  0  0  0  0
  149.3270  138.8350  179.7766 C   0  0  0  0  0  0  0  0  0  0  0  0
  148.1639  138.6059  179.0279 C   0  0  0  0  0  0  0  0  0  0  0  0
  147.0025  138.3296  179.7084 C   0  0  0  0  0  0  0  0  0  0  0  0
  146.9272  138.2687  181.0699 C   0  0  0  0  0  0  0  0  0  0  0  0
  148.1230  138.5070  181.7841 C   0  0  0  0  0  0  0  0  0  0  0  0
  149.3145  138.7855  181.1553 C   0  0  0  0  0  0  0  0  0  0  0  0
  150.5264  139.0064  181.8396 C   0  0  0  0  0  0  0  0  0  0  0  0
  148.0430  138.5213  183.2227 C   0  0  0  0  0  0  0  0  0  0  0  0
  147.6115  139.5997  183.9481 C   0  0  0  0  0  0  0  0  0  0  0  0
  147.4831  139.5407  185.3139 C   0  0  0  0  0  0  0  0  0  0  0  0
  147.7883  138.3982  185.9487 N   0  0  0  0  0  0  0  0  0  0  0  0
  148.2173  137.3174  185.2513 C   0  0  0  0  0  0  0  0  0  0  0  0
  148.5286  136.1420  185.9153 C   0  0  0  0  0  0  0  0  0  0  0  0
  148.9678  135.0228  185.2336 C   0  0  0  0  0  0  0  0  0  0  0  0
  149.0918  135.0958  183.8741 C   0  0  0  0  0  0  0  0  0  0  0  0
  148.7861  136.2385  183.2519 N   0  0  0  0  0  0  0  0  0  0  0  0
  148.3522  137.3575  183.8858 C   0  0  0  0  0  0  0  0  0  0  0  0
  153.4904  140.6911  182.2029 C   0  0  0  0  0  0  0  0  0  0  0  0
  152.9444  141.8104  181.9258 O   0  0  0  0  0  0  0  0  0  0  0  0
  152.9142  139.4812  181.8742 N   0  0  0  0  0  0  0  0  0  0  0  0
  153.4884  138.6125  182.1741 H   0  0  0  0  0  0  0  0  0  0  0  0
  159.0639  142.1314  184.3894 C   0  0  0  0  0  0  0  0  0  0  0  0
  159.1109  141.0613  185.2447 C   0  0  0  0  0  0  0  0  0  0  0  0
  158.0164  140.2262  185.2342 C   0  0  0  0  0  0  0  0  0  0  0  0
  156.9187  140.4698  184.3874 C   0  0  0  0  0  0  0  0  0  0  0  0
  155.4197  139.7026  184.0918 S   0  0  0  0  0  0  0  0  0  0  0  0
  154.8013  140.7583  182.9095 C   0  0  0  0  0  0  0  0  0  0  0  0
  155.7896  141.6902  182.7738 C   0  0  0  0  0  0  0  0  0  0  0  0
  156.8855  141.5419  183.5384 C   0  0  0  0  0  0  0  0  0  0  0  0
  158.0160  142.3768  183.5706 C   0  0  0  0  0  0  0  0  0  0  0  0
  160.2223  143.0586  184.3837 C   0  0  0  0  0  0  0  0  0  0  0  0
  160.1563  144.1922  183.8517 O   0  0  0  0  0  0  0  0  0  0  0  0
  161.7930  143.1629  186.2337 C   0  0  0  0  0  0  0  0  0  0  0  0
  161.3985  142.6775  184.9729 O   0  0  0  0  0  0  0  0  0  0  0  0
 36 37  1  0  0  0
 37 34  1  0  0  0
 34 35  2  0  0  0
 34 25  1  0  0  0
 25 26  2  0  0  0
 26 27  1  0  0  0
 27 28  2  0  0  0
 28 29  1  0  0  0
 29 30  1  0  0  0
 30 31  2  0  0  0
 31 32  1  0  0  0
 32 33  2  0  0  0
 30 21  1  0  0  0
 21 22  2  0  0  0
 21 23  1  0  0  0
 23  1  1  0  0  0
  1  2  2  0  0  0
  2  3  1  0  0  0
  3  4  2  0  0  0
  4  5  1  0  0  0
  5  6  2  0  0  0
  6  7  1  0  0  0
  7  8  2  0  0  0
  8  9  1  0  0  0
  9 10  2  0  0  0
  8 11  1  0  0  0
 11 12  2  0  0  0
 12 13  1  0  0  0
 13 14  2  0  0  0
 14 15  1  0  0  0
 15 16  2  0  0  0
 16 17  1  0  0  0
 17 18  2  0  0  0
 18 19  1  0  0  0
 19 20  2  0  0  0
 33 25  1  0  0  0
 10  1  1  0  0  0
 20 11  1  0  0  0
 32 28  1  0  0  0
  9  4  1  0  0  0
 20 15  1  0  0  0
 23 24  1  0  0  0
M  END
> <minimizedAffinity>
-9.41089

> <CNNscore>
0.1750705093

> <CNNaffinity>
6.2346639633

> <CNN_VS>
1.0915057659

> <CNNaffinity_variance>
0.0926070213

$$$$
[H]c1nc2c(-c3c([H])c([H])c([H])c4c([H])c([H])c(N([H])C(=O)c5sc6c([H])c([H])c(C(=O)OC([H])([H])[H])c([H])c6c5[H])c([H])c34)c([H])c([H])nc2c([H])c1[H]


 37 42  0  0  0  0  0  0  0  0999 V2000
  152.4376  139.7234  181.0104 C   0  0  0  0  0  0  0  0  0  0  0  0
  151.5347  140.3611  180.1291 C   0  0  0  0  0  0  0  0  0  0  0  0
  150.3692  139.7706  179.7418 C   0  0  0  0  0  0  0  0  0  0  0  0
  150.0466  138.5051  180.2198 C   0  0  0  0  0  0  0  0  0  0  0  0
  148.8499  137.9138  179.7907 C   0  0  0  0  0  0  0  0  0  0  0  0
  148.5483  136.6565  180.2559 C   0  0  0  0  0  0  0  0  0  0  0  0
  149.3526  135.9602  181.1112 C   0  0  0  0  0  0  0  0  0  0  0  0
  150.5478  136.5945  181.5183 C   0  0  0  0  0  0  0  0  0  0  0  0
  150.9015  137.8506  181.0825 C   0  0  0  0  0  0  0  0  0  0  0  0
  152.0960  138.4993  181.4542 C   0  0  0  0  0  0  0  0  0  0  0  0
  151.3692  135.9040  182.4798 C   0  0  0  0  0  0  0  0  0  0  0  0
  152.4454  135.1281  182.1404 C   0  0  0  0  0  0  0  0  0  0  0  0
  153.2424  134.5488  183.0968 C   0  0  0  0  0  0  0  0  0  0  0  0
  152.9569  134.7502  184.3927 N   0  0  0  0  0  0  0  0  0  0  0  0
  151.8967  135.5149  184.7526 C   0  0  0  0  0  0  0  0  0  0  0  0
  151.6108  135.7182  186.0929 C   0  0  0  0  0  0  0  0  0  0  0  0
  150.5380  136.4926  186.4924 C   0  0  0  0  0  0  0  0  0  0  0  0
  149.7525  137.0626  185.5298 C   0  0  0  0  0  0  0  0  0  0  0  0
  150.0450  136.8550  184.2422 N   0  0  0  0  0  0  0  0  0  0  0  0
  151.0885  136.1018  183.8109 C   0  0  0  0  0  0  0  0  0  0  0  0
  154.2289  140.4403  182.6031 C   0  0  0  0  0  0  0  0  0  0  0  0
  153.7399  139.8580  183.6277 O   0  0  0  0  0  0  0  0  0  0  0  0
  153.6291  140.3885  181.3616 N   0  0  0  0  0  0  0  0  0  0  0  0
  154.1575  140.9265  180.5833 H   0  0  0  0  0  0  0  0  0  0  0  0
  159.8279  142.4205  184.2305 C   0  0  0  0  0  0  0  0  0  0  0  0
  159.7251  143.5904  183.5236 C   0  0  0  0  0  0  0  0  0  0  0  0
  158.5448  143.7876  182.8429 C   0  0  0  0  0  0  0  0  0  0  0  0
  157.5108  142.8333  182.8802 C   0  0  0  0  0  0  0  0  0  0  0  0
  155.9517  142.7050  182.1906 S   0  0  0  0  0  0  0  0  0  0  0  0
  155.4989  141.1903  182.8192 C   0  0  0  0  0  0  0  0  0  0  0  0
  156.5854  140.8204  183.5586 C   0  0  0  0  0  0  0  0  0  0  0  0
  157.6271  141.6699  183.5904 C   0  0  0  0  0  0  0  0  0  0  0  0
  158.8423  141.4957  184.2751 C   0  0  0  0  0  0  0  0  0  0  0  0
  161.0918  142.1705  184.9666 C   0  0  0  0  0  0  0  0  0  0  0  0
  162.1063  141.7056  184.3948 O   0  0  0  0  0  0  0  0  0  0  0  0
  162.3543  142.8964  186.9108 C   0  0  0  0  0  0  0  0  0  0  0  0
  161.1640  142.4523  186.3049 O   0  0  0  0  0  0  0  0  0  0  0  0
 36 37  1  0  0  0
 37 34  1  0  0  0
 34 35  2  0  0  0
 34 25  1  0  0  0
 25 26  2  0  0  0
 26 27  1  0  0  0
 27 28  2  0  0  0
 28 29  1  0  0  0
 29 30  1  0  0  0
 30 31  2  0  0  0
 31 32  1  0  0  0
 32 33  2  0  0  0
 30 21  1  0  0  0
 21 22  2  0  0  0
 21 23  1  0  0  0
 23  1  1  0  0  0
  1  2  2  0  0  0
  2  3  1  0  0  0
  3  4  2  0  0  0
  4  5  1  0  0  0
  5  6  2  0  0  0
  6  7  1  0  0  0
  7  8  2  0  0  0
  8  9  1  0  0  0
  9 10  2  0  0  0
  8 11  1  0  0  0
 11 12  2  0  0  0
 12 13  1  0  0  0
 13 14  2  0  0  0
 14 15  1  0  0  0
 15 16  2  0  0  0
 16 17  1  0  0  0
 17 18  2  0  0  0
 18 19  1  0  0  0
 19 20  2  0  0  0
 33 25  1  0  0  0
 10  1  1  0  0  0
 20 11  1  0  0  0
 32 28  1  0  0  0
  9  4  1  0  0  0
 20 15  1  0  0  0
 23 24  1  0  0  0
M  END
> <minimizedAffinity>
-9.26429

> <CNNscore>
0.1729707718

> <CNNaffinity>
6.3331789970

> <CNN_VS>
1.0954548120

> <CNNaffinity_variance>
0.0927241817

$$$$
[H]c1nc2c(-c3c([H])c([H])c([H])c4c([H])c([H])c(N([H])C(=O)c5sc6c([H])c([H])c(C(=O)OC([H])([H])[H])c([H])c6c5[H])c([H])c34)c([H])c([H])nc2c([H])c1[H]


 37 42  0  0  0  0  0  0  0  0999 V2000
  151.1949  139.6557  180.8292 C   0  0  0  0  0  0  0  0  0  0  0  0
  150.9106  139.6052  179.4453 C   0  0  0  0  0  0  0  0  0  0  0  0
  149.7728  139.0293  178.9650 C   0  0  0  0  0  0  0  0  0  0  0  0
  148.8566  138.4719  179.8505 C   0  0  0  0  0  0  0  0  0  0  0  0
  147.7033  137.8700  179.3276 C   0  0  0  0  0  0  0  0  0  0  0  0
  146.8125  137.3076  180.2100 C   0  0  0  0  0  0  0  0  0  0  0  0
  146.9951  137.3077  181.5627 C   0  0  0  0  0  0  0  0  0  0  0  0
  148.1704  137.9259  182.0456 C   0  0  0  0  0  0  0  0  0  0  0  0
  149.0977  138.5022  181.2086 C   0  0  0  0  0  0  0  0  0  0  0  0
  150.2882  139.1067  181.6592 C   0  0  0  0  0  0  0  0  0  0  0  0
  148.3395  138.0009  183.4745 C   0  0  0  0  0  0  0  0  0  0  0  0
  147.7183  138.9313  184.2644 C   0  0  0  0  0  0  0  0  0  0  0  0
  147.8532  138.9173  185.6307 C   0  0  0  0  0  0  0  0  0  0  0  0
  148.6118  137.9685  186.2014 N   0  0  0  0  0  0  0  0  0  0  0  0
  149.2363  137.0368  185.4395 C   0  0  0  0  0  0  0  0  0  0  0  0
  150.0162  136.0604  186.0378 C   0  0  0  0  0  0  0  0  0  0  0  0
  150.6650  135.0964  185.2895 C   0  0  0  0  0  0  0  0  0  0  0  0
  150.5228  135.1227  183.9301 C   0  0  0  0  0  0  0  0  0  0  0  0
  149.7657  136.0723  183.3720 N   0  0  0  0  0  0  0  0  0  0  0  0
  149.1136  137.0349  184.0723 C   0  0  0  0  0  0  0  0  0  0  0  0
  153.2338  139.8389  182.2674 C   0  0  0  0  0  0  0  0  0  0  0  0
  152.9985  138.7993  182.9687 O   0  0  0  0  0  0  0  0  0  0  0  0
  152.3951  140.2583  181.2553 N   0  0  0  0  0  0  0  0  0  0  0  0
  152.7220  141.1550  180.7420 H   0  0  0  0  0  0  0  0  0  0  0  0
  158.4881  141.9862  184.6546 C   0  0  0  0  0  0  0  0  0  0  0  0
  158.6165  142.9832  183.7227 C   0  0  0  0  0  0  0  0  0  0  0  0
  157.6219  143.0602  182.7740 C   0  0  0  0  0  0  0  0  0  0  0  0
  156.5402  142.1595  182.7736 C   0  0  0  0  0  0  0  0  0  0  0  0
  155.1557  141.9253  181.7984 S   0  0  0  0  0  0  0  0  0  0  0  0
  154.4784  140.5877  182.6026 C   0  0  0  0  0  0  0  0  0  0  0  0
  155.3574  140.3565  183.6212 C   0  0  0  0  0  0  0  0  0  0  0  0
  156.4248  141.1691  183.7103 C   0  0  0  0  0  0  0  0  0  0  0  0
  157.4542  141.1147  184.6659 C   0  0  0  0  0  0  0  0  0  0  0  0
  159.5491  141.8673  185.6851 C   0  0  0  0  0  0  0  0  0  0  0  0
  159.2770  141.6393  186.8877 O   0  0  0  0  0  0  0  0  0  0  0  0
  161.7138  142.9369  185.9512 C   0  0  0  0  0  0  0  0  0  0  0  0
  160.8630  142.0071  185.3246 O   0  0  0  0  0  0  0  0  0  0  0  0
 36 37  1  0  0  0
 37 34  1  0  0  0
 34 35  2  0  0  0
 34 25  1  0  0  0
 25 26  2  0  0  0
 26 27  1  0  0  0
 27 28  2  0  0  0
 28 29  1  0  0  0
 29 30  1  0  0  0
 30 31  2  0  0  0
 31 32  1  0  0  0
 32 33  2  0  0  0
 30 21  1  0  0  0
 21 22  2  0  0  0
 21 23  1  0  0  0
 23  1  1  0  0  0
  1  2  2  0  0  0
  2  3  1  0  0  0
  3  4  2  0  0  0
  4  5  1  0  0  0
  5  6  2  0  0  0
  6  7  1  0  0  0
  7  8  2  0  0  0
  8  9  1  0  0  0
  9 10  2  0  0  0
  8 11  1  0  0  0
 11 12  2  0  0  0
 12 13  1  0  0  0
 13 14  2  0  0  0
 14 15  1  0  0  0
 15 16  2  0  0  0
 16 17  1  0  0  0
 17 18  2  0  0  0
 18 19  1  0  0  0
 19 20  2  0  0  0
 33 25  1  0  0  0
 10  1  1  0  0  0
 20 11  1  0  0  0
 32 28  1  0  0  0
  9  4  1  0  0  0
 20 15  1  0  0  0
 23 24  1  0  0  0
M  END
> <minimizedAffinity>
-8.57492

> <CNNscore>
0.1721089780

> <CNNaffinity>
6.2605714798

> <CNN_VS>
1.0775005817

> <CNNaffinity_variance>
0.0747768357

$$$$
[H]c1nc2c(-c3c([H])c([H])c([H])c4c([H])c([H])c(N([H])C(=O)c5sc6c([H])c([H])c(C(=O)OC([H])([H])[H])c([H])c6c5[H])c([H])c34)c([H])c([H])nc2c([H])c1[H]


 37 42  0  0  0  0  0  0  0  0999 V2000
  152.3510  139.7413  180.9289 C   0  0  0  0  0  0  0  0  0  0  0  0
  151.7524  140.1939  179.7308 C   0  0  0  0  0  0  0  0  0  0  0  0
  150.5834  139.6687  179.2675 C   0  0  0  0  0  0  0  0  0  0  0  0
  149.9508  138.6584  179.9841 C   0  0  0  0  0  0  0  0  0  0  0  0
  148.7588  138.1239  179.4748 C   0  0  0  0  0  0  0  0  0  0  0  0
  148.1504  137.1148  180.1818 C   0  0  0  0  0  0  0  0  0  0  0  0
  148.6472  136.6117  181.3492 C   0  0  0  0  0  0  0  0  0  0  0  0
  149.8497  137.1805  181.8260 C   0  0  0  0  0  0  0  0  0  0  0  0
  150.5031  138.1905  181.1585 C   0  0  0  0  0  0  0  0  0  0  0  0
  151.7138  138.7622  181.5980 C   0  0  0  0  0  0  0  0  0  0  0  0
  150.3456  136.7125  183.0953 C   0  0  0  0  0  0  0  0  0  0  0  0
  151.4892  135.9727  183.2372 C   0  0  0  0  0  0  0  0  0  0  0  0
  151.9612  135.6117  184.4751 C   0  0  0  0  0  0  0  0  0  0  0  0
  151.2835  135.9948  185.5684 N   0  0  0  0  0  0  0  0  0  0  0  0
  150.1489  136.7280  185.4524 C   0  0  0  0  0  0  0  0  0  0  0  0
  149.4570  137.1201  186.5869 C   0  0  0  0  0  0  0  0  0  0  0  0
  148.2980  137.8682  186.5026 C   0  0  0  0  0  0  0  0  0  0  0  0
  147.8389  138.2199  185.2640 C   0  0  0  0  0  0  0  0  0  0  0  0
  148.5209  137.8325  184.1817 N   0  0  0  0  0  0  0  0  0  0  0  0
  149.6615  137.0980  184.2236 C   0  0  0  0  0  0  0  0  0  0  0  0
  154.1725  140.2118  182.5781 C   0  0  0  0  0  0  0  0  0  0  0  0
  153.6695  139.5314  183.5330 O   0  0  0  0  0  0  0  0  0  0  0  0
  153.5654  140.3227  181.3441 N   0  0  0  0  0  0  0  0  0  0  0  0
  154.1075  140.9295  180.6283 H   0  0  0  0  0  0  0  0  0  0  0  0
  159.4189  142.3545  184.9870 C   0  0  0  0  0  0  0  0  0  0  0  0
  159.7609  143.0582  183.8615 C   0  0  0  0  0  0  0  0  0  0  0  0
  158.8763  142.9885  182.8089 C   0  0  0  0  0  0  0  0  0  0  0  0
  157.6915  142.2338  182.8979 C   0  0  0  0  0  0  0  0  0  0  0  0
  156.3841  141.8983  181.8487 S   0  0  0  0  0  0  0  0  0  0  0  0
  155.4677  140.8905  182.8682 C   0  0  0  0  0  0  0  0  0  0  0  0
  156.2116  140.8420  184.0118 C   0  0  0  0  0  0  0  0  0  0  0  0
  157.3627  141.5365  184.0280 C   0  0  0  0  0  0  0  0  0  0  0  0
  158.2840  141.6259  185.0860 C   0  0  0  0  0  0  0  0  0  0  0  0
  160.3560  142.3982  186.1367 C   0  0  0  0  0  0  0  0  0  0  0  0
  159.9449  142.4395  187.3206 O   0  0  0  0  0  0  0  0  0  0  0  0
  162.6312  142.7649  186.9047 C   0  0  0  0  0  0  0  0  0  0  0  0
  161.7068  142.3926  185.9107 O   0  0  0  0  0  0  0  0  0  0  0  0
 36 37  1  0  0  0
 37 34  1  0  0  0
 34 35  2  0  0  0
 34 25  1  0  0  0
 25 26  2  0  0  0
 26 27  1  0  0  0
 27 28  2  0  0  0
 28 29  1  0  0  0
 29 30  1  0  0  0
 30 31  2  0  0  0
 31 32  1  0  0  0
 32 33  2  0  0  0
 30 21  1  0  0  0
 21 22  2  0  0  0
 21 23  1  0  0  0
 23  1  1  0  0  0
  1  2  2  0  0  0
  2  3  1  0  0  0
  3  4  2  0  0  0
  4  5  1  0  0  0
  5  6  2  0  0  0
  6  7  1  0  0  0
  7  8  2  0  0  0
  8  9  1  0  0  0
  9 10  2  0  0  0
  8 11  1  0  0  0
 11 12  2  0  0  0
 12 13  1  0  0  0
 13 14  2  0  0  0
 14 15  1  0  0  0
 15 16  2  0  0  0
 16 17  1  0  0  0
 17 18  2  0  0  0
 18 19  1  0  0  0
 19 20  2  0  0  0
 33 25  1  0  0  0
 10  1  1  0  0  0
 20 11  1  0  0  0
 32 28  1  0  0  0
  9  4  1  0  0  0
 20 15  1  0  0  0
 23 24  1  0  0  0
M  END
> <minimizedAffinity>
-9.90278

> <CNNscore>
0.1710085124

> <CNNaffinity>
6.2661695480

> <CNN_VS>
1.0715683699

> <CNNaffinity_variance>
0.0940117985

$$$$
[H]c1nc2c(-c3c([H])c([H])c([H])c4c([H])c([H])c(N([H])C(=O)c5sc6c([H])c([H])c(C(=O)OC([H])([H])[H])c([H])c6c5[H])c([H])c34)c([H])c([H])nc2c([H])c1[H]


 37 42  0  0  0  0  0  0  0  0999 V2000
  151.1839  136.5770  182.7127 C   0  0  0  0  0  0  0  0  0  0  0  0
  150.6297  136.6271  181.4130 C   0  0  0  0  0  0  0  0  0  0  0  0
  149.4896  135.9540  181.0905 C   0  0  0  0  0  0  0  0  0  0  0  0
  148.8427  135.1925  182.0579 C   0  0  0  0  0  0  0  0  0  0  0  0
  147.6817  134.4959  181.6936 C   0  0  0  0  0  0  0  0  0  0  0  0
  147.0592  133.7334  182.6525 C   0  0  0  0  0  0  0  0  0  0  0  0
  147.5137  133.6230  183.9348 C   0  0  0  0  0  0  0  0  0  0  0  0
  148.6861  134.3427  184.2581 C   0  0  0  0  0  0  0  0  0  0  0  0
  149.3518  135.1193  183.3381 C   0  0  0  0  0  0  0  0  0  0  0  0
  150.5338  135.8307  183.6253 C   0  0  0  0  0  0  0  0  0  0  0  0
  149.1347  134.2968  185.6265 C   0  0  0  0  0  0  0  0  0  0  0  0
  150.1937  133.5405  186.0530 C   0  0  0  0  0  0  0  0  0  0  0  0
  150.6299  133.5859  187.3542 C   0  0  0  0  0  0  0  0  0  0  0  0
  150.0014  134.3912  188.2248 N   0  0  0  0  0  0  0  0  0  0  0  0
  148.9507  135.1494  187.8252 C   0  0  0  0  0  0  0  0  0  0  0  0
  148.3092  135.9787  188.7309 C   0  0  0  0  0  0  0  0  0  0  0  0
  147.2360  136.7643  188.3550 C   0  0  0  0  0  0  0  0  0  0  0  0
  146.8118  136.7086  187.0567 C   0  0  0  0  0  0  0  0  0  0  0  0
  147.4441  135.9027  186.1981 N   0  0  0  0  0  0  0  0  0  0  0  0
  148.5003  135.1171  186.5289 C   0  0  0  0  0  0  0  0  0  0  0  0
  152.5757  138.6503  182.8644 C   0  0  0  0  0  0  0  0  0  0  0  0
  151.6592  139.4561  182.4920 O   0  0  0  0  0  0  0  0  0  0  0  0
  152.3705  137.2903  182.9738 N   0  0  0  0  0  0  0  0  0  0  0  0
  153.2367  136.7292  183.3043 H   0  0  0  0  0  0  0  0  0  0  0  0
  157.8036  141.9010  183.0098 C   0  0  0  0  0  0  0  0  0  0  0  0
  158.2258  141.3508  184.1922 C   0  0  0  0  0  0  0  0  0  0  0  0
  157.3911  140.4141  184.7591 C   0  0  0  0  0  0  0  0  0  0  0  0
  156.1763  140.0515  184.1475 C   0  0  0  0  0  0  0  0  0  0  0  0
  154.9028  138.9741  184.5218 S   0  0  0  0  0  0  0  0  0  0  0  0
  153.8981  139.2621  183.1793 C   0  0  0  0  0  0  0  0  0  0  0  0
  154.5888  140.1995  182.4664 C   0  0  0  0  0  0  0  0  0  0  0  0
  155.7676  140.6088  182.9669 C   0  0  0  0  0  0  0  0  0  0  0  0
  156.6393  141.5615  182.4116 C   0  0  0  0  0  0  0  0  0  0  0  0
  158.6738  142.9229  182.3773 C   0  0  0  0  0  0  0  0  0  0  0  0
  158.8383  144.0560  182.8887 O   0  0  0  0  0  0  0  0  0  0  0  0
  159.0395  143.3168  180.0084 C   0  0  0  0  0  0  0  0  0  0  0  0
  159.3200  142.6316  181.2055 O   0  0  0  0  0  0  0  0  0  0  0  0
 36 37  1  0  0  0
 37 34  1  0  0  0
 34 35  2  0  0  0
 34 25  1  0  0  0
 25 26  2  0  0  0
 26 27  1  0  0  0
 27 28  2  0  0  0
 28 29  1  0  0  0
 29 30  1  0  0  0
 30 31  2  0  0  0
 31 32  1  0  0  0
 32 33  2  0  0  0
 30 21  1  0  0  0
 21 22  2  0  0  0
 21 23  1  0  0  0
 23  1  1  0  0  0
  1  2  2  0  0  0
  2  3  1  0  0  0
  3  4  2  0  0  0
  4  5  1  0  0  0
  5  6  2  0  0  0
  6  7  1  0  0  0
  7  8  2  0  0  0
  8  9  1  0  0  0
  9 10  2  0  0  0
  8 11  1  0  0  0
 11 12  2  0  0  0
 12 13  1  0  0  0
 13 14  2  0  0  0
 14 15  1  0  0  0
 15 16  2  0  0  0
 16 17  1  0  0  0
 17 18  2  0  0  0
 18 19  1  0  0  0
 19 20  2  0  0  0
 33 25  1  0  0  0
 10  1  1  0  0  0
 20 11  1  0  0  0
 32 28  1  0  0  0
  9  4  1  0  0  0
 20 15  1  0  0  0
 23 24  1  0  0  0
M  END
> <minimizedAffinity>
-5.88758

> <CNNscore>
0.1687332392

> <CNNaffinity>
6.2622694969

> <CNN_VS>
1.0566530228

> <CNNaffinity_variance>
0.7666102648

$$$$
[H]c1nc2c(-c3c([H])c([H])c([H])c4c([H])c([H])c(N([H])C(=O)c5sc6c([H])c([H])c(C(=O)OC([H])([H])[H])c([H])c6c5[H])c([H])c34)c([H])c([H])nc2c([H])c1[H]


 37 42  0  0  0  0  0  0  0  0999 V2000
  152.9662  139.8668  181.5207 C   0  0  0  0  0  0  0  0  0  0  0  0
  152.0438  140.4585  180.6275 C   0  0  0  0  0  0  0  0  0  0  0  0
  150.8686  139.8513  180.3000 C   0  0  0  0  0  0  0  0  0  0  0  0
  150.5553  138.6143  180.8532 C   0  0  0  0  0  0  0  0  0  0  0  0
  149.3479  138.0042  180.4846 C   0  0  0  0  0  0  0  0  0  0  0  0
  149.0554  136.7747  181.0240 C   0  0  0  0  0  0  0  0  0  0  0  0
  149.8783  136.1233  181.8967 C   0  0  0  0  0  0  0  0  0  0  0  0
  151.0838  136.7753  182.2410 C   0  0  0  0  0  0  0  0  0  0  0  0
  151.4292  138.0049  181.7297 C   0  0  0  0  0  0  0  0  0  0  0  0
  152.6331  138.6693  182.0379 C   0  0  0  0  0  0  0  0  0  0  0  0
  151.9264  136.1353  183.2189 C   0  0  0  0  0  0  0  0  0  0  0  0
  151.7627  136.2775  184.5711 C   0  0  0  0  0  0  0  0  0  0  0  0
  152.5455  135.5892  185.4649 C   0  0  0  0  0  0  0  0  0  0  0  0
  153.4914  134.7590  184.9987 N   0  0  0  0  0  0  0  0  0  0  0  0
  153.6716  134.6020  183.6640 C   0  0  0  0  0  0  0  0  0  0  0  0
  154.6497  133.7415  183.1923 C   0  0  0  0  0  0  0  0  0  0  0  0
  154.8580  133.5589  181.8383 C   0  0  0  0  0  0  0  0  0  0  0  0
  154.0721  134.2511  180.9597 C   0  0  0  0  0  0  0  0  0  0  0  0
  153.1337  135.0759  181.4345 N   0  0  0  0  0  0  0  0  0  0  0  0
  152.8991  135.2817  182.7554 C   0  0  0  0  0  0  0  0  0  0  0  0
  154.7795  140.6895  183.0354 C   0  0  0  0  0  0  0  0  0  0  0  0
  154.2962  140.1933  184.1069 O   0  0  0  0  0  0  0  0  0  0  0  0
  154.1666  140.5464  181.8075 N   0  0  0  0  0  0  0  0  0  0  0  0
  154.6914  141.0172  180.9846 H   0  0  0  0  0  0  0  0  0  0  0  0
  160.4215  142.7263  184.4271 C   0  0  0  0  0  0  0  0  0  0  0  0
  160.3107  143.8521  183.6531 C   0  0  0  0  0  0  0  0  0  0  0  0
  159.1178  144.0159  182.9856 C   0  0  0  0  0  0  0  0  0  0  0  0
  158.0795  143.0726  183.1013 C   0  0  0  0  0  0  0  0  0  0  0  0
  156.5059  142.9135  182.4523 S   0  0  0  0  0  0  0  0  0  0  0  0
  156.0578  141.4425  183.1802 C   0  0  0  0  0  0  0  0  0  0  0  0
  157.1572  141.1105  183.9185 C   0  0  0  0  0  0  0  0  0  0  0  0
  158.2039  141.9533  183.8780 C   0  0  0  0  0  0  0  0  0  0  0  0
  159.4320  141.8125  184.5473 C   0  0  0  0  0  0  0  0  0  0  0  0
  161.6989  142.5126  185.1513 C   0  0  0  0  0  0  0  0  0  0  0  0
  162.6910  141.9845  184.5954 O   0  0  0  0  0  0  0  0  0  0  0  0
  162.9721  142.6571  187.2149 C   0  0  0  0  0  0  0  0  0  0  0  0
  161.8088  142.8994  186.4605 O   0  0  0  0  0  0  0  0  0  0  0  0
 36 37  1  0  0  0
 37 34  1  0  0  0
 34 35  2  0  0  0
 34 25  1  0  0  0
 25 26  2  0  0  0
 26 27  1  0  0  0
 27 28  2  0  0  0
 28 29  1  0  0  0
 29 30  1  0  0  0
 30 31  2  0  0  0
 31 32  1  0  0  0
 32 33  2  0  0  0
 30 21  1  0  0  0
 21 22  2  0  0  0
 21 23  1  0  0  0
 23  1  1  0  0  0
  1  2  2  0  0  0
  2  3  1  0  0  0
  3  4  2  0  0  0
  4  5  1  0  0  0
  5  6  2  0  0  0
  6  7  1  0  0  0
  7  8  2  0  0  0
  8  9  1  0  0  0
  9 10  2  0  0  0
  8 11  1  0  0  0
 11 12  2  0  0  0
 12 13  1  0  0  0
 13 14  2  0  0  0
 14 15  1  0  0  0
 15 16  2  0  0  0
 16 17  1  0  0  0
 17 18  2  0  0  0
 18 19  1  0  0  0
 19 20  2  0  0  0
 33 25  1  0  0  0
 10  1  1  0  0  0
 20 11  1  0  0  0
 32 28  1  0  0  0
  9  4  1  0  0  0
 20 15  1  0  0  0
 23 24  1  0  0  0
M  END
> <minimizedAffinity>
-9.34423

> <CNNscore>
0.1540893167

> <CNNaffinity>
6.3667416573

> <CNN_VS>
0.9810468554

> <CNNaffinity_variance>
0.0894347206

$$$$
[H]c1nc2c(-c3c([H])c([H])c([H])c4c([H])c([H])c(N([H])C(=O)c5sc6c([H])c([H])c(C(=O)OC([H])([H])[H])c([H])c6c5[H])c([H])c34)c([H])c([H])nc2c([H])c1[H]


 37 42  0  0  0  0  0  0  0  0999 V2000
  151.2333  137.0058  186.9848 C   0  0  0  0  0  0  0  0  0  0  0  0
  150.1916  136.7218  186.0722 C   0  0  0  0  0  0  0  0  0  0  0  0
  149.0901  136.0074  186.4372 C   0  0  0  0  0  0  0  0  0  0  0  0
  148.9747  135.5386  187.7415 C   0  0  0  0  0  0  0  0  0  0  0  0
  147.8393  134.7909  188.0847 C   0  0  0  0  0  0  0  0  0  0  0  0
  147.7428  134.3183  189.3714 C   0  0  0  0  0  0  0  0  0  0  0  0
  148.6928  134.5414  190.3257 C   0  0  0  0  0  0  0  0  0  0  0  0
  149.8193  135.3003  189.9363 C   0  0  0  0  0  0  0  0  0  0  0  0
  149.9698  135.7959  188.6618 C   0  0  0  0  0  0  0  0  0  0  0  0
  151.0911  136.5372  188.2388 C   0  0  0  0  0  0  0  0  0  0  0  0
  150.7933  135.6082  190.9524 C   0  0  0  0  0  0  0  0  0  0  0  0
  150.6585  136.6374  191.8457 C   0  0  0  0  0  0  0  0  0  0  0  0
  151.5785  136.8467  192.8433 C   0  0  0  0  0  0  0  0  0  0  0  0
  152.6324  136.0214  192.9420 N   0  0  0  0  0  0  0  0  0  0  0  0
  152.7865  134.9955  192.0690 C   0  0  0  0  0  0  0  0  0  0  0  0
  153.8769  134.1480  192.1797 C   0  0  0  0  0  0  0  0  0  0  0  0
  154.0623  133.0930  191.3063 C   0  0  0  0  0  0  0  0  0  0  0  0
  153.1392  132.8968  190.3173 C   0  0  0  0  0  0  0  0  0  0  0  0
  152.0939  133.7249  190.2275 N   0  0  0  0  0  0  0  0  0  0  0  0
  151.8775  134.7708  191.0652 C   0  0  0  0  0  0  0  0  0  0  0  0
  153.1682  137.4573  185.4644 C   0  0  0  0  0  0  0  0  0  0  0  0
  152.9961  136.4358  184.7195 O   0  0  0  0  0  0  0  0  0  0  0  0
  152.3479  137.7420  186.5368 N   0  0  0  0  0  0  0  0  0  0  0  0
  152.6107  138.6434  187.0779 H   0  0  0  0  0  0  0  0  0  0  0  0
  157.0473  141.5811  183.0428 C   0  0  0  0  0  0  0  0  0  0  0  0
  158.0490  141.3078  183.9378 C   0  0  0  0  0  0  0  0  0  0  0  0
  157.7785  140.3358  184.8746 C   0  0  0  0  0  0  0  0  0  0  0  0
  156.5392  139.6688  184.8996 C   0  0  0  0  0  0  0  0  0  0  0  0
  155.8354  138.4509  185.8712 S   0  0  0  0  0  0  0  0  0  0  0  0
  154.3169  138.3394  185.1119 C   0  0  0  0  0  0  0  0  0  0  0  0
  154.3991  139.2632  184.1101 C   0  0  0  0  0  0  0  0  0  0  0  0
  155.5485  139.9518  183.9996 C   0  0  0  0  0  0  0  0  0  0  0  0
  155.8526  140.9477  183.0555 C   0  0  0  0  0  0  0  0  0  0  0  0
  157.3012  142.6320  182.0265 C   0  0  0  0  0  0  0  0  0  0  0  0
  156.6096  143.6765  181.9718 O   0  0  0  0  0  0  0  0  0  0  0  0
  158.1327  141.7635  179.9157 C   0  0  0  0  0  0  0  0  0  0  0  0
  158.3152  142.4680  181.1205 O   0  0  0  0  0  0  0  0  0  0  0  0
 36 37  1  0  0  0
 37 34  1  0  0  0
 34 35  2  0  0  0
 34 25  1  0  0  0
 25 26  2  0  0  0
 26 27  1  0  0  0
 27 28  2  0  0  0
 28 29  1  0  0  0
 29 30  1  0  0  0
 30 31  2  0  0  0
 31 32  1  0  0  0
 32 33  2  0  0  0
 30 21  1  0  0  0
 21 22  2  0  0  0
 21 23  1  0  0  0
 23  1  1  0  0  0
  1  2  2  0  0  0
  2  3  1  0  0  0
  3  4  2  0  0  0
  4  5  1  0  0  0
  5  6  2  0  0  0
  6  7  1  0  0  0
  7  8  2  0  0  0
  8  9  1  0  0  0
  9 10  2  0  0  0
  8 11  1  0  0  0
 11 12  2  0  0  0
 12 13  1  0  0  0
 13 14  2  0  0  0
 14 15  1  0  0  0
 15 16  2  0  0  0
 16 17  1  0  0  0
 17 18  2  0  0  0
 18 19  1  0  0  0
 19 20  2  0  0  0
 33 25  1  0  0  0
 10  1  1  0  0  0
 20 11  1  0  0  0
 32 28  1  0  0  0
  9  4  1  0  0  0
 20 15  1  0  0  0
 23 24  1  0  0  0
M  END
> <minimizedAffinity>
-7.09461

> <CNNscore>
0.1483740509

> <CNNaffinity>
5.9208970070

> <CNN_VS>
0.8785074949

> <CNNaffinity_variance>
0.0909909233

$$$$
[H]c1c([H])c([H])c([C@]([H])(N([H])C(=O)c2c([H])c(C(F)(F)F)c([H])c(C(F)(F)F)c2[H])C([H])([H])[H])c([H])c1[H]


 26 27  0  0  0  0  0  0  0  0999 V2000
  153.0828  139.6479  182.1749 C   0  0  0  0  0  0  0  0  0  0  0  0
  152.1949  139.8921  181.1863 C   0  0  0  0  0  0  0  0  0  0  0  0
  151.2008  138.9878  180.8489 C   0  0  0  0  0  0  0  0  0  0  0  0
  151.1065  137.7894  181.5548 C   0  0  0  0  0  0  0  0  0  0  0  0
  152.0018  137.5387  182.5672 C   0  0  0  0  0  0  0  0  0  0  0  0
  152.9599  138.4530  182.8611 C   0  0  0  0  0  0  0  0  0  0  0  0
  154.8447  141.4822  181.7471 N   0  0  0  0  0  0  0  0  0  0  0  0
  154.1976  140.4718  182.5013 C   0  0  0  0  0  0  0  0  0  0  0  0
  154.6979  140.2729  183.6929 O   0  0  0  0  0  0  0  0  0  0  0  0
  154.5258  141.6453  180.7590 H   0  0  0  0  0  0  0  0  0  0  0  0
  155.2720  143.3607  183.1501 C   0  0  0  0  0  0  0  0  0  0  0  0
  155.9029  142.1718  182.3755 C   0  0  0  0  0  0  0  0  0  0  0  0
  157.0799  142.6073  181.6612 C   0  0  0  0  0  0  0  0  0  0  0  0
  157.5467  141.8078  180.6035 C   0  0  0  0  0  0  0  0  0  0  0  0
  158.6414  142.1575  179.8126 C   0  0  0  0  0  0  0  0  0  0  0  0
  159.3317  143.3082  180.0274 C   0  0  0  0  0  0  0  0  0  0  0  0
  158.9003  144.1056  181.0722 C   0  0  0  0  0  0  0  0  0  0  0  0
  157.8210  143.7691  181.8524 C   0  0  0  0  0  0  0  0  0  0  0  0
  151.9461  136.2374  183.3541 C   0  0  0  0  0  0  0  0  0  0  0  0
  151.3961  135.2491  182.5993 F   0  0  0  0  0  0  0  0  0  0  0  0
  151.2279  136.4951  184.4921 F   0  0  0  0  0  0  0  0  0  0  0  0
  153.2496  135.9658  183.7357 F   0  0  0  0  0  0  0  0  0  0  0  0
  150.2465  139.2642  179.7832 C   0  0  0  0  0  0  0  0  0  0  0  0
  149.8073  138.0550  179.2088 F   0  0  0  0  0  0  0  0  0  0  0  0
  149.0845  139.7842  180.3459 F   0  0  0  0  0  0  0  0  0  0  0  0
  150.6934  140.1257  178.8314 F   0  0  0  0  0  0  0  0  0  0  0  0
 11 12  1  0  0  0
 12  7  1  0  0  0
  7  8  1  0  0  0
  8  9  2  0  0  0
  8  1  1  0  0  0
  1  2  2  0  0  0
  2  3  1  0  0  0
  3  4  2  0  0  0
  4  5  1  0  0  0
  5  6  2  0  0  0
  5 19  1  0  0  0
 19 20  1  0  0  0
 19 21  1  0  0  0
 19 22  1  0  0  0
  3 23  1  0  0  0
 23 24  1  0  0  0
 23 25  1  0  0  0
 23 26  1  0  0  0
 12 13  1  0  0  0
 13 14  2  0  0  0
 14 15  1  0  0  0
 15 16  2  0  0  0
 16 17  1  0  0  0
 17 18  2  0  0  0
  6  1  1  0  0  0
 18 13  1  0  0  0
  7 10  1  0  0  0
M  END
> <minimizedAffinity>
-8.24037

> <CNNscore>
0.6549820304

> <CNNaffinity>
5.7190809250

> <CNN_VS>
3.7458951473

> <CNNaffinity_variance>
0.0976318121

$$$$
[H]c1c([H])c([H])c([C@]([H])(N([H])C(=O)c2c([H])c(C(F)(F)F)c([H])c(C(F)(F)F)c2[H])C([H])([H])[H])c([H])c1[H]


 26 27  0  0  0  0  0  0  0  0999 V2000
  152.8361  136.4918  189.5602 C   0  0  0  0  0  0  0  0  0  0  0  0
  154.1550  136.7718  189.6464 C   0  0  0  0  0  0  0  0  0  0  0  0
  154.7502  137.1568  190.8369 C   0  0  0  0  0  0  0  0  0  0  0  0
  153.9673  137.2526  191.9864 C   0  0  0  0  0  0  0  0  0  0  0  0
  152.6264  136.9611  191.9070 C   0  0  0  0  0  0  0  0  0  0  0  0
  152.0868  136.5900  190.7189 C   0  0  0  0  0  0  0  0  0  0  0  0
  152.0219  136.9509  187.1565 N   0  0  0  0  0  0  0  0  0  0  0  0
  152.1333  136.2037  188.3555 C   0  0  0  0  0  0  0  0  0  0  0  0
  151.4982  135.0609  188.3495 O   0  0  0  0  0  0  0  0  0  0  0  0
  152.4606  137.9054  187.1236 H   0  0  0  0  0  0  0  0  0  0  0  0
  152.3014  136.0612  184.9633 C   0  0  0  0  0  0  0  0  0  0  0  0
  151.2904  136.3645  186.1022 C   0  0  0  0  0  0  0  0  0  0  0  0
  150.0913  136.9608  185.5621 C   0  0  0  0  0  0  0  0  0  0  0  0
  149.1514  137.4911  186.4628 C   0  0  0  0  0  0  0  0  0  0  0  0
  147.9848  138.1361  186.0513 C   0  0  0  0  0  0  0  0  0  0  0  0
  147.6850  138.2860  184.7343 C   0  0  0  0  0  0  0  0  0  0  0  0
  148.5878  137.7598  183.8280 C   0  0  0  0  0  0  0  0  0  0  0  0
  149.7401  137.1268  184.2261 C   0  0  0  0  0  0  0  0  0  0  0  0
  151.7305  137.0670  193.1325 C   0  0  0  0  0  0  0  0  0  0  0  0
  152.0649  136.1193  194.0485 F   0  0  0  0  0  0  0  0  0  0  0  0
  150.4400  136.9417  192.6895 F   0  0  0  0  0  0  0  0  0  0  0  0
  151.8851  138.3585  193.6081 F   0  0  0  0  0  0  0  0  0  0  0  0
  156.1746  137.4525  190.9182 C   0  0  0  0  0  0  0  0  0  0  0  0
  156.7873  137.1999  189.6749 F   0  0  0  0  0  0  0  0  0  0  0  0
  156.3390  138.8255  191.0756 F   0  0  0  0  0  0  0  0  0  0  0  0
  156.8290  136.8166  191.9259 F   0  0  0  0  0  0  0  0  0  0  0  0
 11 12  1  0  0  0
 12  7  1  0  0  0
  7  8  1  0  0  0
  8  9  2  0  0  0
  8  1  1  0  0  0
  1  2  2  0  0  0
  2  3  1  0  0  0
  3  4  2  0  0  0
  4  5  1  0  0  0
  5  6  2  0  0  0
  5 19  1  0  0  0
 19 20  1  0  0  0
 19 21  1  0  0  0
 19 22  1  0  0  0
  3 23  1  0  0  0
 23 24  1  0  0  0
 23 25  1  0  0  0
 23 26  1  0  0  0
 12 13  1  0  0  0
 13 14  2  0  0  0
 14 15  1  0  0  0
 15 16  2  0  0  0
 16 17  1  0  0  0
 17 18  2  0  0  0
  6  1  1  0  0  0
 18 13  1  0  0  0
  7 10  1  0  0  0
M  END
> <minimizedAffinity>
-6.46304

> <CNNscore>
0.6174867749

> <CNNaffinity>
5.0962266922

> <CNN_VS>
3.1468524933

> <CNNaffinity_variance>
0.0834868327

$$$$
[H]c1c([H])c([H])c([C@]([H])(N([H])C(=O)c2c([H])c(C(F)(F)F)c([H])c(C(F)(F)F)c2[H])C([H])([H])[H])c([H])c1[H]


 26 27  0  0  0  0  0  0  0  0999 V2000
  152.7961  136.8518  188.9491 C   0  0  0  0  0  0  0  0  0  0  0  0
  151.9409  136.4833  189.9279 C   0  0  0  0  0  0  0  0  0  0  0  0
  152.2417  136.6494  191.2702 C   0  0  0  0  0  0  0  0  0  0  0  0
  153.4624  137.2213  191.6257 C   0  0  0  0  0  0  0  0  0  0  0  0
  154.3333  137.6058  190.6343 C   0  0  0  0  0  0  0  0  0  0  0  0
  153.9967  137.4218  189.3331 C   0  0  0  0  0  0  0  0  0  0  0  0
  153.2845  137.1438  186.4336 N   0  0  0  0  0  0  0  0  0  0  0  0
  152.6087  136.6086  187.5585 C   0  0  0  0  0  0  0  0  0  0  0  0
  151.6705  135.7438  187.2732 O   0  0  0  0  0  0  0  0  0  0  0  0
  154.0073  137.8891  186.5968 H   0  0  0  0  0  0  0  0  0  0  0  0
  153.9826  135.6270  184.7329 C   0  0  0  0  0  0  0  0  0  0  0  0
  152.9032  136.6561  185.1658 C   0  0  0  0  0  0  0  0  0  0  0  0
  152.5730  137.5293  184.0641 C   0  0  0  0  0  0  0  0  0  0  0  0
  153.4760  138.5564  183.7389 C   0  0  0  0  0  0  0  0  0  0  0  0
  153.2846  139.4239  182.6633 C   0  0  0  0  0  0  0  0  0  0  0  0
  152.1935  139.3253  181.8591 C   0  0  0  0  0  0  0  0  0  0  0  0
  151.2826  138.3309  182.1672 C   0  0  0  0  0  0  0  0  0  0  0  0
  151.4667  137.4709  183.2225 C   0  0  0  0  0  0  0  0  0  0  0  0
  155.6831  138.2200  190.9759 C   0  0  0  0  0  0  0  0  0  0  0  0
  156.4144  138.4173  189.8466 F   0  0  0  0  0  0  0  0  0  0  0  0
  156.2926  137.3670  191.8580 F   0  0  0  0  0  0  0  0  0  0  0  0
  155.4070  139.3953  191.6547 F   0  0  0  0  0  0  0  0  0  0  0  0
  151.3094  136.2516  192.3169 C   0  0  0  0  0  0  0  0  0  0  0  0
  149.9870  136.3436  191.8398 F   0  0  0  0  0  0  0  0  0  0  0  0
  151.4616  134.8893  192.5585 F   0  0  0  0  0  0  0  0  0  0  0  0
  151.4554  136.9215  193.4907 F   0  0  0  0  0  0  0  0  0  0  0  0
 11 12  1  0  0  0
 12  7  1  0  0  0
  7  8  1  0  0  0
  8  9  2  0  0  0
  8  1  1  0  0  0
  1  2  2  0  0  0
  2  3  1  0  0  0
  3  4  2  0  0  0
  4  5  1  0  0  0
  5  6  2  0  0  0
  5 19  1  0  0  0
 19 20  1  0  0  0
 19 21  1  0  0  0
 19 22  1  0  0  0
  3 23  1  0  0  0
 23 24  1  0  0  0
 23 25  1  0  0  0
 23 26  1  0  0  0
 12 13  1  0  0  0
 13 14  2  0  0  0
 14 15  1  0  0  0
 15 16  2  0  0  0
 16 17  1  0  0  0
 17 18  2  0  0  0
  6  1  1  0  0  0
 18 13  1  0  0  0
  7 10  1  0  0  0
M  END
> <minimizedAffinity>
-6.78447

> <CNNscore>
0.5930820704

> <CNNaffinity>
5.2361292839

> <CNN_VS>
3.1054544449

> <CNNaffinity_variance>
0.2014373243

$$$$
[H]c1c([H])c([H])c([C@]([H])(N([H])C(=O)c2c([H])c(C(F)(F)F)c([H])c(C(F)(F)F)c2[H])C([H])([H])[H])c([H])c1[H]


 26 27  0  0  0  0  0  0  0  0999 V2000
  158.2098  141.3940  184.0575 C   0  0  0  0  0  0  0  0  0  0  0  0
  157.9557  142.3243  183.1113 C   0  0  0  0  0  0  0  0  0  0  0  0
  158.7740  143.4265  182.9231 C   0  0  0  0  0  0  0  0  0  0  0  0
  159.9006  143.5800  183.7297 C   0  0  0  0  0  0  0  0  0  0  0  0
  160.1691  142.6327  184.6888 C   0  0  0  0  0  0  0  0  0  0  0  0
  159.3382  141.5707  184.8381 C   0  0  0  0  0  0  0  0  0  0  0  0
  155.9433  140.2156  184.4126 N   0  0  0  0  0  0  0  0  0  0  0  0
  157.3577  140.3015  184.3868 C   0  0  0  0  0  0  0  0  0  0  0  0
  157.9793  139.1962  184.7053 O   0  0  0  0  0  0  0  0  0  0  0  0
  155.3893  141.0887  184.2249 H   0  0  0  0  0  0  0  0  0  0  0  0
  154.2210  138.7171  183.7287 C   0  0  0  0  0  0  0  0  0  0  0  0
  155.3838  138.9597  184.7288 C   0  0  0  0  0  0  0  0  0  0  0  0
  154.9751  138.6056  186.0678 C   0  0  0  0  0  0  0  0  0  0  0  0
  153.6164  138.7382  186.4028 C   0  0  0  0  0  0  0  0  0  0  0  0
  153.1021  138.3764  187.6481 C   0  0  0  0  0  0  0  0  0  0  0  0
  153.9008  137.8711  188.6247 C   0  0  0  0  0  0  0  0  0  0  0  0
  155.2451  137.7442  188.3241 C   0  0  0  0  0  0  0  0  0  0  0  0
  155.7574  138.0949  187.0988 C   0  0  0  0  0  0  0  0  0  0  0  0
  161.3789  142.7673  185.6020 C   0  0  0  0  0  0  0  0  0  0  0  0
  162.4568  142.1422  185.0576 F   0  0  0  0  0  0  0  0  0  0  0  0
  161.0185  142.2400  186.8141 F   0  0  0  0  0  0  0  0  0  0  0  0
  161.5738  144.1270  185.7796 F   0  0  0  0  0  0  0  0  0  0  0  0
  158.4916  144.4211  181.8965 C   0  0  0  0  0  0  0  0  0  0  0  0
  158.1037  143.7802  180.7034 F   0  0  0  0  0  0  0  0  0  0  0  0
  157.3484  145.1273  182.2592 F   0  0  0  0  0  0  0  0  0  0  0  0
  159.4985  145.3067  181.6730 F   0  0  0  0  0  0  0  0  0  0  0  0
 11 12  1  0  0  0
 12  7  1  0  0  0
  7  8  1  0  0  0
  8  9  2  0  0  0
  8  1  1  0  0  0
  1  2  2  0  0  0
  2  3  1  0  0  0
  3  4  2  0  0  0
  4  5  1  0  0  0
  5  6  2  0  0  0
  5 19  1  0  0  0
 19 20  1  0  0  0
 19 21  1  0  0  0
 19 22  1  0  0  0
  3 23  1  0  0  0
 23 24  1  0  0  0
 23 25  1  0  0  0
 23 26  1  0  0  0
 12 13  1  0  0  0
 13 14  2  0  0  0
 14 15  1  0  0  0
 15 16  2  0  0  0
 16 17  1  0  0  0
 17 18  2  0  0  0
  6  1  1  0  0  0
 18 13  1  0  0  0
  7 10  1  0  0  0
M  END
> <minimizedAffinity>
-9.00963

> <CNNscore>
0.5652043223

> <CNNaffinity>
5.9112949371

> <CNN_VS>
3.3410894871

> <CNNaffinity_variance>
0.0472723544

$$$$
[H]c1c([H])c([H])c([C@]([H])(N([H])C(=O)c2c([H])c(C(F)(F)F)c([H])c(C(F)(F)F)c2[H])C([H])([H])[H])c([H])c1[H]


 26 27  0  0  0  0  0  0  0  0999 V2000
  157.2437  140.9303  183.8963 C   0  0  0  0  0  0  0  0  0  0  0  0
  158.2548  141.2864  184.7186 C   0  0  0  0  0  0  0  0  0  0  0  0
  159.3628  141.9836  184.2647 C   0  0  0  0  0  0  0  0  0  0  0  0
  159.4368  142.3367  182.9182 C   0  0  0  0  0  0  0  0  0  0  0  0
  158.4075  141.9845  182.0782 C   0  0  0  0  0  0  0  0  0  0  0  0
  157.3430  141.3001  182.5670 C   0  0  0  0  0  0  0  0  0  0  0  0
  154.7422  140.3388  184.1068 N   0  0  0  0  0  0  0  0  0  0  0  0
  156.1333  140.1172  184.2623 C   0  0  0  0  0  0  0  0  0  0  0  0
  156.4470  138.9775  184.8212 O   0  0  0  0  0  0  0  0  0  0  0  0
  154.4270  141.2635  183.7193 H   0  0  0  0  0  0  0  0  0  0  0  0
  154.4502  138.7458  185.8552 C   0  0  0  0  0  0  0  0  0  0  0  0
  153.8783  139.3043  184.5239 C   0  0  0  0  0  0  0  0  0  0  0  0
  153.4858  138.2209  183.6536 C   0  0  0  0  0  0  0  0  0  0  0  0
  153.8665  136.9151  184.0081 C   0  0  0  0  0  0  0  0  0  0  0  0
  153.4980  135.7896  183.2706 C   0  0  0  0  0  0  0  0  0  0  0  0
  152.7412  135.8957  182.1468 C   0  0  0  0  0  0  0  0  0  0  0  0
  152.3656  137.1723  181.7691 C   0  0  0  0  0  0  0  0  0  0  0  0
  152.7218  138.2843  182.4926 C   0  0  0  0  0  0  0  0  0  0  0  0
  158.4527  142.3354  180.5981 C   0  0  0  0  0  0  0  0  0  0  0  0
  159.7288  142.6034  180.2124 F   0  0  0  0  0  0  0  0  0  0  0  0
  157.6116  143.4021  180.4199 F   0  0  0  0  0  0  0  0  0  0  0  0
  157.9016  141.2533  179.9321 F   0  0  0  0  0  0  0  0  0  0  0  0
  160.4453  142.3655  185.1622 C   0  0  0  0  0  0  0  0  0  0  0  0
  160.5043  143.7690  185.2704 F   0  0  0  0  0  0  0  0  0  0  0  0
  160.1185  141.9648  186.4544 F   0  0  0  0  0  0  0  0  0  0  0  0
  161.6595  141.8467  184.8387 F   0  0  0  0  0  0  0  0  0  0  0  0
 11 12  1  0  0  0
 12  7  1  0  0  0
  7  8  1  0  0  0
  8  9  2  0  0  0
  8  1  1  0  0  0
  1  2  2  0  0  0
  2  3  1  0  0  0
  3  4  2  0  0  0
  4  5  1  0  0  0
  5  6  2  0  0  0
  5 19  1  0  0  0
 19 20  1  0  0  0
 19 21  1  0  0  0
 19 22  1  0  0  0
  3 23  1  0  0  0
 23 24  1  0  0  0
 23 25  1  0  0  0
 23 26  1  0  0  0
 12 13  1  0  0  0
 13 14  2  0  0  0
 14 15  1  0  0  0
 15 16  2  0  0  0
 16 17  1  0  0  0
 17 18  2  0  0  0
  6  1  1  0  0  0
 18 13  1  0  0  0
  7 10  1  0  0  0
M  END
> <minimizedAffinity>
-7.99371

> <CNNscore>
0.5443198085

> <CNNaffinity>
5.8663911819

> <CNN_VS>
3.1931929588

> <CNNaffinity_variance>
0.1580856144

$$$$
[H]c1c([H])c([H])c([C@]([H])(N([H])C(=O)c2c([H])c(C(F)(F)F)c([H])c(C(F)(F)F)c2[H])C([H])([H])[H])c([H])c1[H]


 26 27  0  0  0  0  0  0  0  0999 V2000
  153.4194  138.9558  183.6197 C   0  0  0  0  0  0  0  0  0  0  0  0
  152.6129  138.7467  182.5561 C   0  0  0  0  0  0  0  0  0  0  0  0
  152.4418  139.6976  181.5630 C   0  0  0  0  0  0  0  0  0  0  0  0
  153.1279  140.9074  181.6574 C   0  0  0  0  0  0  0  0  0  0  0  0
  153.9563  141.1230  182.7328 C   0  0  0  0  0  0  0  0  0  0  0  0
  154.0914  140.1634  183.6822 C   0  0  0  0  0  0  0  0  0  0  0  0
  152.8190  138.0071  185.9416 N   0  0  0  0  0  0  0  0  0  0  0  0
  153.5562  138.0788  184.7333 C   0  0  0  0  0  0  0  0  0  0  0  0
  154.5070  137.1886  184.6184 O   0  0  0  0  0  0  0  0  0  0  0  0
  152.0819  138.7352  186.1174 H   0  0  0  0  0  0  0  0  0  0  0  0
  152.0139  135.9307  186.7902 C   0  0  0  0  0  0  0  0  0  0  0  0
  153.1618  136.9753  186.8406 C   0  0  0  0  0  0  0  0  0  0  0  0
  153.5460  137.2319  188.2087 C   0  0  0  0  0  0  0  0  0  0  0  0
  154.5256  138.2110  188.4493 C   0  0  0  0  0  0  0  0  0  0  0  0
  154.9347  138.5773  189.7317 C   0  0  0  0  0  0  0  0  0  0  0  0
  154.4030  137.9947  190.8384 C   0  0  0  0  0  0  0  0  0  0  0  0
  153.4467  137.0176  190.6274 C   0  0  0  0  0  0  0  0  0  0  0  0
  153.0366  136.6548  189.3676 C   0  0  0  0  0  0  0  0  0  0  0  0
  154.7130  142.4345  182.8849 C   0  0  0  0  0  0  0  0  0  0  0  0
  153.9052  143.4863  182.5845 F   0  0  0  0  0  0  0  0  0  0  0  0
  155.8065  142.3564  182.0633 F   0  0  0  0  0  0  0  0  0  0  0  0
  155.1730  142.4606  184.1910 F   0  0  0  0  0  0  0  0  0  0  0  0
  151.5721  139.4589  180.4186 C   0  0  0  0  0  0  0  0  0  0  0  0
  151.2702  138.0859  180.3254 F   0  0  0  0  0  0  0  0  0  0  0  0
  150.3311  140.0364  180.6708 F   0  0  0  0  0  0  0  0  0  0  0  0
  152.0445  139.9388  179.2377 F   0  0  0  0  0  0  0  0  0  0  0  0
 11 12  1  0  0  0
 12  7  1  0  0  0
  7  8  1  0  0  0
  8  9  2  0  0  0
  8  1  1  0  0  0
  1  2  2  0  0  0
  2  3  1  0  0  0
  3  4  2  0  0  0
  4  5  1  0  0  0
  5  6  2  0  0  0
  5 19  1  0  0  0
 19 20  1  0  0  0
 19 21  1  0  0  0
 19 22  1  0  0  0
  3 23  1  0  0  0
 23 24  1  0  0  0
 23 25  1  0  0  0
 23 26  1  0  0  0
 12 13  1  0  0  0
 13 14  2  0  0  0
 14 15  1  0  0  0
 15 16  2  0  0  0
 16 17  1  0  0  0
 17 18  2  0  0  0
  6  1  1  0  0  0
 18 13  1  0  0  0
  7 10  1  0  0  0
M  END
> <minimizedAffinity>
-7.83001

> <CNNscore>
0.5409404039

> <CNNaffinity>
5.0859403610

> <CNN_VS>
2.7511906624

> <CNNaffinity_variance>
0.1330678314

$$$$
[H]c1c([H])c([H])c([C@]([H])(N([H])C(=O)c2c([H])c(C(F)(F)F)c([H])c(C(F)(F)F)c2[H])C([H])([H])[H])c([H])c1[H]


 26 27  0  0  0  0  0  0  0  0999 V2000
  158.1808  141.4252  184.2137 C   0  0  0  0  0  0  0  0  0  0  0  0
  159.2465  141.6857  185.0022 C   0  0  0  0  0  0  0  0  0  0  0  0
  160.1732  142.6666  184.6879 C   0  0  0  0  0  0  0  0  0  0  0  0
  159.9998  143.4155  183.5250 C   0  0  0  0  0  0  0  0  0  0  0  0
  158.9131  143.1608  182.7228 C   0  0  0  0  0  0  0  0  0  0  0  0
  158.0325  142.1890  183.0699 C   0  0  0  0  0  0  0  0  0  0  0  0
  155.8390  140.3795  184.4869 N   0  0  0  0  0  0  0  0  0  0  0  0
  157.2539  140.3616  184.4083 C   0  0  0  0  0  0  0  0  0  0  0  0
  157.7935  139.1759  184.5209 O   0  0  0  0  0  0  0  0  0  0  0  0
  155.3522  141.3107  184.4640 H   0  0  0  0  0  0  0  0  0  0  0  0
  154.0817  139.0753  183.5430 C   0  0  0  0  0  0  0  0  0  0  0  0
  155.1897  139.1351  184.6293 C   0  0  0  0  0  0  0  0  0  0  0  0
  154.6763  138.6664  185.8950 C   0  0  0  0  0  0  0  0  0  0  0  0
  155.5837  138.1092  186.8127 C   0  0  0  0  0  0  0  0  0  0  0  0
  155.2078  137.6732  188.0834 C   0  0  0  0  0  0  0  0  0  0  0  0
  153.9205  137.7605  188.5102 C   0  0  0  0  0  0  0  0  0  0  0  0
  153.0055  138.2925  187.6196 C   0  0  0  0  0  0  0  0  0  0  0  0
  153.3695  138.7271  186.3684 C   0  0  0  0  0  0  0  0  0  0  0  0
  158.6920  143.9429  181.4363 C   0  0  0  0  0  0  0  0  0  0  0  0
  159.0951  145.2325  181.5892 F   0  0  0  0  0  0  0  0  0  0  0  0
  157.3595  143.8380  181.1351 F   0  0  0  0  0  0  0  0  0  0  0  0
  159.3967  143.2681  180.4533 F   0  0  0  0  0  0  0  0  0  0  0  0
  161.3166  142.9409  185.5484 C   0  0  0  0  0  0  0  0  0  0  0  0
  161.5253  144.3313  185.6378 F   0  0  0  0  0  0  0  0  0  0  0  0
  160.9894  142.5883  186.8544 F   0  0  0  0  0  0  0  0  0  0  0  0
  162.4594  142.2948  185.1956 F   0  0  0  0  0  0  0  0  0  0  0  0
 11 12  1  0  0  0
 12  7  1  0  0  0
  7  8  1  0  0  0
  8  9  2  0  0  0
  8  1  1  0  0  0
  1  2  2  0  0  0
  2  3  1  0  0  0
  3  4  2  0  0  0
  4  5  1  0  0  0
  5  6  2  0  0  0
  5 19  1  0  0  0
 19 20  1  0  0  0
 19 21  1  0  0  0
 19 22  1  0  0  0
  3 23  1  0  0  0
 23 24  1  0  0  0
 23 25  1  0  0  0
 23 26  1  0  0  0
 12 13  1  0  0  0
 13 14  2  0  0  0
 14 15  1  0  0  0
 15 16  2  0  0  0
 16 17  1  0  0  0
 17 18  2  0  0  0
  6  1  1  0  0  0
 18 13  1  0  0  0
  7 10  1  0  0  0
M  END
> <minimizedAffinity>
-8.86542

> <CNNscore>
0.5396781564

> <CNNaffinity>
5.9329938889

> <CNN_VS>
3.2019071579

> <CNNaffinity_variance>
0.0487958565

$$$$
[H]c1c([H])c([H])c([C@]([H])(N([H])C(=O)c2c([H])c(C(F)(F)F)c([H])c(C(F)(F)F)c2[H])C([H])([H])[H])c([H])c1[H]


 26 27  0  0  0  0  0  0  0  0999 V2000
  154.8253  141.2537  182.5489 C   0  0  0  0  0  0  0  0  0  0  0  0
  153.7572  140.9998  181.7615 C   0  0  0  0  0  0  0  0  0  0  0  0
  152.8796  139.9599  182.0231 C   0  0  0  0  0  0  0  0  0  0  0  0
  153.0989  139.1520  183.1378 C   0  0  0  0  0  0  0  0  0  0  0  0
  154.1792  139.4103  183.9474 C   0  0  0  0  0  0  0  0  0  0  0  0
  155.0129  140.4386  183.6508 C   0  0  0  0  0  0  0  0  0  0  0  0
  157.1406  142.0728  181.7614 N   0  0  0  0  0  0  0  0  0  0  0  0
  155.8314  142.2257  182.2821 C   0  0  0  0  0  0  0  0  0  0  0  0
  155.4889  143.4590  182.5490 O   0  0  0  0  0  0  0  0  0  0  0  0
  157.4942  141.0990  181.5848 H   0  0  0  0  0  0  0  0  0  0  0  0
  158.5396  143.1329  180.1493 C   0  0  0  0  0  0  0  0  0  0  0  0
  157.8890  143.2508  181.5543 C   0  0  0  0  0  0  0  0  0  0  0  0
  158.8521  143.7387  182.5132 C   0  0  0  0  0  0  0  0  0  0  0  0
  159.4062  142.8203  183.4218 C   0  0  0  0  0  0  0  0  0  0  0  0
  160.3824  143.1698  184.3551 C   0  0  0  0  0  0  0  0  0  0  0  0
  160.8567  144.4404  184.4421 C   0  0  0  0  0  0  0  0  0  0  0  0
  160.3165  145.3663  183.5678 C   0  0  0  0  0  0  0  0  0  0  0  0
  159.3579  145.0282  182.6439 C   0  0  0  0  0  0  0  0  0  0  0  0
  154.4662  138.5452  185.1660 C   0  0  0  0  0  0  0  0  0  0  0  0
  154.4710  137.2292  184.8236 F   0  0  0  0  0  0  0  0  0  0  0  0
  153.5073  138.8454  186.0974 F   0  0  0  0  0  0  0  0  0  0  0  0
  155.6831  138.9796  185.6646 F   0  0  0  0  0  0  0  0  0  0  0  0
  151.7288  139.6983  181.1686 C   0  0  0  0  0  0  0  0  0  0  0  0
  151.9330  138.5086  180.4422 F   0  0  0  0  0  0  0  0  0  0  0  0
  150.6346  139.3913  181.9721 F   0  0  0  0  0  0  0  0  0  0  0  0
  151.3900  140.7247  180.3442 F   0  0  0  0  0  0  0  0  0  0  0  0
 11 12  1  0  0  0
 12  7  1  0  0  0
  7  8  1  0  0  0
  8  9  2  0  0  0
  8  1  1  0  0  0
  1  2  2  0  0  0
  2  3  1  0  0  0
  3  4  2  0  0  0
  4  5  1  0  0  0
  5  6  2  0  0  0
  5 19  1  0  0  0
 19 20  1  0  0  0
 19 21  1  0  0  0
 19 22  1  0  0  0
  3 23  1  0  0  0
 23 24  1  0  0  0
 23 25  1  0  0  0
 23 26  1  0  0  0
 12 13  1  0  0  0
 13 14  2  0  0  0
 14 15  1  0  0  0
 15 16  2  0  0  0
 16 17  1  0  0  0
 17 18  2  0  0  0
  6  1  1  0  0  0
 18 13  1  0  0  0
  7 10  1  0  0  0
M  END
> <minimizedAffinity>
-9.06908

> <CNNscore>
0.5280832052

> <CNNaffinity>
5.9716463089

> <CNN_VS>
3.1535260677

> <CNNaffinity_variance>
0.1138537675

$$$$
[H]c1c([H])c([H])c([C@]([H])(N([H])C(=O)c2c([H])c(C(F)(F)F)c([H])c(C(F)(F)F)c2[H])C([H])([H])[H])c([H])c1[H]


 26 27  0  0  0  0  0  0  0  0999 V2000
  153.7421  140.4966  182.3008 C   0  0  0  0  0  0  0  0  0  0  0  0
  152.7682  140.5801  181.3681 C   0  0  0  0  0  0  0  0  0  0  0  0
  151.7596  139.6352  181.2694 C   0  0  0  0  0  0  0  0  0  0  0  0
  151.7421  138.5663  182.1641 C   0  0  0  0  0  0  0  0  0  0  0  0
  152.7255  138.4802  183.1205 C   0  0  0  0  0  0  0  0  0  0  0  0
  153.6944  139.4281  183.1780 C   0  0  0  0  0  0  0  0  0  0  0  0
  156.2441  141.1045  182.1509 N   0  0  0  0  0  0  0  0  0  0  0  0
  154.8709  141.3602  182.3909 C   0  0  0  0  0  0  0  0  0  0  0  0
  154.5959  142.5899  182.7398 O   0  0  0  0  0  0  0  0  0  0  0  0
  156.5339  140.1195  181.9264 H   0  0  0  0  0  0  0  0  0  0  0  0
  157.8020  142.3882  180.8841 C   0  0  0  0  0  0  0  0  0  0  0  0
  157.1292  142.1965  182.2704 C   0  0  0  0  0  0  0  0  0  0  0  0
  158.1144  142.2872  183.3223 C   0  0  0  0  0  0  0  0  0  0  0  0
  157.9021  141.5419  184.4950 C   0  0  0  0  0  0  0  0  0  0  0  0
  158.8121  141.5130  185.5520 C   0  0  0  0  0  0  0  0  0  0  0  0
  159.9722  142.2195  185.5076 C   0  0  0  0  0  0  0  0  0  0  0  0
  160.1976  142.9725  184.3693 C   0  0  0  0  0  0  0  0  0  0  0  0
  159.3077  143.0026  183.3234 C   0  0  0  0  0  0  0  0  0  0  0  0
  152.7550  137.3227  184.1080 C   0  0  0  0  0  0  0  0  0  0  0  0
  152.8575  137.7877  185.3817 F   0  0  0  0  0  0  0  0  0  0  0  0
  153.8102  136.5256  183.7499 F   0  0  0  0  0  0  0  0  0  0  0  0
  151.5933  136.6020  183.8864 F   0  0  0  0  0  0  0  0  0  0  0  0
  150.7124  139.7382  180.2616 C   0  0  0  0  0  0  0  0  0  0  0  0
  150.5770  138.5099  179.5851 F   0  0  0  0  0  0  0  0  0  0  0  0
  149.4854  139.8798  180.9032 F   0  0  0  0  0  0  0  0  0  0  0  0
  150.8676  140.7663  179.3859 F   0  0  0  0  0  0  0  0  0  0  0  0
 11 12  1  0  0  0
 12  7  1  0  0  0
  7  8  1  0  0  0
  8  9  2  0  0  0
  8  1  1  0  0  0
  1  2  2  0  0  0
  2  3  1  0  0  0
  3  4  2  0  0  0
  4  5  1  0  0  0
  5  6  2  0  0  0
  5 19  1  0  0  0
 19 20  1  0  0  0
 19 21  1  0  0  0
 19 22  1  0  0  0
  3 23  1  0  0  0
 23 24  1  0  0  0
 23 25  1  0  0  0
 23 26  1  0  0  0
 12 13  1  0  0  0
 13 14  2  0  0  0
 14 15  1  0  0  0
 15 16  2  0  0  0
 16 17  1  0  0  0
 17 18  2  0  0  0
  6  1  1  0  0  0
 18 13  1  0  0  0
  7 10  1  0  0  0
M  END
> <minimizedAffinity>
-8.41278

> <CNNscore>
0.5174497962

> <CNNaffinity>
5.7372865677

> <CNN_VS>
2.9687578678

> <CNNaffinity_variance>
0.1326140165

$$$$
[H]c1nc2c(N([H])C3([H])C([H])([H])C3([H])[H])nc(N([H])c3c([H])c(C#N)c(Cl)c(N4C([H])([H])C([H])([H])N(C([H])([H])[H])C([H])([H])C4([H])[H])c3[H])nn2c1C#N


 34 38  0  0  0  0  0  0  0  0999 V2000
  157.8761  139.6506  184.8436 N   0  0  0  0  0  0  0  0  0  0  0  0
  158.6528  138.9236  185.0473 H   0  0  0  0  0  0  0  0  0  0  0  0
  158.3590  140.9001  184.4462 C   0  0  0  0  0  0  0  0  0  0  0  0
  157.8052  141.5446  183.3778 N   0  0  0  0  0  0  0  0  0  0  0  0
  158.2184  142.7293  182.9236 C   0  0  0  0  0  0  0  0  0  0  0  0
  159.2933  143.3230  183.6112 C   0  0  0  0  0  0  0  0  0  0  0  0
  159.9350  144.4816  183.4173 N   0  0  0  0  0  0  0  0  0  0  0  0
  160.8920  144.6138  184.3271 C   0  0  0  0  0  0  0  0  0  0  0  0
  160.8408  143.4741  185.1297 C   0  0  0  0  0  0  0  0  0  0  0  0
  159.8441  142.6938  184.6648 N   0  0  0  0  0  0  0  0  0  0  0  0
  159.3709  141.5214  185.0466 N   0  0  0  0  0  0  0  0  0  0  0  0
  157.6736  143.4389  181.8505 N   0  0  0  0  0  0  0  0  0  0  0  0
  156.8639  144.1221  182.0496 H   0  0  0  0  0  0  0  0  0  0  0  0
  158.0921  143.3390  180.5053 C   0  0  0  0  0  0  0  0  0  0  0  0
  157.9949  142.0509  179.7582 C   0  0  0  0  0  0  0  0  0  0  0  0
  159.3292  142.6158  180.1045 C   0  0  0  0  0  0  0  0  0  0  0  0
  161.6920  143.1784  186.2495 C   0  0  0  0  0  0  0  0  0  0  0  0
  162.3953  142.9406  187.1600 N   0  0  0  0  0  0  0  0  0  0  0  0
  154.8890  138.2004  186.4867 C   0  0  0  0  0  0  0  0  0  0  0  0
  156.1559  138.6638  186.2515 C   0  0  0  0  0  0  0  0  0  0  0  0
  156.5483  139.2161  185.0098 C   0  0  0  0  0  0  0  0  0  0  0  0
  155.5889  139.2634  184.0473 C   0  0  0  0  0  0  0  0  0  0  0  0
  154.2698  138.7991  184.2406 C   0  0  0  0  0  0  0  0  0  0  0  0
  153.9592  138.2717  185.4819 C   0  0  0  0  0  0  0  0  0  0  0  0
  152.3501  137.6709  185.7736 Cl  0  0  0  0  0  0  0  0  0  0  0  0
  156.5802  137.2350  191.0038 C   0  0  0  0  0  0  0  0  0  0  0  0
  155.3176  137.2517  190.3478 N   0  0  0  0  0  0  0  0  0  0  0  0
  154.9644  136.1129  189.5885 C   0  0  0  0  0  0  0  0  0  0  0  0
  154.8144  136.2930  188.1171 C   0  0  0  0  0  0  0  0  0  0  0  0
  154.5427  137.6654  187.7526 N   0  0  0  0  0  0  0  0  0  0  0  0
  153.8877  138.4713  188.7696 C   0  0  0  0  0  0  0  0  0  0  0  0
  154.8048  138.5095  189.9552 C   0  0  0  0  0  0  0  0  0  0  0  0
  153.3106  138.8837  183.1739 C   0  0  0  0  0  0  0  0  0  0  0  0
  152.5388  138.9470  182.3182 N   0  0  0  0  0  0  0  0  0  0  0  0
 26 27  1  0  0  0
 27 28  1  0  0  0
 28 29  1  0  0  0
 29 30  1  0  0  0
 30 31  1  0  0  0
 31 32  1  0  0  0
 30 19  1  0  0  0
 19 20  2  0  0  0
 20 21  1  0  0  0
 21  1  1  0  0  0
  1  3  1  0  0  0
  3  4  1  0  0  0
  4  5  2  0  0  0
  5 12  1  0  0  0
 12 14  1  0  0  0
 14 15  1  0  0  0
 15 16  1  0  0  0
  5  6  1  0  0  0
  6  7  2  0  0  0
  7  8  1  0  0  0
  8  9  2  0  0  0
  9 17  1  0  0  0
 17 18  3  0  0  0
  9 10  1  0  0  0
 10 11  1  0  0  0
 21 22  2  0  0  0
 22 23  1  0  0  0
 23 24  2  0  0  0
 24 25  1  0  0  0
 23 33  1  0  0  0
 33 34  3  0  0  0
 32 27  1  0  0  0
 24 19  1  0  0  0
 11  3  2  0  0  0
 16 14  1  0  0  0
 10  6  1  0  0  0
  1  2  1  0  0  0
 12 13  1  0  0  0
M  END
> <minimizedAffinity>
-8.28338

> <CNNscore>
0.2780300975

> <CNNaffinity>
7.0810995102

> <CNN_VS>
1.9687588215

> <CNNaffinity_variance>
0.1291723549

$$$$
[H]c1nc2c(N([H])C3([H])C([H])([H])C3([H])[H])nc(N([H])c3c([H])c(C#N)c(Cl)c(N4C([H])([H])C([H])([H])N(C([H])([H])[H])C([H])([H])C4([H])[H])c3[H])nn2c1C#N


 34 38  0  0  0  0  0  0  0  0999 V2000
  152.8977  140.8716  181.7226 N   0  0  0  0  0  0  0  0  0  0  0  0
  152.5004  141.8420  181.4509 H   0  0  0  0  0  0  0  0  0  0  0  0
  154.1737  140.9199  182.2902 C   0  0  0  0  0  0  0  0  0  0  0  0
  155.1311  141.7383  181.7638 N   0  0  0  0  0  0  0  0  0  0  0  0
  156.3765  141.8300  182.2339 C   0  0  0  0  0  0  0  0  0  0  0  0
  156.6888  141.0193  183.3412 C   0  0  0  0  0  0  0  0  0  0  0  0
  157.8216  140.8745  184.0394 N   0  0  0  0  0  0  0  0  0  0  0  0
  157.6333  139.9856  185.0067 C   0  0  0  0  0  0  0  0  0  0  0  0
  156.3105  139.5556  184.9025 C   0  0  0  0  0  0  0  0  0  0  0  0
  155.7505  140.2104  183.8652 N   0  0  0  0  0  0  0  0  0  0  0  0
  154.5410  140.1831  183.3354 N   0  0  0  0  0  0  0  0  0  0  0  0
  157.3848  142.6649  181.7460 N   0  0  0  0  0  0  0  0  0  0  0  0
  157.3757  143.7016  182.0413 H   0  0  0  0  0  0  0  0  0  0  0  0
  158.4312  142.2685  180.8842 C   0  0  0  0  0  0  0  0  0  0  0  0
  159.1413  143.2587  180.0226 C   0  0  0  0  0  0  0  0  0  0  0  0
  158.2730  142.2170  179.4055 C   0  0  0  0  0  0  0  0  0  0  0  0
  155.6567  138.5907  185.7436 C   0  0  0  0  0  0  0  0  0  0  0  0
  155.1215  137.8089  186.4383 N   0  0  0  0  0  0  0  0  0  0  0  0
  151.4565  137.4764  182.0704 C   0  0  0  0  0  0  0  0  0  0  0  0
  152.2049  138.6055  182.2704 C   0  0  0  0  0  0  0  0  0  0  0  0
  152.0754  139.7599  181.4632 C   0  0  0  0  0  0  0  0  0  0  0  0
  151.1564  139.6895  180.4633 C   0  0  0  0  0  0  0  0  0  0  0  0
  150.3611  138.5495  180.2168 C   0  0  0  0  0  0  0  0  0  0  0  0
  150.5434  137.4579  181.0480 C   0  0  0  0  0  0  0  0  0  0  0  0
  149.5990  136.0182  180.7826 Cl  0  0  0  0  0  0  0  0  0  0  0  0
  149.9585  132.8624  182.8848 C   0  0  0  0  0  0  0  0  0  0  0  0
  150.9956  133.7169  183.3530 N   0  0  0  0  0  0  0  0  0  0  0  0
  150.6678  134.6379  184.3738 C   0  0  0  0  0  0  0  0  0  0  0  0
  150.7428  136.0872  184.0357 C   0  0  0  0  0  0  0  0  0  0  0  0
  151.6167  136.3490  182.9142 N   0  0  0  0  0  0  0  0  0  0  0  0
  152.6786  135.3797  182.7010 C   0  0  0  0  0  0  0  0  0  0  0  0
  152.0191  134.0587  182.4394 C   0  0  0  0  0  0  0  0  0  0  0  0
  149.4097  138.5515  179.1400 C   0  0  0  0  0  0  0  0  0  0  0  0
  148.6487  138.5506  178.2722 N   0  0  0  0  0  0  0  0  0  0  0  0
 26 27  1  0  0  0
 27 28  1  0  0  0
 28 29  1  0  0  0
 29 30  1  0  0  0
 30 31  1  0  0  0
 31 32  1  0  0  0
 30 19  1  0  0  0
 19 20  2  0  0  0
 20 21  1  0  0  0
 21  1  1  0  0  0
  1  3  1  0  0  0
  3  4  1  0  0  0
  4  5  2  0  0  0
  5 12  1  0  0  0
 12 14  1  0  0  0
 14 15  1  0  0  0
 15 16  1  0  0  0
  5  6  1  0  0  0
  6  7  2  0  0  0
  7  8  1  0  0  0
  8  9  2  0  0  0
  9 17  1  0  0  0
 17 18  3  0  0  0
  9 10  1  0  0  0
 10 11  1  0  0  0
 21 22  2  0  0  0
 22 23  1  0  0  0
 23 24  2  0  0  0
 24 25  1  0  0  0
 23 33  1  0  0  0
 33 34  3  0  0  0
 32 27  1  0  0  0
 24 19  1  0  0  0
 11  3  2  0  0  0
 16 14  1  0  0  0
 10  6  1  0  0  0
  1  2  1  0  0  0
 12 13  1  0  0  0
M  END
> <minimizedAffinity>
-6.98714

> <CNNscore>
0.2187212557

> <CNNaffinity>
6.1668457985

> <CNN_VS>
1.3488202095

> <CNNaffinity_variance>
0.2406318486

$$$$
[H]c1nc2c(N([H])C3([H])C([H])([H])C3([H])[H])nc(N([H])c3c([H])c(C#N)c(Cl)c(N4C([H])([H])C([H])([H])N(C([H])([H])[H])C([H])([H])C4([H])[H])c3[H])nn2c1C#N


 34 38  0  0  0  0  0  0  0  0999 V2000
  157.6604  139.8545  185.1059 N   0  0  0  0  0  0  0  0  0  0  0  0
  158.3454  139.2299  185.6663 H   0  0  0  0  0  0  0  0  0  0  0  0
  158.2276  141.0447  184.6429 C   0  0  0  0  0  0  0  0  0  0  0  0
  157.7062  141.6772  183.5513 N   0  0  0  0  0  0  0  0  0  0  0  0
  158.1982  142.8053  183.0356 C   0  0  0  0  0  0  0  0  0  0  0  0
  159.3243  143.3495  183.6809 C   0  0  0  0  0  0  0  0  0  0  0  0
  160.0463  144.4469  183.4237 N   0  0  0  0  0  0  0  0  0  0  0  0
  161.0243  144.5507  184.3147 C   0  0  0  0  0  0  0  0  0  0  0  0
  160.9019  143.4572  185.1718 C   0  0  0  0  0  0  0  0  0  0  0  0
  159.8436  142.7318  184.7571 N   0  0  0  0  0  0  0  0  0  0  0  0
  159.2915  141.6170  185.2007 N   0  0  0  0  0  0  0  0  0  0  0  0
  157.6905  143.5017  181.9360 N   0  0  0  0  0  0  0  0  0  0  0  0
  157.0402  144.3414  182.1203 H   0  0  0  0  0  0  0  0  0  0  0  0
  157.9539  143.1991  180.5818 C   0  0  0  0  0  0  0  0  0  0  0  0
  158.8747  142.0879  180.2020 C   0  0  0  0  0  0  0  0  0  0  0  0
  159.2587  143.5022  179.9340 C   0  0  0  0  0  0  0  0  0  0  0  0
  161.7462  143.1525  186.2945 C   0  0  0  0  0  0  0  0  0  0  0  0
  162.4287  142.8989  187.2166 N   0  0  0  0  0  0  0  0  0  0  0  0
  154.5451  137.9938  185.8526 C   0  0  0  0  0  0  0  0  0  0  0  0
  155.8036  138.5256  185.9434 C   0  0  0  0  0  0  0  0  0  0  0  0
  156.3508  139.3660  184.9458 C   0  0  0  0  0  0  0  0  0  0  0  0
  155.5513  139.6218  183.8759 C   0  0  0  0  0  0  0  0  0  0  0  0
  154.2479  139.0980  183.7362 C   0  0  0  0  0  0  0  0  0  0  0  0
  153.7799  138.2836  184.7527 C   0  0  0  0  0  0  0  0  0  0  0  0
  152.1832  137.5978  184.6279 Cl  0  0  0  0  0  0  0  0  0  0  0  0
  150.6812  135.2972  187.2650 C   0  0  0  0  0  0  0  0  0  0  0  0
  152.0254  135.4903  187.6899 N   0  0  0  0  0  0  0  0  0  0  0  0
  152.2950  136.6151  188.5024 C   0  0  0  0  0  0  0  0  0  0  0  0
  153.1837  137.6688  187.9366 C   0  0  0  0  0  0  0  0  0  0  0  0
  154.0386  137.1653  186.8850 N   0  0  0  0  0  0  0  0  0  0  0  0
  154.3510  135.7472  186.9494 C   0  0  0  0  0  0  0  0  0  0  0  0
  153.0508  135.0077  186.8445 C   0  0  0  0  0  0  0  0  0  0  0  0
  153.4626  139.4149  182.5752 C   0  0  0  0  0  0  0  0  0  0  0  0
  152.8352  139.6729  181.6414 N   0  0  0  0  0  0  0  0  0  0  0  0
 26 27  1  0  0  0
 27 28  1  0  0  0
 28 29  1  0  0  0
 29 30  1  0  0  0
 30 31  1  0  0  0
 31 32  1  0  0  0
 30 19  1  0  0  0
 19 20  2  0  0  0
 20 21  1  0  0  0
 21  1  1  0  0  0
  1  3  1  0  0  0
  3  4  1  0  0  0
  4  5  2  0  0  0
  5 12  1  0  0  0
 12 14  1  0  0  0
 14 15  1  0  0  0
 15 16  1  0  0  0
  5  6  1  0  0  0
  6  7  2  0  0  0
  7  8  1  0  0  0
  8  9  2  0  0  0
  9 17  1  0  0  0
 17 18  3  0  0  0
  9 10  1  0  0  0
 10 11  1  0  0  0
 21 22  2  0  0  0
 22 23  1  0  0  0
 23 24  2  0  0  0
 24 25  1  0  0  0
 23 33  1  0  0  0
 33 34  3  0  0  0
 32 27  1  0  0  0
 24 19  1  0  0  0
 11  3  2  0  0  0
 16 14  1  0  0  0
 10  6  1  0  0  0
  1  2  1  0  0  0
 12 13  1  0  0  0
M  END
> <minimizedAffinity>
-7.91340

> <CNNscore>
0.1598639786

> <CNNaffinity>
6.6415657997

> <CNN_VS>
1.0617470741

> <CNNaffinity_variance>
0.1483570635

$$$$
[H]c1nc2c(N([H])C3([H])C([H])([H])C3([H])[H])nc(N([H])c3c([H])c(C#N)c(Cl)c(N4C([H])([H])C([H])([H])N(C([H])([H])[H])C([H])([H])C4([H])[H])c3[H])nn2c1C#N


 34 38  0  0  0  0  0  0  0  0999 V2000
  157.8925  139.5070  184.8416 N   0  0  0  0  0  0  0  0  0  0  0  0
  158.6386  138.7512  185.0549 H   0  0  0  0  0  0  0  0  0  0  0  0
  158.4266  140.7294  184.4254 C   0  0  0  0  0  0  0  0  0  0  0  0
  159.7140  141.0601  184.7362 N   0  0  0  0  0  0  0  0  0  0  0  0
  160.2932  142.2122  184.3931 C   0  0  0  0  0  0  0  0  0  0  0  0
  159.4996  143.1196  183.6667 C   0  0  0  0  0  0  0  0  0  0  0  0
  159.7694  144.3369  183.1796 N   0  0  0  0  0  0  0  0  0  0  0  0
  158.6966  144.8119  182.5595 C   0  0  0  0  0  0  0  0  0  0  0  0
  157.7068  143.8351  182.6681 C   0  0  0  0  0  0  0  0  0  0  0  0
  158.2301  142.8007  183.3568 N   0  0  0  0  0  0  0  0  0  0  0  0
  157.7372  141.6360  183.7374 N   0  0  0  0  0  0  0  0  0  0  0  0
  161.6101  142.5893  184.6676 N   0  0  0  0  0  0  0  0  0  0  0  0
  162.3755  142.3222  183.9572 H   0  0  0  0  0  0  0  0  0  0  0  0
  162.0377  143.2982  185.8118 C   0  0  0  0  0  0  0  0  0  0  0  0
  162.8671  142.6413  186.8642 C   0  0  0  0  0  0  0  0  0  0  0  0
  161.4670  143.0529  187.1640 C   0  0  0  0  0  0  0  0  0  0  0  0
  156.3705  143.9104  182.1441 C   0  0  0  0  0  0  0  0  0  0  0  0
  155.2755  143.9647  181.7218 N   0  0  0  0  0  0  0  0  0  0  0  0
  154.8528  138.1978  186.5061 C   0  0  0  0  0  0  0  0  0  0  0  0
  156.1373  138.6048  186.2630 C   0  0  0  0  0  0  0  0  0  0  0  0
  156.5480  139.1310  185.0159 C   0  0  0  0  0  0  0  0  0  0  0  0
  155.5877  139.2125  184.0565 C   0  0  0  0  0  0  0  0  0  0  0  0
  154.2508  138.8065  184.2580 C   0  0  0  0  0  0  0  0  0  0  0  0
  153.9228  138.3017  185.5043 C   0  0  0  0  0  0  0  0  0  0  0  0
  152.2906  137.7723  185.8062 Cl  0  0  0  0  0  0  0  0  0  0  0  0
  156.5077  137.2332  191.0368 C   0  0  0  0  0  0  0  0  0  0  0  0
  155.2471  137.2795  190.3782 N   0  0  0  0  0  0  0  0  0  0  0  0
  154.8621  136.1432  189.6308 C   0  0  0  0  0  0  0  0  0  0  0  0
  154.7198  136.3114  188.1572 C   0  0  0  0  0  0  0  0  0  0  0  0
  154.4889  137.6870  187.7771 N   0  0  0  0  0  0  0  0  0  0  0  0
  153.8560  138.5229  188.7840 C   0  0  0  0  0  0  0  0  0  0  0  0
  154.7720  138.5474  189.9709 C   0  0  0  0  0  0  0  0  0  0  0  0
  153.2919  138.9245  183.1943 C   0  0  0  0  0  0  0  0  0  0  0  0
  152.5190  139.0156  182.3420 N   0  0  0  0  0  0  0  0  0  0  0  0
 26 27  1  0  0  0
 27 28  1  0  0  0
 28 29  1  0  0  0
 29 30  1  0  0  0
 30 31  1  0  0  0
 31 32  1  0  0  0
 30 19  1  0  0  0
 19 20  2  0  0  0
 20 21  1  0  0  0
 21  1  1  0  0  0
  1  3  1  0  0  0
  3  4  1  0  0  0
  4  5  2  0  0  0
  5 12  1  0  0  0
 12 14  1  0  0  0
 14 15  1  0  0  0
 15 16  1  0  0  0
  5  6  1  0  0  0
  6  7  2  0  0  0
  7  8  1  0  0  0
  8  9  2  0  0  0
  9 17  1  0  0  0
 17 18  3  0  0  0
  9 10  1  0  0  0
 10 11  1  0  0  0
 21 22  2  0  0  0
 22 23  1  0  0  0
 23 24  2  0  0  0
 24 25  1  0  0  0
 23 33  1  0  0  0
 33 34  3  0  0  0
 32 27  1  0  0  0
 24 19  1  0  0  0
 11  3  2  0  0  0
 16 14  1  0  0  0
 10  6  1  0  0  0
  1  2  1  0  0  0
 12 13  1  0  0  0
M  END
> <minimizedAffinity>
-7.55827

> <CNNscore>
0.1353064924

> <CNNaffinity>
6.9485502243

> <CNN_VS>
0.9401839375

> <CNNaffinity_variance>
0.0286700819

$$$$
[H]c1nc2c(N([H])C3([H])C([H])([H])C3([H])[H])nc(N([H])c3c([H])c(C#N)c(Cl)c(N4C([H])([H])C([H])([H])N(C([H])([H])[H])C([H])([H])C4([H])[H])c3[H])nn2c1C#N


 34 38  0  0  0  0  0  0  0  0999 V2000
  156.6281  139.3419  185.1488 N   0  0  0  0  0  0  0  0  0  0  0  0
  157.0597  138.7754  185.9650 H   0  0  0  0  0  0  0  0  0  0  0  0
  157.4453  140.3743  184.6807 C   0  0  0  0  0  0  0  0  0  0  0  0
  158.2178  141.0892  185.5500 N   0  0  0  0  0  0  0  0  0  0  0  0
  159.0104  142.0997  185.1879 C   0  0  0  0  0  0  0  0  0  0  0  0
  159.0271  142.4222  183.8181 C   0  0  0  0  0  0  0  0  0  0  0  0
  159.6980  143.3604  183.1387 N   0  0  0  0  0  0  0  0  0  0  0  0
  159.3871  143.2801  181.8511 C   0  0  0  0  0  0  0  0  0  0  0  0
  158.4729  142.2343  181.7250 C   0  0  0  0  0  0  0  0  0  0  0  0
  158.2685  141.7222  182.9556 N   0  0  0  0  0  0  0  0  0  0  0  0
  157.5123  140.7356  183.4019 N   0  0  0  0  0  0  0  0  0  0  0  0
  159.8344  142.8475  186.0327 N   0  0  0  0  0  0  0  0  0  0  0  0
  159.5102  143.8352  186.3178 H   0  0  0  0  0  0  0  0  0  0  0  0
  161.0759  142.4213  186.5538 C   0  0  0  0  0  0  0  0  0  0  0  0
  162.0862  143.4027  187.0471 C   0  0  0  0  0  0  0  0  0  0  0  0
  162.3568  142.6040  185.8188 C   0  0  0  0  0  0  0  0  0  0  0  0
  157.8567  141.7797  180.5087 C   0  0  0  0  0  0  0  0  0  0  0  0
  157.3442  141.4111  179.5178 N   0  0  0  0  0  0  0  0  0  0  0  0
  153.3776  137.5648  185.1241 C   0  0  0  0  0  0  0  0  0  0  0  0
  154.6179  138.0160  185.4889 C   0  0  0  0  0  0  0  0  0  0  0  0
  155.3505  138.9449  184.7135 C   0  0  0  0  0  0  0  0  0  0  0  0
  154.7514  139.3727  183.5702 C   0  0  0  0  0  0  0  0  0  0  0  0
  153.4753  138.9378  183.1513 C   0  0  0  0  0  0  0  0  0  0  0  0
  152.8182  138.0282  183.9615 C   0  0  0  0  0  0  0  0  0  0  0  0
  151.2460  137.4461  183.4878 Cl  0  0  0  0  0  0  0  0  0  0  0  0
  153.6658  134.8561  189.2199 C   0  0  0  0  0  0  0  0  0  0  0  0
  152.6549  135.2349  188.2929 N   0  0  0  0  0  0  0  0  0  0  0  0
  152.5614  134.4924  187.0937 C   0  0  0  0  0  0  0  0  0  0  0  0
  152.8524  135.2111  185.8213 C   0  0  0  0  0  0  0  0  0  0  0  0
  152.6794  136.6413  185.9417 N   0  0  0  0  0  0  0  0  0  0  0  0
  151.7391  137.0804  186.9595 C   0  0  0  0  0  0  0  0  0  0  0  0
  152.2620  136.5930  188.2776 C   0  0  0  0  0  0  0  0  0  0  0  0
  152.9073  139.4367  181.9292 C   0  0  0  0  0  0  0  0  0  0  0  0
  152.4542  139.8413  180.9479 N   0  0  0  0  0  0  0  0  0  0  0  0
 26 27  1  0  0  0
 27 28  1  0  0  0
 28 29  1  0  0  0
 29 30  1  0  0  0
 30 31  1  0  0  0
 31 32  1  0  0  0
 30 19  1  0  0  0
 19 20  2  0  0  0
 20 21  1  0  0  0
 21  1  1  0  0  0
  1  3  1  0  0  0
  3  4  1  0  0  0
  4  5  2  0  0  0
  5 12  1  0  0  0
 12 14  1  0  0  0
 14 15  1  0  0  0
 15 16  1  0  0  0
  5  6  1  0  0  0
  6  7  2  0  0  0
  7  8  1  0  0  0
  8  9  2  0  0  0
  9 17  1  0  0  0
 17 18  3  0  0  0
  9 10  1  0  0  0
 10 11  1  0  0  0
 21 22  2  0  0  0
 22 23  1  0  0  0
 23 24  2  0  0  0
 24 25  1  0  0  0
 23 33  1  0  0  0
 33 34  3  0  0  0
 32 27  1  0  0  0
 24 19  1  0  0  0
 11  3  2  0  0  0
 16 14  1  0  0  0
 10  6  1  0  0  0
  1  2  1  0  0  0
 12 13  1  0  0  0
M  END
> <minimizedAffinity>
-7.20312

> <CNNscore>
0.1296578050

> <CNNaffinity>
6.5296249390

> <CNN_VS>
0.8466168642

> <CNNaffinity_variance>
0.1253152192

$$$$
[H]c1nc2c(N([H])C3([H])C([H])([H])C3([H])[H])nc(N([H])c3c([H])c(C#N)c(Cl)c(N4C([H])([H])C([H])([H])N(C([H])([H])[H])C([H])([H])C4([H])[H])c3[H])nn2c1C#N


 34 38  0  0  0  0  0  0  0  0999 V2000
  153.8443  138.1793  185.7051 N   0  0  0  0  0  0  0  0  0  0  0  0
  152.8355  137.8144  185.5545 H   0  0  0  0  0  0  0  0  0  0  0  0
  154.2936  139.0366  184.6972 C   0  0  0  0  0  0  0  0  0  0  0  0
  153.5415  139.2344  183.5753 N   0  0  0  0  0  0  0  0  0  0  0  0
  153.9057  140.0209  182.5607 C   0  0  0  0  0  0  0  0  0  0  0  0
  155.1473  140.6713  182.6875 C   0  0  0  0  0  0  0  0  0  0  0  0
  155.7935  141.5105  181.8689 N   0  0  0  0  0  0  0  0  0  0  0  0
  156.9456  141.8673  182.4223 C   0  0  0  0  0  0  0  0  0  0  0  0
  157.0180  141.2131  183.6521 C   0  0  0  0  0  0  0  0  0  0  0  0
  155.8939  140.4812  183.7901 N   0  0  0  0  0  0  0  0  0  0  0  0
  155.4550  139.6839  184.7473 N   0  0  0  0  0  0  0  0  0  0  0  0
  153.1652  140.2729  181.4031 N   0  0  0  0  0  0  0  0  0  0  0  0
  153.2719  141.2350  180.9290 H   0  0  0  0  0  0  0  0  0  0  0  0
  152.2723  139.3675  180.7885 C   0  0  0  0  0  0  0  0  0  0  0  0
  151.4398  139.7753  179.6191 C   0  0  0  0  0  0  0  0  0  0  0  0
  150.7954  139.4809  180.9297 C   0  0  0  0  0  0  0  0  0  0  0  0
  158.0916  141.2987  184.6039 C   0  0  0  0  0  0  0  0  0  0  0  0
  158.9755  141.3707  185.3746 N   0  0  0  0  0  0  0  0  0  0  0  0
  155.9234  136.0353  187.8972 C   0  0  0  0  0  0  0  0  0  0  0  0
  155.2655  136.5434  186.8091 C   0  0  0  0  0  0  0  0  0  0  0  0
  154.5072  137.7362  186.8642 C   0  0  0  0  0  0  0  0  0  0  0  0
  154.4640  138.3613  188.0710 C   0  0  0  0  0  0  0  0  0  0  0  0
  155.1247  137.8781  189.2212 C   0  0  0  0  0  0  0  0  0  0  0  0
  155.8476  136.7051  189.0910 C   0  0  0  0  0  0  0  0  0  0  0  0
  156.6726  136.0543  190.4806 Cl  0  0  0  0  0  0  0  0  0  0  0  0
  158.5704  132.7471  190.4225 C   0  0  0  0  0  0  0  0  0  0  0  0
  158.0159  132.8530  189.1163 N   0  0  0  0  0  0  0  0  0  0  0  0
  158.7447  133.5946  188.1588 C   0  0  0  0  0  0  0  0  0  0  0  0
  158.1173  134.8426  187.6400 C   0  0  0  0  0  0  0  0  0  0  0  0
  156.6792  134.8414  187.7874 N   0  0  0  0  0  0  0  0  0  0  0  0
  156.0482  133.5322  187.8164 C   0  0  0  0  0  0  0  0  0  0  0  0
  156.6075  132.8033  189.0014 C   0  0  0  0  0  0  0  0  0  0  0  0
  155.0324  138.5962  190.4626 C   0  0  0  0  0  0  0  0  0  0  0  0
  154.9581  139.1686  191.4620 N   0  0  0  0  0  0  0  0  0  0  0  0
 26 27  1  0  0  0
 27 28  1  0  0  0
 28 29  1  0  0  0
 29 30  1  0  0  0
 30 31  1  0  0  0
 31 32  1  0  0  0
 30 19  1  0  0  0
 19 20  2  0  0  0
 20 21  1  0  0  0
 21  1  1  0  0  0
  1  3  1  0  0  0
  3  4  1  0  0  0
  4  5  2  0  0  0
  5 12  1  0  0  0
 12 14  1  0  0  0
 14 15  1  0  0  0
 15 16  1  0  0  0
  5  6  1  0  0  0
  6  7  2  0  0  0
  7  8  1  0  0  0
  8  9  2  0  0  0
  9 17  1  0  0  0
 17 18  3  0  0  0
  9 10  1  0  0  0
 10 11  1  0  0  0
 21 22  2  0  0  0
 22 23  1  0  0  0
 23 24  2  0  0  0
 24 25  1  0  0  0
 23 33  1  0  0  0
 33 34  3  0  0  0
 32 27  1  0  0  0
 24 19  1  0  0  0
 11  3  2  0  0  0
 16 14  1  0  0  0
 10  6  1  0  0  0
  1  2  1  0  0  0
 12 13  1  0  0  0
M  END
> <minimizedAffinity>
-7.28587

> <CNNscore>
0.1232761517

> <CNNaffinity>
6.1511836052

> <CNN_VS>
0.7582942247

> <CNNaffinity_variance>
0.0430802815

$$$$
[H]c1nc2c(N([H])C3([H])C([H])([H])C3([H])[H])nc(N([H])c3c([H])c(C#N)c(Cl)c(N4C([H])([H])C([H])([H])N(C([H])([H])[H])C([H])([H])C4([H])[H])c3[H])nn2c1C#N


 34 38  0  0  0  0  0  0  0  0999 V2000
  154.2336  137.2861  186.0990 N   0  0  0  0  0  0  0  0  0  0  0  0
  153.5006  136.5401  185.8167 H   0  0  0  0  0  0  0  0  0  0  0  0
  154.4345  138.2771  185.1346 C   0  0  0  0  0  0  0  0  0  0  0  0
  155.5647  139.0424  185.1586 N   0  0  0  0  0  0  0  0  0  0  0  0
  155.8243  140.0190  184.2872 C   0  0  0  0  0  0  0  0  0  0  0  0
  154.8522  140.2479  183.2956 C   0  0  0  0  0  0  0  0  0  0  0  0
  154.8044  141.1319  182.2917 N   0  0  0  0  0  0  0  0  0  0  0  0
  153.6765  140.9675  181.6120 C   0  0  0  0  0  0  0  0  0  0  0  0
  152.9868  139.9236  182.2286 C   0  0  0  0  0  0  0  0  0  0  0  0
  153.7360  139.4978  183.2658 N   0  0  0  0  0  0  0  0  0  0  0  0
  153.5607  138.5504  184.1692 N   0  0  0  0  0  0  0  0  0  0  0  0
  156.9721  140.8150  184.2556 N   0  0  0  0  0  0  0  0  0  0  0  0
  156.8929  141.8076  183.8428 H   0  0  0  0  0  0  0  0  0  0  0  0
  158.2489  140.4303  184.7206 C   0  0  0  0  0  0  0  0  0  0  0  0
  159.4933  140.9976  184.1235 C   0  0  0  0  0  0  0  0  0  0  0  0
  159.1590  139.5588  183.9290 C   0  0  0  0  0  0  0  0  0  0  0  0
  151.7099  139.3932  181.8359 C   0  0  0  0  0  0  0  0  0  0  0  0
  150.6703  138.9507  181.5137 N   0  0  0  0  0  0  0  0  0  0  0  0
  156.2940  135.7829  188.7861 C   0  0  0  0  0  0  0  0  0  0  0  0
  155.6844  136.0176  187.5826 C   0  0  0  0  0  0  0  0  0  0  0  0
  154.8380  137.1288  187.3597 C   0  0  0  0  0  0  0  0  0  0  0  0
  154.6576  137.9640  188.4176 C   0  0  0  0  0  0  0  0  0  0  0  0
  155.2634  137.7655  189.6772 C   0  0  0  0  0  0  0  0  0  0  0  0
  156.0789  136.6564  189.8205 C   0  0  0  0  0  0  0  0  0  0  0  0
  156.8424  136.3535  191.3569 Cl  0  0  0  0  0  0  0  0  0  0  0  0
  157.9755  131.6961  186.6258 C   0  0  0  0  0  0  0  0  0  0  0  0
  158.2845  132.4623  187.7844 N   0  0  0  0  0  0  0  0  0  0  0  0
  157.4958  132.2448  188.9370 C   0  0  0  0  0  0  0  0  0  0  0  0
  156.6529  133.3783  189.4114 C   0  0  0  0  0  0  0  0  0  0  0  0
  157.1421  134.6600  188.9554 N   0  0  0  0  0  0  0  0  0  0  0  0
  158.5673  134.7302  188.6785 C   0  0  0  0  0  0  0  0  0  0  0  0
  158.8497  133.7431  187.5858 C   0  0  0  0  0  0  0  0  0  0  0  0
  155.0247  138.6938  190.7478 C   0  0  0  0  0  0  0  0  0  0  0  0
  154.8329  139.4431  191.6045 N   0  0  0  0  0  0  0  0  0  0  0  0
 26 27  1  0  0  0
 27 28  1  0  0  0
 28 29  1  0  0  0
 29 30  1  0  0  0
 30 31  1  0  0  0
 31 32  1  0  0  0
 30 19  1  0  0  0
 19 20  2  0  0  0
 20 21  1  0  0  0
 21  1  1  0  0  0
  1  3  1  0  0  0
  3  4  1  0  0  0
  4  5  2  0  0  0
  5 12  1  0  0  0
 12 14  1  0  0  0
 14 15  1  0  0  0
 15 16  1  0  0  0
  5  6  1  0  0  0
  6  7  2  0  0  0
  7  8  1  0  0  0
  8  9  2  0  0  0
  9 17  1  0  0  0
 17 18  3  0  0  0
  9 10  1  0  0  0
 10 11  1  0  0  0
 21 22  2  0  0  0
 22 23  1  0  0  0
 23 24  2  0  0  0
 24 25  1  0  0  0
 23 33  1  0  0  0
 33 34  3  0  0  0
 32 27  1  0  0  0
 24 19  1  0  0  0
 11  3  2  0  0  0
 16 14  1  0  0  0
 10  6  1  0  0  0
  1  2  1  0  0  0
 12 13  1  0  0  0
M  END
> <minimizedAffinity>
-6.70656

> <CNNscore>
0.1222179905

> <CNNaffinity>
6.1810913086

> <CNN_VS>
0.7554405332

> <CNNaffinity_variance>
0.0484305955

$$$$
[H]c1nc2c(N([H])C3([H])C([H])([H])C3([H])[H])nc(N([H])c3c([H])c(C#N)c(Cl)c(N4C([H])([H])C([H])([H])N(C([H])([H])[H])C([H])([H])C4([H])[H])c3[H])nn2c1C#N


 34 38  0  0  0  0  0  0  0  0999 V2000
  153.6723  140.7414  182.0359 N   0  0  0  0  0  0  0  0  0  0  0  0
  153.4911  141.7648  181.7305 H   0  0  0  0  0  0  0  0  0  0  0  0
  154.9300  140.5347  182.6087 C   0  0  0  0  0  0  0  0  0  0  0  0
  155.0445  139.8811  183.8017 N   0  0  0  0  0  0  0  0  0  0  0  0
  156.2039  139.6588  184.4236 C   0  0  0  0  0  0  0  0  0  0  0  0
  157.3604  140.1414  183.7829 C   0  0  0  0  0  0  0  0  0  0  0  0
  158.6518  140.0868  184.1307 N   0  0  0  0  0  0  0  0  0  0  0  0
  159.3851  140.6853  183.2006 C   0  0  0  0  0  0  0  0  0  0  0  0
  158.4994  141.1360  182.2219 C   0  0  0  0  0  0  0  0  0  0  0  0
  157.2553  140.7865  182.6072 N   0  0  0  0  0  0  0  0  0  0  0  0
  156.0652  140.9624  182.0622 N   0  0  0  0  0  0  0  0  0  0  0  0
  156.3768  138.9787  185.6316 N   0  0  0  0  0  0  0  0  0  0  0  0
  157.3596  138.9676  186.0744 H   0  0  0  0  0  0  0  0  0  0  0  0
  155.3649  138.2901  186.3363 C   0  0  0  0  0  0  0  0  0  0  0  0
  155.5215  137.9510  187.7811 C   0  0  0  0  0  0  0  0  0  0  0  0
  155.5078  136.8698  186.7562 C   0  0  0  0  0  0  0  0  0  0  0  0
  158.8426  141.8445  181.0193 C   0  0  0  0  0  0  0  0  0  0  0  0
  159.1208  142.4158  180.0310 N   0  0  0  0  0  0  0  0  0  0  0  0
  151.3929  137.8793  182.6175 C   0  0  0  0  0  0  0  0  0  0  0  0
  152.3742  138.8215  182.7735 C   0  0  0  0  0  0  0  0  0  0  0  0
  152.6311  139.8230  181.8082 C   0  0  0  0  0  0  0  0  0  0  0  0
  151.8423  139.8014  180.7007 C   0  0  0  0  0  0  0  0  0  0  0  0
  150.8185  138.8518  180.4935 C   0  0  0  0  0  0  0  0  0  0  0  0
  150.6254  137.9023  181.4818 C   0  0  0  0  0  0  0  0  0  0  0  0
  149.3849  136.6968  181.2741 Cl  0  0  0  0  0  0  0  0  0  0  0  0
  151.9476  136.8761  187.4010 C   0  0  0  0  0  0  0  0  0  0  0  0
  151.2572  136.3098  186.2931 N   0  0  0  0  0  0  0  0  0  0  0  0
  151.9979  135.4796  185.4212 C   0  0  0  0  0  0  0  0  0  0  0  0
  152.1816  135.9525  184.0201 C   0  0  0  0  0  0  0  0  0  0  0  0
  151.1682  136.9026  183.6197 N   0  0  0  0  0  0  0  0  0  0  0  0
  149.8941  136.7965  184.3112 C   0  0  0  0  0  0  0  0  0  0  0  0
  150.1649  137.0367  185.7664 C   0  0  0  0  0  0  0  0  0  0  0  0
  150.0254  138.8942  179.2960 C   0  0  0  0  0  0  0  0  0  0  0  0
  149.3865  138.9327  178.3355 N   0  0  0  0  0  0  0  0  0  0  0  0
 26 27  1  0  0  0
 27 28  1  0  0  0
 28 29  1  0  0  0
 29 30  1  0  0  0
 30 31  1  0  0  0
 31 32  1  0  0  0
 30 19  1  0  0  0
 19 20  2  0  0  0
 20 21  1  0  0  0
 21  1  1  0  0  0
  1  3  1  0  0  0
  3  4  1  0  0  0
  4  5  2  0  0  0
  5 12  1  0  0  0
 12 14  1  0  0  0
 14 15  1  0  0  0
 15 16  1  0  0  0
  5  6  1  0  0  0
  6  7  2  0  0  0
  7  8  1  0  0  0
  8  9  2  0  0  0
  9 17  1  0  0  0
 17 18  3  0  0  0
  9 10  1  0  0  0
 10 11  1  0  0  0
 21 22  2  0  0  0
 22 23  1  0  0  0
 23 24  2  0  0  0
 24 25  1  0  0  0
 23 33  1  0  0  0
 33 34  3  0  0  0
 32 27  1  0  0  0
 24 19  1  0  0  0
 11  3  2  0  0  0
 16 14  1  0  0  0
 10  6  1  0  0  0
  1  2  1  0  0  0
 12 13  1  0  0  0
M  END
> <minimizedAffinity>
-6.80894

> <CNNscore>
0.1030645296

> <CNNaffinity>
6.1882200241

> <CNN_VS>
0.6377859712

> <CNNaffinity_variance>
0.1146425977

$$$$
[H]c1nc2c(N([H])C3([H])C([H])([H])C3([H])[H])nc(N([H])c3c([H])c(C#N)c(Cl)c(N4C([H])([H])C([H])([H])N(C([H])([H])[H])C([H])([H])C4([H])[H])c3[H])nn2c1C#N


 34 38  0  0  0  0  0  0  0  0999 V2000
  155.1485  140.1561  184.4139 N   0  0  0  0  0  0  0  0  0  0  0  0
  154.3746  140.9098  184.4935 H   0  0  0  0  0  0  0  0  0  0  0  0
  156.4070  140.6679  184.0868 C   0  0  0  0  0  0  0  0  0  0  0  0
  157.3212  140.9267  185.0670 N   0  0  0  0  0  0  0  0  0  0  0  0
  158.5357  141.4315  184.8416 C   0  0  0  0  0  0  0  0  0  0  0  0
  158.8617  141.7022  183.4995 C   0  0  0  0  0  0  0  0  0  0  0  0
  159.9721  142.2010  182.9427 N   0  0  0  0  0  0  0  0  0  0  0  0
  159.8110  142.2761  181.6276 C   0  0  0  0  0  0  0  0  0  0  0  0
  158.5298  141.7973  181.3538 C   0  0  0  0  0  0  0  0  0  0  0  0
  157.9659  141.4499  182.5283 N   0  0  0  0  0  0  0  0  0  0  0  0
  156.7849  140.9489  182.8424 N   0  0  0  0  0  0  0  0  0  0  0  0
  159.5133  141.6943  185.8044 N   0  0  0  0  0  0  0  0  0  0  0  0
  159.2969  141.4479  186.8312 H   0  0  0  0  0  0  0  0  0  0  0  0
  160.7799  142.2655  185.5512 C   0  0  0  0  0  0  0  0  0  0  0  0
  161.6644  142.7123  186.6669 C   0  0  0  0  0  0  0  0  0  0  0  0
  161.0571  143.7143  185.7468 C   0  0  0  0  0  0  0  0  0  0  0  0
  157.9159  141.6909  180.0585 C   0  0  0  0  0  0  0  0  0  0  0  0
  157.4094  141.6124  179.0013 N   0  0  0  0  0  0  0  0  0  0  0  0
  154.7041  136.9469  186.2107 C   0  0  0  0  0  0  0  0  0  0  0  0
  155.0340  138.2411  185.9088 C   0  0  0  0  0  0  0  0  0  0  0  0
  154.7578  138.8254  184.6505 C   0  0  0  0  0  0  0  0  0  0  0  0
  154.1395  138.0239  183.7426 C   0  0  0  0  0  0  0  0  0  0  0  0
  153.7793  136.6845  184.0056 C   0  0  0  0  0  0  0  0  0  0  0  0
  154.0813  136.1815  185.2592 C   0  0  0  0  0  0  0  0  0  0  0  0
  153.6723  134.5304  185.6356 Cl  0  0  0  0  0  0  0  0  0  0  0  0
  156.5183  138.0074  190.6583 C   0  0  0  0  0  0  0  0  0  0  0  0
  155.8106  136.9311  190.0536 N   0  0  0  0  0  0  0  0  0  0  0  0
  156.5640  135.9931  189.3117 C   0  0  0  0  0  0  0  0  0  0  0  0
  156.3023  135.9124  187.8470 C   0  0  0  0  0  0  0  0  0  0  0  0
  154.9931  136.4114  187.4908 N   0  0  0  0  0  0  0  0  0  0  0  0
  153.9815  136.3307  188.5315 C   0  0  0  0  0  0  0  0  0  0  0  0
  154.4673  137.1645  189.6792 C   0  0  0  0  0  0  0  0  0  0  0  0
  153.1267  135.8999  182.9939 C   0  0  0  0  0  0  0  0  0  0  0  0
  152.6066  135.2702  182.1784 N   0  0  0  0  0  0  0  0  0  0  0  0
 26 27  1  0  0  0
 27 28  1  0  0  0
 28 29  1  0  0  0
 29 30  1  0  0  0
 30 31  1  0  0  0
 31 32  1  0  0  0
 30 19  1  0  0  0
 19 20  2  0  0  0
 20 21  1  0  0  0
 21  1  1  0  0  0
  1  3  1  0  0  0
  3  4  1  0  0  0
  4  5  2  0  0  0
  5 12  1  0  0  0
 12 14  1  0  0  0
 14 15  1  0  0  0
 15 16  1  0  0  0
  5  6  1  0  0  0
  6  7  2  0  0  0
  7  8  1  0  0  0
  8  9  2  0  0  0
  9 17  1  0  0  0
 17 18  3  0  0  0
  9 10  1  0  0  0
 10 11  1  0  0  0
 21 22  2  0  0  0
 22 23  1  0  0  0
 23 24  2  0  0  0
 24 25  1  0  0  0
 23 33  1  0  0  0
 33 34  3  0  0  0
 32 27  1  0  0  0
 24 19  1  0  0  0
 11  3  2  0  0  0
 16 14  1  0  0  0
 10  6  1  0  0  0
  1  2  1  0  0  0
 12 13  1  0  0  0
M  END
> <minimizedAffinity>
-6.95944

> <CNNscore>
0.1029139310

> <CNNaffinity>
6.6727814674

> <CNN_VS>
0.6867221594

> <CNNaffinity_variance>
0.0481687300

$$$$
[H]c1c([H])c(N2C([H])([H])C([H])([H])N(C([H])([H])[H])C([H])([H])C2([H])[H])c([H])c([H])c1N([H])c1nc([H])c2c3c([H])c([H])c([H])c([H])c3n(C([H])([H])[H])c2n1


 29 33  0  0  0  0  0  0  0  0999 V2000
  154.7021  139.8119  183.6073 N   0  0  0  0  0  0  0  0  0  0  0  0
  155.5026  140.4523  183.3062 H   0  0  0  0  0  0  0  0  0  0  0  0
  153.6455  139.6482  182.6890 C   0  0  0  0  0  0  0  0  0  0  0  0
  153.2986  140.4918  181.7344 N   0  0  0  0  0  0  0  0  0  0  0  0
  152.2723  140.2445  180.9055 C   0  0  0  0  0  0  0  0  0  0  0  0
  151.5244  139.0944  181.0073 C   0  0  0  0  0  0  0  0  0  0  0  0
  151.8690  138.1940  182.0012 C   0  0  0  0  0  0  0  0  0  0  0  0
  152.8966  138.5080  182.7826 N   0  0  0  0  0  0  0  0  0  0  0  0
  151.0128  137.1480  181.9205 N   0  0  0  0  0  0  0  0  0  0  0  0
  151.0614  136.0038  182.7994 C   0  0  0  0  0  0  0  0  0  0  0  0
  150.1351  137.3293  180.9259 C   0  0  0  0  0  0  0  0  0  0  0  0
  149.0882  136.5817  180.4402 C   0  0  0  0  0  0  0  0  0  0  0  0
  148.3649  137.0662  179.3759 C   0  0  0  0  0  0  0  0  0  0  0  0
  148.6450  138.2745  178.7722 C   0  0  0  0  0  0  0  0  0  0  0  0
  149.6917  139.0040  179.2710 C   0  0  0  0  0  0  0  0  0  0  0  0
  150.4523  138.5629  180.3402 C   0  0  0  0  0  0  0  0  0  0  0  0
  155.2121  138.0398  187.4568 C   0  0  0  0  0  0  0  0  0  0  0  0
  156.2606  138.3389  186.6221 C   0  0  0  0  0  0  0  0  0  0  0  0
  156.0789  138.9016  185.3858 C   0  0  0  0  0  0  0  0  0  0  0  0
  154.7982  139.2167  184.8769 C   0  0  0  0  0  0  0  0  0  0  0  0
  153.7562  138.9166  185.7151 C   0  0  0  0  0  0  0  0  0  0  0  0
  153.9581  138.3395  186.9796 C   0  0  0  0  0  0  0  0  0  0  0  0
  156.5793  135.3212  191.7993 C   0  0  0  0  0  0  0  0  0  0  0  0
  155.6115  136.2955  191.3327 N   0  0  0  0  0  0  0  0  0  0  0  0
  154.8646  135.6999  190.2558 C   0  0  0  0  0  0  0  0  0  0  0  0
  155.6122  136.0434  188.9570 C   0  0  0  0  0  0  0  0  0  0  0  0
  155.4018  137.4527  188.7363 N   0  0  0  0  0  0  0  0  0  0  0  0
  155.3947  138.2992  189.9328 C   0  0  0  0  0  0  0  0  0  0  0  0
  156.1989  137.5578  190.9849 C   0  0  0  0  0  0  0  0  0  0  0  0
 23 24  1  0  0  0
 24 25  1  0  0  0
 25 26  1  0  0  0
 26 27  1  0  0  0
 27 28  1  0  0  0
 28 29  1  0  0  0
 27 17  1  0  0  0
 17 18  2  0  0  0
 18 19  1  0  0  0
 19 20  2  0  0  0
 20  1  1  0  0  0
  1  3  1  0  0  0
  3  4  2  0  0  0
  4  5  1  0  0  0
  5  6  2  0  0  0
  6  7  1  0  0  0
  7  8  2  0  0  0
  7  9  1  0  0  0
  9 10  1  0  0  0
  9 11  1  0  0  0
 11 12  2  0  0  0
 12 13  1  0  0  0
 13 14  2  0  0  0
 14 15  1  0  0  0
 15 16  2  0  0  0
 20 21  1  0  0  0
 21 22  2  0  0  0
 29 24  1  0  0  0
 22 17  1  0  0  0
  8  3  1  0  0  0
 16 11  1  0  0  0
 16  6  1  0  0  0
  1  2  1  0  0  0
M  END
> <minimizedAffinity>
-7.57932

> <CNNscore>
0.3406276107

> <CNNaffinity>
5.4565062523

> <CNN_VS>
1.8586367369

> <CNNaffinity_variance>
0.0969528258

$$$$
[H]c1c([H])c(N2C([H])([H])C([H])([H])N(C([H])([H])[H])C([H])([H])C2([H])[H])c([H])c([H])c1N([H])c1nc([H])c2c3c([H])c([H])c([H])c([H])c3n(C([H])([H])[H])c2n1


 29 33  0  0  0  0  0  0  0  0999 V2000
  155.3061  138.8172  185.4150 N   0  0  0  0  0  0  0  0  0  0  0  0
  156.3585  138.9723  185.3146 H   0  0  0  0  0  0  0  0  0  0  0  0
  154.5141  139.1148  184.2877 C   0  0  0  0  0  0  0  0  0  0  0  0
  154.6146  140.1834  183.5190 N   0  0  0  0  0  0  0  0  0  0  0  0
  153.8103  140.3771  182.4621 C   0  0  0  0  0  0  0  0  0  0  0  0
  152.8344  139.4688  182.1228 C   0  0  0  0  0  0  0  0  0  0  0  0
  152.7095  138.3396  182.9144 C   0  0  0  0  0  0  0  0  0  0  0  0
  153.5416  138.2176  183.9428 N   0  0  0  0  0  0  0  0  0  0  0  0
  151.7011  137.5927  182.4054 N   0  0  0  0  0  0  0  0  0  0  0  0
  151.2753  136.3330  182.9675 C   0  0  0  0  0  0  0  0  0  0  0  0
  151.1709  138.1834  181.3272 C   0  0  0  0  0  0  0  0  0  0  0  0
  150.1516  137.8451  180.4686 C   0  0  0  0  0  0  0  0  0  0  0  0
  149.8495  138.6945  179.4305 C   0  0  0  0  0  0  0  0  0  0  0  0
  150.5272  139.8761  179.2125 C   0  0  0  0  0  0  0  0  0  0  0  0
  151.5392  140.1949  180.0790 C   0  0  0  0  0  0  0  0  0  0  0  0
  151.8844  139.3756  181.1401 C   0  0  0  0  0  0  0  0  0  0  0  0
  154.1069  137.3383  189.2352 C   0  0  0  0  0  0  0  0  0  0  0  0
  155.3880  137.2256  188.7539 C   0  0  0  0  0  0  0  0  0  0  0  0
  155.7548  137.6999  187.5216 C   0  0  0  0  0  0  0  0  0  0  0  0
  154.8420  138.3411  186.6533 C   0  0  0  0  0  0  0  0  0  0  0  0
  153.5654  138.4512  187.1400 C   0  0  0  0  0  0  0  0  0  0  0  0
  153.2043  137.9597  188.4051 C   0  0  0  0  0  0  0  0  0  0  0  0
  152.0660  134.9606  193.5130 C   0  0  0  0  0  0  0  0  0  0  0  0
  152.9988  136.0057  193.1366 N   0  0  0  0  0  0  0  0  0  0  0  0
  152.2742  137.0011  192.3907 C   0  0  0  0  0  0  0  0  0  0  0  0
  152.3638  136.5958  190.9104 C   0  0  0  0  0  0  0  0  0  0  0  0
  153.7271  136.8424  190.5110 N   0  0  0  0  0  0  0  0  0  0  0  0
  154.7563  136.5456  191.5115 C   0  0  0  0  0  0  0  0  0  0  0  0
  154.1566  135.5122  192.4471 C   0  0  0  0  0  0  0  0  0  0  0  0
 23 24  1  0  0  0
 24 25  1  0  0  0
 25 26  1  0  0  0
 26 27  1  0  0  0
 27 28  1  0  0  0
 28 29  1  0  0  0
 27 17  1  0  0  0
 17 18  2  0  0  0
 18 19  1  0  0  0
 19 20  2  0  0  0
 20  1  1  0  0  0
  1  3  1  0  0  0
  3  4  2  0  0  0
  4  5  1  0  0  0
  5  6  2  0  0  0
  6  7  1  0  0  0
  7  8  2  0  0  0
  7  9  1  0  0  0
  9 10  1  0  0  0
  9 11  1  0  0  0
 11 12  2  0  0  0
 12 13  1  0  0  0
 13 14  2  0  0  0
 14 15  1  0  0  0
 15 16  2  0  0  0
 20 21  1  0  0  0
 21 22  2  0  0  0
 29 24  1  0  0  0
 22 17  1  0  0  0
  8  3  1  0  0  0
 16 11  1  0  0  0
 16  6  1  0  0  0
  1  2  1  0  0  0
M  END
> <minimizedAffinity>
-8.06166

> <CNNscore>
0.2956682146

> <CNNaffinity>
5.3233284950

> <CNN_VS>
1.5739390850

> <CNNaffinity_variance>
0.1324187219

$$$$
[H]c1c([H])c(N2C([H])([H])C([H])([H])N(C([H])([H])[H])C([H])([H])C2([H])[H])c([H])c([H])c1N([H])c1nc([H])c2c3c([H])c([H])c([H])c([H])c3n(C([H])([H])[H])c2n1


 29 33  0  0  0  0  0  0  0  0999 V2000
  152.6475  139.2581  182.7567 N   0  0  0  0  0  0  0  0  0  0  0  0
  152.4663  138.6741  183.6329 H   0  0  0  0  0  0  0  0  0  0  0  0
  151.7345  139.1017  181.6944 C   0  0  0  0  0  0  0  0  0  0  0  0
  151.6185  139.8857  180.6384 N   0  0  0  0  0  0  0  0  0  0  0  0
  150.7139  139.6516  179.6750 C   0  0  0  0  0  0  0  0  0  0  0  0
  149.8559  138.5780  179.7372 C   0  0  0  0  0  0  0  0  0  0  0  0
  149.9583  137.7411  180.8356 C   0  0  0  0  0  0  0  0  0  0  0  0
  150.8777  138.0374  181.7477 N   0  0  0  0  0  0  0  0  0  0  0  0
  149.0315  136.7640  180.6933 N   0  0  0  0  0  0  0  0  0  0  0  0
  148.8379  135.6989  181.6483 C   0  0  0  0  0  0  0  0  0  0  0  0
  148.3382  136.9295  179.5599 C   0  0  0  0  0  0  0  0  0  0  0  0
  147.3140  136.2294  178.9669 C   0  0  0  0  0  0  0  0  0  0  0  0
  146.8115  136.6776  177.7681 C   0  0  0  0  0  0  0  0  0  0  0  0
  147.2920  137.8036  177.1323 C   0  0  0  0  0  0  0  0  0  0  0  0
  148.3123  138.4869  177.7395 C   0  0  0  0  0  0  0  0  0  0  0  0
  148.8549  138.0791  178.9460 C   0  0  0  0  0  0  0  0  0  0  0  0
  156.1723  141.6618  182.8853 C   0  0  0  0  0  0  0  0  0  0  0  0
  156.0580  140.4596  183.5390 C   0  0  0  0  0  0  0  0  0  0  0  0
  154.9161  139.7033  183.4930 C   0  0  0  0  0  0  0  0  0  0  0  0
  153.7700  140.1038  182.7688 C   0  0  0  0  0  0  0  0  0  0  0  0
  153.8909  141.3039  182.1180 C   0  0  0  0  0  0  0  0  0  0  0  0
  155.0678  142.0683  182.1748 C   0  0  0  0  0  0  0  0  0  0  0  0
  160.0219  145.2674  183.4314 C   0  0  0  0  0  0  0  0  0  0  0  0
  159.7823  143.9406  182.8966 N   0  0  0  0  0  0  0  0  0  0  0  0
  158.7672  144.0470  181.8815 C   0  0  0  0  0  0  0  0  0  0  0  0
  157.4155  143.8436  182.5854 C   0  0  0  0  0  0  0  0  0  0  0  0
  157.3552  142.4467  182.9373 N   0  0  0  0  0  0  0  0  0  0  0  0
  158.6137  141.8367  183.3756 C   0  0  0  0  0  0  0  0  0  0  0  0
  159.4745  142.9684  183.9062 C   0  0  0  0  0  0  0  0  0  0  0  0
 23 24  1  0  0  0
 24 25  1  0  0  0
 25 26  1  0  0  0
 26 27  1  0  0  0
 27 28  1  0  0  0
 28 29  1  0  0  0
 27 17  1  0  0  0
 17 18  2  0  0  0
 18 19  1  0  0  0
 19 20  2  0  0  0
 20  1  1  0  0  0
  1  3  1  0  0  0
  3  4  2  0  0  0
  4  5  1  0  0  0
  5  6  2  0  0  0
  6  7  1  0  0  0
  7  8  2  0  0  0
  7  9  1  0  0  0
  9 10  1  0  0  0
  9 11  1  0  0  0
 11 12  2  0  0  0
 12 13  1  0  0  0
 13 14  2  0  0  0
 14 15  1  0  0  0
 15 16  2  0  0  0
 20 21  1  0  0  0
 21 22  2  0  0  0
 29 24  1  0  0  0
 22 17  1  0  0  0
  8  3  1  0  0  0
 16 11  1  0  0  0
 16  6  1  0  0  0
  1  2  1  0  0  0
M  END
> <minimizedAffinity>
-8.18219

> <CNNscore>
0.2535797060

> <CNNaffinity>
5.8733296394

> <CNN_VS>
1.4893572330

> <CNNaffinity_variance>
0.0259887185

$$$$
[H]c1c([H])c(N2C([H])([H])C([H])([H])N(C([H])([H])[H])C([H])([H])C2([H])[H])c([H])c([H])c1N([H])c1nc([H])c2c3c([H])c([H])c([H])c([H])c3n(C([H])([H])[H])c2n1


 29 33  0  0  0  0  0  0  0  0999 V2000
  154.3774  137.8386  187.8762 N   0  0  0  0  0  0  0  0  0  0  0  0
  154.8329  138.8004  187.7812 H   0  0  0  0  0  0  0  0  0  0  0  0
  153.9019  137.4894  189.1563 C   0  0  0  0  0  0  0  0  0  0  0  0
  154.5280  137.6774  190.3034 N   0  0  0  0  0  0  0  0  0  0  0  0
  153.9890  137.3092  191.4762 C   0  0  0  0  0  0  0  0  0  0  0  0
  152.7509  136.7137  191.5453 C   0  0  0  0  0  0  0  0  0  0  0  0
  152.0745  136.5058  190.3550 C   0  0  0  0  0  0  0  0  0  0  0  0
  152.6720  136.8970  189.2348 N   0  0  0  0  0  0  0  0  0  0  0  0
  150.8929  135.9155  190.6536 N   0  0  0  0  0  0  0  0  0  0  0  0
  149.9107  135.5441  189.6630 C   0  0  0  0  0  0  0  0  0  0  0  0
  150.7745  135.7329  191.9746 C   0  0  0  0  0  0  0  0  0  0  0  0
  149.7928  135.1906  192.7702 C   0  0  0  0  0  0  0  0  0  0  0  0
  149.9872  135.1536  194.1309 C   0  0  0  0  0  0  0  0  0  0  0  0
  151.1287  135.6386  194.7346 C   0  0  0  0  0  0  0  0  0  0  0  0
  152.0946  136.1747  193.9245 C   0  0  0  0  0  0  0  0  0  0  0  0
  151.9498  136.2369  192.5491 C   0  0  0  0  0  0  0  0  0  0  0  0
  154.1452  135.6033  184.2475 C   0  0  0  0  0  0  0  0  0  0  0  0
  153.8014  136.9297  184.3365 C   0  0  0  0  0  0  0  0  0  0  0  0
  153.8752  137.6311  185.5115 C   0  0  0  0  0  0  0  0  0  0  0  0
  154.3111  137.0419  186.7203 C   0  0  0  0  0  0  0  0  0  0  0  0
  154.6536  135.7182  186.6245 C   0  0  0  0  0  0  0  0  0  0  0  0
  154.5722  135.0123  185.4130 C   0  0  0  0  0  0  0  0  0  0  0  0
  153.9606  132.1242  180.2500 C   0  0  0  0  0  0  0  0  0  0  0  0
  153.9817  133.5515  180.5074 N   0  0  0  0  0  0  0  0  0  0  0  0
  155.2038  133.8599  181.2028 C   0  0  0  0  0  0  0  0  0  0  0  0
  154.8980  133.7457  182.7052 C   0  0  0  0  0  0  0  0  0  0  0  0
  154.0642  134.8764  183.0297 N   0  0  0  0  0  0  0  0  0  0  0  0
  153.0809  135.2654  182.0148 C   0  0  0  0  0  0  0  0  0  0  0  0
  152.8087  134.0236  181.1861 C   0  0  0  0  0  0  0  0  0  0  0  0
 23 24  1  0  0  0
 24 25  1  0  0  0
 25 26  1  0  0  0
 26 27  1  0  0  0
 27 28  1  0  0  0
 28 29  1  0  0  0
 27 17  1  0  0  0
 17 18  2  0  0  0
 18 19  1  0  0  0
 19 20  2  0  0  0
 20  1  1  0  0  0
  1  3  1  0  0  0
  3  4  2  0  0  0
  4  5  1  0  0  0
  5  6  2  0  0  0
  6  7  1  0  0  0
  7  8  2  0  0  0
  7  9  1  0  0  0
  9 10  1  0  0  0
  9 11  1  0  0  0
 11 12  2  0  0  0
 12 13  1  0  0  0
 13 14  2  0  0  0
 14 15  1  0  0  0
 15 16  2  0  0  0
 20 21  1  0  0  0
 21 22  2  0  0  0
 29 24  1  0  0  0
 22 17  1  0  0  0
  8  3  1  0  0  0
 16 11  1  0  0  0
 16  6  1  0  0  0
  1  2  1  0  0  0
M  END
> <minimizedAffinity>
-5.69013

> <CNNscore>
0.2137323767

> <CNNaffinity>
5.0247106552

> <CNN_VS>
1.0739433765

> <CNNaffinity_variance>
0.0463073440

$$$$
[H]c1c([H])c(N2C([H])([H])C([H])([H])N(C([H])([H])[H])C([H])([H])C2([H])[H])c([H])c([H])c1N([H])c1nc([H])c2c3c([H])c([H])c([H])c([H])c3n(C([H])([H])[H])c2n1


 29 33  0  0  0  0  0  0  0  0999 V2000
  153.4341  135.5645  186.1083 N   0  0  0  0  0  0  0  0  0  0  0  0
  154.1489  134.7911  185.9278 H   0  0  0  0  0  0  0  0  0  0  0  0
  153.1671  136.4395  185.0361 C   0  0  0  0  0  0  0  0  0  0  0  0
  154.0363  137.2304  184.4344 N   0  0  0  0  0  0  0  0  0  0  0  0
  153.6832  138.0308  183.4164 C   0  0  0  0  0  0  0  0  0  0  0  0
  152.3916  138.0698  182.9445 C   0  0  0  0  0  0  0  0  0  0  0  0
  151.4615  137.2490  183.5598 C   0  0  0  0  0  0  0  0  0  0  0  0
  151.8859  136.4849  184.5603 N   0  0  0  0  0  0  0  0  0  0  0  0
  150.2716  137.4455  182.9439 N   0  0  0  0  0  0  0  0  0  0  0  0
  149.0564  136.7589  183.3122 C   0  0  0  0  0  0  0  0  0  0  0  0
  150.3885  138.3505  181.9642 C   0  0  0  0  0  0  0  0  0  0  0  0
  149.5004  138.8890  181.0630 C   0  0  0  0  0  0  0  0  0  0  0  0
  149.9543  139.8229  180.1618 C   0  0  0  0  0  0  0  0  0  0  0  0
  151.2671  140.2448  180.1225 C   0  0  0  0  0  0  0  0  0  0  0  0
  152.1359  139.6963  181.0286 C   0  0  0  0  0  0  0  0  0  0  0  0
  151.7315  138.7526  181.9571 C   0  0  0  0  0  0  0  0  0  0  0  0
  151.6063  135.5130  189.9651 C   0  0  0  0  0  0  0  0  0  0  0  0
  151.4214  134.5223  189.0324 C   0  0  0  0  0  0  0  0  0  0  0  0
  152.0105  134.5578  187.7955 C   0  0  0  0  0  0  0  0  0  0  0  0
  152.8530  135.6168  187.3869 C   0  0  0  0  0  0  0  0  0  0  0  0
  153.0341  136.6017  188.3227 C   0  0  0  0  0  0  0  0  0  0  0  0
  152.4232  136.5518  189.5863 C   0  0  0  0  0  0  0  0  0  0  0  0
  149.8039  134.5754  194.8631 C   0  0  0  0  0  0  0  0  0  0  0  0
  149.6168  135.4767  193.7421 N   0  0  0  0  0  0  0  0  0  0  0  0
  149.2021  134.6944  192.6070 C   0  0  0  0  0  0  0  0  0  0  0  0
  150.4830  134.2787  191.8653 C   0  0  0  0  0  0  0  0  0  0  0  0
  150.9917  135.4769  191.2453 N   0  0  0  0  0  0  0  0  0  0  0  0
  150.8510  136.7136  192.0192 C   0  0  0  0  0  0  0  0  0  0  0  0
  150.7633  136.2978  193.4761 C   0  0  0  0  0  0  0  0  0  0  0  0
 23 24  1  0  0  0
 24 25  1  0  0  0
 25 26  1  0  0  0
 26 27  1  0  0  0
 27 28  1  0  0  0
 28 29  1  0  0  0
 27 17  1  0  0  0
 17 18  2  0  0  0
 18 19  1  0  0  0
 19 20  2  0  0  0
 20  1  1  0  0  0
  1  3  1  0  0  0
  3  4  2  0  0  0
  4  5  1  0  0  0
  5  6  2  0  0  0
  6  7  1  0  0  0
  7  8  2  0  0  0
  7  9  1  0  0  0
  9 10  1  0  0  0
  9 11  1  0  0  0
 11 12  2  0  0  0
 12 13  1  0  0  0
 13 14  2  0  0  0
 14 15  1  0  0  0
 15 16  2  0  0  0
 20 21  1  0  0  0
 21 22  2  0  0  0
 29 24  1  0  0  0
 22 17  1  0  0  0
  8  3  1  0  0  0
 16 11  1  0  0  0
 16  6  1  0  0  0
  1  2  1  0  0  0
M  END
> <minimizedAffinity>
-5.88299

> <CNNscore>
0.2077792734

> <CNNaffinity>
5.2222843170

> <CNN_VS>
1.0850824118

> <CNNaffinity_variance>
0.1026134267

$$$$
[H]c1c([H])c(N2C([H])([H])C([H])([H])N(C([H])([H])[H])C([H])([H])C2([H])[H])c([H])c([H])c1N([H])c1nc([H])c2c3c([H])c([H])c([H])c([H])c3n(C([H])([H])[H])c2n1


 29 33  0  0  0  0  0  0  0  0999 V2000
  154.0710  137.7728  184.2160 N   0  0  0  0  0  0  0  0  0  0  0  0
  155.1054  137.8590  183.9630 H   0  0  0  0  0  0  0  0  0  0  0  0
  153.1460  138.0063  183.1784 C   0  0  0  0  0  0  0  0  0  0  0  0
  153.1289  139.0440  182.3622 N   0  0  0  0  0  0  0  0  0  0  0  0
  152.2025  139.1764  181.4000 C   0  0  0  0  0  0  0  0  0  0  0  0
  151.2177  138.2342  181.2128 C   0  0  0  0  0  0  0  0  0  0  0  0
  151.2148  137.1366  182.0569 C   0  0  0  0  0  0  0  0  0  0  0  0
  152.1636  137.0751  182.9848 N   0  0  0  0  0  0  0  0  0  0  0  0
  150.1739  136.3479  181.6989 N   0  0  0  0  0  0  0  0  0  0  0  0
  149.8490  135.1039  182.3554 C   0  0  0  0  0  0  0  0  0  0  0  0
  149.5070  136.8818  180.6680 C   0  0  0  0  0  0  0  0  0  0  0  0
  148.4040  136.4865  179.9483 C   0  0  0  0  0  0  0  0  0  0  0  0
  147.9616  137.2854  178.9205 C   0  0  0  0  0  0  0  0  0  0  0  0
  148.5785  138.4710  178.5789 C   0  0  0  0  0  0  0  0  0  0  0  0
  149.6756  138.8470  179.3080 C   0  0  0  0  0  0  0  0  0  0  0  0
  150.1628  138.0800  180.3524 C   0  0  0  0  0  0  0  0  0  0  0  0
  153.0601  136.9773  188.2859 C   0  0  0  0  0  0  0  0  0  0  0  0
  153.1181  138.2442  187.7596 C   0  0  0  0  0  0  0  0  0  0  0  0
  153.4513  138.4827  186.4519 C   0  0  0  0  0  0  0  0  0  0  0  0
  153.7601  137.4421  185.5462 C   0  0  0  0  0  0  0  0  0  0  0  0
  153.6996  136.1801  186.0774 C   0  0  0  0  0  0  0  0  0  0  0  0
  153.3569  135.9514  187.4201 C   0  0  0  0  0  0  0  0  0  0  0  0
  151.9877  136.9798  193.4789 C   0  0  0  0  0  0  0  0  0  0  0  0
  152.0999  136.0791  192.3475 N   0  0  0  0  0  0  0  0  0  0  0  0
  153.4439  136.1685  191.8396 C   0  0  0  0  0  0  0  0  0  0  0  0
  153.4391  137.2719  190.7690 C   0  0  0  0  0  0  0  0  0  0  0  0
  152.7186  136.7319  189.6428 N   0  0  0  0  0  0  0  0  0  0  0  0
  151.5650  135.8855  189.9604 C   0  0  0  0  0  0  0  0  0  0  0  0
  151.0987  136.3011  191.3436 C   0  0  0  0  0  0  0  0  0  0  0  0
 23 24  1  0  0  0
 24 25  1  0  0  0
 25 26  1  0  0  0
 26 27  1  0  0  0
 27 28  1  0  0  0
 28 29  1  0  0  0
 27 17  1  0  0  0
 17 18  2  0  0  0
 18 19  1  0  0  0
 19 20  2  0  0  0
 20  1  1  0  0  0
  1  3  1  0  0  0
  3  4  2  0  0  0
  4  5  1  0  0  0
  5  6  2  0  0  0
  6  7  1  0  0  0
  7  8  2  0  0  0
  7  9  1  0  0  0
  9 10  1  0  0  0
  9 11  1  0  0  0
 11 12  2  0  0  0
 12 13  1  0  0  0
 13 14  2  0  0  0
 14 15  1  0  0  0
 15 16  2  0  0  0
 20 21  1  0  0  0
 21 22  2  0  0  0
 29 24  1  0  0  0
 22 17  1  0  0  0
  8  3  1  0  0  0
 16 11  1  0  0  0
 16  6  1  0  0  0
  1  2  1  0  0  0
M  END
> <minimizedAffinity>
-6.52062

> <CNNscore>
0.2043827474

> <CNNaffinity>
5.1706719398

> <CNN_VS>
1.0567961931

> <CNNaffinity_variance>
0.0146005647

$$$$
[H]c1c([H])c(N2C([H])([H])C([H])([H])N(C([H])([H])[H])C([H])([H])C2([H])[H])c([H])c([H])c1N([H])c1nc([H])c2c3c([H])c([H])c([H])c([H])c3n(C([H])([H])[H])c2n1


 29 33  0  0  0  0  0  0  0  0999 V2000
  153.5734  138.3924  185.1868 N   0  0  0  0  0  0  0  0  0  0  0  0
  152.8989  138.0685  184.4241 H   0  0  0  0  0  0  0  0  0  0  0  0
  154.6303  139.2314  184.7798 C   0  0  0  0  0  0  0  0  0  0  0  0
  155.9201  139.0059  184.9491 N   0  0  0  0  0  0  0  0  0  0  0  0
  156.8548  139.8699  184.5232 C   0  0  0  0  0  0  0  0  0  0  0  0
  156.5169  141.0410  183.8854 C   0  0  0  0  0  0  0  0  0  0  0  0
  155.1698  141.2999  183.6962 C   0  0  0  0  0  0  0  0  0  0  0  0
  154.3040  140.3977  184.1449 N   0  0  0  0  0  0  0  0  0  0  0  0
  155.0676  142.4894  183.0571 N   0  0  0  0  0  0  0  0  0  0  0  0
  153.8101  143.0934  182.6860 C   0  0  0  0  0  0  0  0  0  0  0  0
  156.2796  143.0090  182.8257 C   0  0  0  0  0  0  0  0  0  0  0  0
  156.7131  144.1667  182.2235 C   0  0  0  0  0  0  0  0  0  0  0  0
  158.0645  144.4077  182.1455 C   0  0  0  0  0  0  0  0  0  0  0  0
  159.0079  143.5352  182.6472 C   0  0  0  0  0  0  0  0  0  0  0  0
  158.5555  142.3877  183.2432 C   0  0  0  0  0  0  0  0  0  0  0  0
  157.2063  142.0959  183.3482 C   0  0  0  0  0  0  0  0  0  0  0  0
  152.9513  137.1924  189.2355 C   0  0  0  0  0  0  0  0  0  0  0  0
  153.8828  138.1306  188.8642 C   0  0  0  0  0  0  0  0  0  0  0  0
  154.0746  138.4995  187.5584 C   0  0  0  0  0  0  0  0  0  0  0  0
  153.3278  137.9421  186.4954 C   0  0  0  0  0  0  0  0  0  0  0  0
  152.3993  137.0072  186.8727 C   0  0  0  0  0  0  0  0  0  0  0  0
  152.2144  136.6389  188.2154 C   0  0  0  0  0  0  0  0  0  0  0  0
  151.6919  135.0605  193.9245 C   0  0  0  0  0  0  0  0  0  0  0  0
  152.3704  136.2056  193.3482 N   0  0  0  0  0  0  0  0  0  0  0  0
  151.4165  136.9340  192.5533 C   0  0  0  0  0  0  0  0  0  0  0  0
  151.4973  136.3593  191.1296 C   0  0  0  0  0  0  0  0  0  0  0  0
  152.7564  136.8080  190.5891 N   0  0  0  0  0  0  0  0  0  0  0  0
  153.8824  136.8513  191.5264 C   0  0  0  0  0  0  0  0  0  0  0  0
  153.5606  135.8564  192.6263 C   0  0  0  0  0  0  0  0  0  0  0  0
 23 24  1  0  0  0
 24 25  1  0  0  0
 25 26  1  0  0  0
 26 27  1  0  0  0
 27 28  1  0  0  0
 28 29  1  0  0  0
 27 17  1  0  0  0
 17 18  2  0  0  0
 18 19  1  0  0  0
 19 20  2  0  0  0
 20  1  1  0  0  0
  1  3  1  0  0  0
  3  4  2  0  0  0
  4  5  1  0  0  0
  5  6  2  0  0  0
  6  7  1  0  0  0
  7  8  2  0  0  0
  7  9  1  0  0  0
  9 10  1  0  0  0
  9 11  1  0  0  0
 11 12  2  0  0  0
 12 13  1  0  0  0
 13 14  2  0  0  0
 14 15  1  0  0  0
 15 16  2  0  0  0
 20 21  1  0  0  0
 21 22  2  0  0  0
 29 24  1  0  0  0
 22 17  1  0  0  0
  8  3  1  0  0  0
 16 11  1  0  0  0
 16  6  1  0  0  0
  1  2  1  0  0  0
M  END
> <minimizedAffinity>
-8.43395

> <CNNscore>
0.2021085918

> <CNNaffinity>
5.7235202789

> <CNN_VS>
1.1567726135

> <CNNaffinity_variance>
0.0315595791

$$$$
[H]c1c([H])c(N2C([H])([H])C([H])([H])N(C([H])([H])[H])C([H])([H])C2([H])[H])c([H])c([H])c1N([H])c1nc([H])c2c3c([H])c([H])c([H])c([H])c3n(C([H])([H])[H])c2n1


 29 33  0  0  0  0  0  0  0  0999 V2000
  154.3566  137.4162  185.7436 N   0  0  0  0  0  0  0  0  0  0  0  0
  155.4014  137.4632  185.5250 H   0  0  0  0  0  0  0  0  0  0  0  0
  153.4775  137.5068  184.6456 C   0  0  0  0  0  0  0  0  0  0  0  0
  152.5682  136.6166  184.2937 N   0  0  0  0  0  0  0  0  0  0  0  0
  151.7742  136.7951  183.2263 C   0  0  0  0  0  0  0  0  0  0  0  0
  151.8665  137.9195  182.4392 C   0  0  0  0  0  0  0  0  0  0  0  0
  152.8132  138.8679  182.7881 C   0  0  0  0  0  0  0  0  0  0  0  0
  153.5620  138.6210  183.8575 N   0  0  0  0  0  0  0  0  0  0  0  0
  152.7314  139.8776  181.8895 N   0  0  0  0  0  0  0  0  0  0  0  0
  153.5669  141.0542  181.9290 C   0  0  0  0  0  0  0  0  0  0  0  0
  151.7808  139.6275  180.9805 C   0  0  0  0  0  0  0  0  0  0  0  0
  151.3129  140.3174  179.8869 C   0  0  0  0  0  0  0  0  0  0  0  0
  150.2971  139.7678  179.1410 C   0  0  0  0  0  0  0  0  0  0  0  0
  149.7250  138.5495  179.4432 C   0  0  0  0  0  0  0  0  0  0  0  0
  150.2053  137.8781  180.5364 C   0  0  0  0  0  0  0  0  0  0  0  0
  151.2261  138.3860  181.3216 C   0  0  0  0  0  0  0  0  0  0  0  0
  153.2345  136.7651  189.8100 C   0  0  0  0  0  0  0  0  0  0  0  0
  153.2028  135.7795  188.8544 C   0  0  0  0  0  0  0  0  0  0  0  0
  153.5598  136.0072  187.5511 C   0  0  0  0  0  0  0  0  0  0  0  0
  153.9880  137.2740  187.0924 C   0  0  0  0  0  0  0  0  0  0  0  0
  154.0184  138.2529  188.0512 C   0  0  0  0  0  0  0  0  0  0  0  0
  153.6489  138.0044  189.3832 C   0  0  0  0  0  0  0  0  0  0  0  0
  151.1026  135.4124  194.4729 C   0  0  0  0  0  0  0  0  0  0  0  0
  152.1734  136.2111  193.9079 N   0  0  0  0  0  0  0  0  0  0  0  0
  151.5820  137.2055  193.0512 C   0  0  0  0  0  0  0  0  0  0  0  0
  151.5039  136.5875  191.6456 C   0  0  0  0  0  0  0  0  0  0  0  0
  152.8601  136.5285  191.1598 N   0  0  0  0  0  0  0  0  0  0  0  0
  153.8869  136.1958  192.1514 C   0  0  0  0  0  0  0  0  0  0  0  0
  153.1822  135.4273  193.2541 C   0  0  0  0  0  0  0  0  0  0  0  0
 23 24  1  0  0  0
 24 25  1  0  0  0
 25 26  1  0  0  0
 26 27  1  0  0  0
 27 28  1  0  0  0
 28 29  1  0  0  0
 27 17  1  0  0  0
 17 18  2  0  0  0
 18 19  1  0  0  0
 19 20  2  0  0  0
 20  1  1  0  0  0
  1  3  1  0  0  0
  3  4  2  0  0  0
  4  5  1  0  0  0
  5  6  2  0  0  0
  6  7  1  0  0  0
  7  8  2  0  0  0
  7  9  1  0  0  0
  9 10  1  0  0  0
  9 11  1  0  0  0
 11 12  2  0  0  0
 12 13  1  0  0  0
 13 14  2  0  0  0
 14 15  1  0  0  0
 15 16  2  0  0  0
 20 21  1  0  0  0
 21 22  2  0  0  0
 29 24  1  0  0  0
 22 17  1  0  0  0
  8  3  1  0  0  0
 16 11  1  0  0  0
 16  6  1  0  0  0
  1  2  1  0  0  0
M  END
> <minimizedAffinity>
-7.40578

> <CNNscore>
0.2018980682

> <CNNaffinity>
5.3342027664

> <CNN_VS>
1.0769652128

> <CNNaffinity_variance>
0.0170587078

$$$$
[H]c1c([H])c(N2C([H])([H])C([H])([H])N(C([H])([H])[H])C([H])([H])C2([H])[H])c([H])c([H])c1N([H])c1nc([H])c2c3c([H])c([H])c([H])c([H])c3n(C([H])([H])[H])c2n1


 29 33  0  0  0  0  0  0  0  0999 V2000
  154.3082  138.0707  185.0136 N   0  0  0  0  0  0  0  0  0  0  0  0
  154.1692  137.2654  184.3254 H   0  0  0  0  0  0  0  0  0  0  0  0
  154.7716  139.2881  184.4751 C   0  0  0  0  0  0  0  0  0  0  0  0
  154.0264  140.2924  184.0519 N   0  0  0  0  0  0  0  0  0  0  0  0
  154.5646  141.4164  183.5535 C   0  0  0  0  0  0  0  0  0  0  0  0
  155.9268  141.5819  183.4565 C   0  0  0  0  0  0  0  0  0  0  0  0
  156.7297  140.5420  183.8940 C   0  0  0  0  0  0  0  0  0  0  0  0
  156.1243  139.4616  184.3749 N   0  0  0  0  0  0  0  0  0  0  0  0
  158.0184  140.9142  183.7088 N   0  0  0  0  0  0  0  0  0  0  0  0
  159.1487  140.0835  184.0503 C   0  0  0  0  0  0  0  0  0  0  0  0
  158.0859  142.1399  183.1746 C   0  0  0  0  0  0  0  0  0  0  0  0
  159.1303  142.9533  182.8024 C   0  0  0  0  0  0  0  0  0  0  0  0
  158.8506  144.1899  182.2704 C   0  0  0  0  0  0  0  0  0  0  0  0
  157.5629  144.6516  182.0930 C   0  0  0  0  0  0  0  0  0  0  0  0
  156.5367  143.8262  182.4700 C   0  0  0  0  0  0  0  0  0  0  0  0
  156.7623  142.5720  183.0109 C   0  0  0  0  0  0  0  0  0  0  0  0
  153.2520  137.1811  189.0524 C   0  0  0  0  0  0  0  0  0  0  0  0
  152.4375  136.9003  187.9831 C   0  0  0  0  0  0  0  0  0  0  0  0
  152.7890  137.1991  186.6927 C   0  0  0  0  0  0  0  0  0  0  0  0
  154.0167  137.8185  186.3652 C   0  0  0  0  0  0  0  0  0  0  0  0
  154.8254  138.0952  187.4367 C   0  0  0  0  0  0  0  0  0  0  0  0
  154.4512  137.7834  188.7540 C   0  0  0  0  0  0  0  0  0  0  0  0
  151.5398  135.2313  193.6767 C   0  0  0  0  0  0  0  0  0  0  0  0
  152.1171  136.4298  193.0987 N   0  0  0  0  0  0  0  0  0  0  0  0
  151.2150  136.9147  192.0871 C   0  0  0  0  0  0  0  0  0  0  0  0
  151.6379  136.2544  190.7648 C   0  0  0  0  0  0  0  0  0  0  0  0
  152.8844  136.8746  190.3899 N   0  0  0  0  0  0  0  0  0  0  0  0
  153.8046  137.1884  191.4867 C   0  0  0  0  0  0  0  0  0  0  0  0
  153.4568  136.2409  192.6200 C   0  0  0  0  0  0  0  0  0  0  0  0
 23 24  1  0  0  0
 24 25  1  0  0  0
 25 26  1  0  0  0
 26 27  1  0  0  0
 27 28  1  0  0  0
 28 29  1  0  0  0
 27 17  1  0  0  0
 17 18  2  0  0  0
 18 19  1  0  0  0
 19 20  2  0  0  0
 20  1  1  0  0  0
  1  3  1  0  0  0
  3  4  2  0  0  0
  4  5  1  0  0  0
  5  6  2  0  0  0
  6  7  1  0  0  0
  7  8  2  0  0  0
  7  9  1  0  0  0
  9 10  1  0  0  0
  9 11  1  0  0  0
 11 12  2  0  0  0
 12 13  1  0  0  0
 13 14  2  0  0  0
 14 15  1  0  0  0
 15 16  2  0  0  0
 20 21  1  0  0  0
 21 22  2  0  0  0
 29 24  1  0  0  0
 22 17  1  0  0  0
  8  3  1  0  0  0
 16 11  1  0  0  0
 16  6  1  0  0  0
  1  2  1  0  0  0
M  END
> <minimizedAffinity>
-8.26055

> <CNNscore>
0.1833804995

> <CNNaffinity>
5.6301698685

> <CNN_VS>
1.0324633121

> <CNNaffinity_variance>
0.0269339029

$$$$
[H]c1c([H])c([H])c(C([H])([H])[C@@]2([H])C(=O)N([H])[C@@]([H])(C([H])([H])c3c([H])c([H])c([H])c([H])c3[H])C(=O)N([H])[C@@]([H])(C([H])([H])C([H])([H])C([H])([H])N=C(N([H])[H])N([H])[H])C(=O)N([H])[C@@]([H])(C([H])([H])c3c([H])c([H])c([H])c([H])c3[H])C(=O)N([H])[C@]([H])(C([H])([H])C([H])(C([H])([H])[H])C([H])([H])[H])C(=O)N3C([H])([H])C([H])([H])C([H])([H])[C@]3([H])C(=O)N([H])[C@@]([H])(C([H])([H])c3c([H])c([H])c([H])c([H])c3[H])C(=O)N2[H])c([H])c1[H]


 80 85  0  0  0  0  0  0  0  0999 V2000
  155.1718  139.5446  185.3279 C   0  0  0  0  0  0  0  0  0  0  0  0
  155.1528  138.5870  184.2177 N   0  0  0  0  0  0  0  0  0  0  0  0
  154.3360  138.5346  183.1063 C   0  0  0  0  0  0  0  0  0  0  0  0
  154.9364  138.5741  181.9495 O   0  0  0  0  0  0  0  0  0  0  0  0
  152.8648  138.4362  182.9911 C   0  0  0  0  0  0  0  0  0  0  0  0
  152.2067  137.8391  184.1293 N   0  0  0  0  0  0  0  0  0  0  0  0
  150.9647  137.1736  184.1518 C   0  0  0  0  0  0  0  0  0  0  0  0
  150.0605  137.6456  184.9386 O   0  0  0  0  0  0  0  0  0  0  0  0
  150.5564  135.9876  183.3832 C   0  0  0  0  0  0  0  0  0  0  0  0
  149.4628  135.2825  184.0731 N   0  0  0  0  0  0  0  0  0  0  0  0
  149.3590  133.8970  184.2316 C   0  0  0  0  0  0  0  0  0  0  0  0
  148.1946  133.4095  184.2914 O   0  0  0  0  0  0  0  0  0  0  0  0
  150.4806  132.9344  184.3392 C   0  0  0  0  0  0  0  0  0  0  0  0
  150.2398  132.0544  185.4589 N   0  0  0  0  0  0  0  0  0  0  0  0
  151.1826  131.7926  186.5099 C   0  0  0  0  0  0  0  0  0  0  0  0
  150.6573  131.6632  187.6752 O   0  0  0  0  0  0  0  0  0  0  0  0
  152.6421  131.6814  186.2862 C   0  0  0  0  0  0  0  0  0  0  0  0
  153.2782  132.9688  186.1085 N   0  0  0  0  0  0  0  0  0  0  0  0
  153.4502  133.9987  187.0529 C   0  0  0  0  0  0  0  0  0  0  0  0
  152.9361  135.1411  186.7784 O   0  0  0  0  0  0  0  0  0  0  0  0
  154.1558  133.9549  188.3525 C   0  0  0  0  0  0  0  0  0  0  0  0
  155.1750  134.9516  188.5269 N   0  0  0  0  0  0  0  0  0  0  0  0
  155.5535  136.0966  187.8566 C   0  0  0  0  0  0  0  0  0  0  0  0
  156.7029  136.0053  187.2407 O   0  0  0  0  0  0  0  0  0  0  0  0
  154.9671  137.4240  187.6618 C   0  0  0  0  0  0  0  0  0  0  0  0
  154.2645  138.0173  188.8421 C   0  0  0  0  0  0  0  0  0  0  0  0
  155.3754  138.4986  189.7625 C   0  0  0  0  0  0  0  0  0  0  0  0
  156.5804  138.5525  188.8344 C   0  0  0  0  0  0  0  0  0  0  0  0
  156.0215  138.4572  187.4969 N   0  0  0  0  0  0  0  0  0  0  0  0
  156.2794  139.0854  186.2503 C   0  0  0  0  0  0  0  0  0  0  0  0
  157.4965  139.2407  185.9452 O   0  0  0  0  0  0  0  0  0  0  0  0
  155.8917  137.8056  184.2801 H   0  0  0  0  0  0  0  0  0  0  0  0
  152.7241  137.9168  185.0564 H   0  0  0  0  0  0  0  0  0  0  0  0
  148.7187  135.9334  184.4622 H   0  0  0  0  0  0  0  0  0  0  0  0
  149.3092  131.5667  185.5340 H   0  0  0  0  0  0  0  0  0  0  0  0
  153.6622  133.1761  185.1287 H   0  0  0  0  0  0  0  0  0  0  0  0
  155.7912  134.7214  189.3868 H   0  0  0  0  0  0  0  0  0  0  0  0
  155.5001  140.9267  184.8484 C   0  0  0  0  0  0  0  0  0  0  0  0
  155.7924  141.8121  182.5249 C   0  0  0  0  0  0  0  0  0  0  0  0
  156.4070  141.0910  183.7088 C   0  0  0  0  0  0  0  0  0  0  0  0
  157.7804  141.5990  183.9581 C   0  0  0  0  0  0  0  0  0  0  0  0
  152.1795  139.6944  182.5410 C   0  0  0  0  0  0  0  0  0  0  0  0
  151.3081  139.5591  181.3674 C   0  0  0  0  0  0  0  0  0  0  0  0
  149.9513  139.4305  181.4456 C   0  0  0  0  0  0  0  0  0  0  0  0
  149.1438  139.3083  180.3067 C   0  0  0  0  0  0  0  0  0  0  0  0
  149.7343  139.3171  179.0696 C   0  0  0  0  0  0  0  0  0  0  0  0
  151.0880  139.4439  178.9635 C   0  0  0  0  0  0  0  0  0  0  0  0
  151.8638  139.5636  180.1049 C   0  0  0  0  0  0  0  0  0  0  0  0
  150.0239  136.2650  182.0093 C   0  0  0  0  0  0  0  0  0  0  0  0
  148.5961  135.7929  181.8077 C   0  0  0  0  0  0  0  0  0  0  0  0
  148.6853  134.4753  181.0610 C   0  0  0  0  0  0  0  0  0  0  0  0
  147.6557  134.3298  180.0564 N   0  0  0  0  0  0  0  0  0  0  0  0
  147.8457  133.5065  179.0785 C   0  0  0  0  0  0  0  0  0  0  0  0
  149.0212  132.7400  178.9487 N   0  0  0  0  0  0  0  0  0  0  0  0
  146.8270  133.3811  178.1062 N   0  0  0  0  0  0  0  0  0  0  0  0
  149.8051  133.1160  178.3539 H   0  0  0  0  0  0  0  0  0  0  0  0
  149.1712  131.8185  179.4035 H   0  0  0  0  0  0  0  0  0  0  0  0
  146.4194  132.4670  177.8299 H   0  0  0  0  0  0  0  0  0  0  0  0
  146.4650  134.2364  177.6442 H   0  0  0  0  0  0  0  0  0  0  0  0
  150.7318  132.2449  183.0434 C   0  0  0  0  0  0  0  0  0  0  0  0
  152.1303  132.1829  182.6043 C   0  0  0  0  0  0  0  0  0  0  0  0
  152.8129  130.9922  182.5427 C   0  0  0  0  0  0  0  0  0  0  0  0
  154.1467  130.9576  182.1209 C   0  0  0  0  0  0  0  0  0  0  0  0
  154.7878  132.1112  181.7643 C   0  0  0  0  0  0  0  0  0  0  0  0
  154.1105  133.3190  181.8223 C   0  0  0  0  0  0  0  0  0  0  0  0
  152.7914  133.3322  182.2422 C   0  0  0  0  0  0  0  0  0  0  0  0
  153.3787  130.7564  187.1872 C   0  0  0  0  0  0  0  0  0  0  0  0
  154.8600  130.8003  187.0859 C   0  0  0  0  0  0  0  0  0  0  0  0
  155.5618  130.8615  185.9020 C   0  0  0  0  0  0  0  0  0  0  0  0
  156.9470  130.9066  185.8780 C   0  0  0  0  0  0  0  0  0  0  0  0
  157.6904  130.8920  187.0379 C   0  0  0  0  0  0  0  0  0  0  0  0
  157.0095  130.8313  188.2297 C   0  0  0  0  0  0  0  0  0  0  0  0
  155.6387  130.7870  188.2517 C   0  0  0  0  0  0  0  0  0  0  0  0
  153.1971  134.0010  189.5157 C   0  0  0  0  0  0  0  0  0  0  0  0
  153.6356  133.0993  190.5961 C   0  0  0  0  0  0  0  0  0  0  0  0
  154.7024  132.2420  190.5267 C   0  0  0  0  0  0  0  0  0  0  0  0
  155.0503  131.4236  191.5998 C   0  0  0  0  0  0  0  0  0  0  0  0
  154.3423  131.4412  192.7684 C   0  0  0  0  0  0  0  0  0  0  0  0
  153.2777  132.2817  192.8680 C   0  0  0  0  0  0  0  0  0  0  0  0
  152.9385  133.0820  191.8158 C   0  0  0  0  0  0  0  0  0  0  0  0
 39 40  1  0  0  0
 40 41  1  0  0  0
 40 38  1  0  0  0
 38  1  1  0  0  0
  1  2  1  0  0  0
  2  3  1  0  0  0
  3  4  2  0  0  0
  3  5  1  0  0  0
  5 42  1  0  0  0
 42 43  1  0  0  0
 43 44  2  0  0  0
 44 45  1  0  0  0
 45 46  2  0  0  0
 46 47  1  0  0  0
 47 48  2  0  0  0
  5  6  1  0  0  0
  6  7  1  0  0  0
  7  8  2  0  0  0
  7  9  1  0  0  0
  9 49  1  0  0  0
 49 50  1  0  0  0
 50 51  1  0  0  0
 51 52  1  0  0  0
 52 53  2  0  0  0
 53 54  1  0  0  0
 53 55  1  0  0  0
  9 10  1  0  0  0
 10 11  1  0  0  0
 11 12  2  0  0  0
 11 13  1  0  0  0
 13 60  1  0  0  0
 60 61  1  0  0  0
 61 62  2  0  0  0
 62 63  1  0  0  0
 63 64  2  0  0  0
 64 65  1  0  0  0
 65 66  2  0  0  0
 13 14  1  0  0  0
 14 15  1  0  0  0
 15 16  2  0  0  0
 15 17  1  0  0  0
 17 67  1  0  0  0
 67 68  1  0  0  0
 68 69  2  0  0  0
 69 70  1  0  0  0
 70 71  2  0  0  0
 71 72  1  0  0  0
 72 73  2  0  0  0
 17 18  1  0  0  0
 18 19  1  0  0  0
 19 20  2  0  0  0
 19 21  1  0  0  0
 21 74  1  0  0  0
 74 75  1  0  0  0
 75 76  2  0  0  0
 76 77  1  0  0  0
 77 78  2  0  0  0
 78 79  1  0  0  0
 79 80  2  0  0  0
 21 22  1  0  0  0
 22 23  1  0  0  0
 23 24  2  0  0  0
 23 25  1  0  0  0
 25 26  1  0  0  0
 26 27  1  0  0  0
 27 28  1  0  0  0
 28 29  1  0  0  0
 29 30  1  0  0  0
 30 31  2  0  0  0
 30  1  1  0  0  0
 48 43  1  0  0  0
 66 61  1  0  0  0
 73 68  1  0  0  0
 80 75  1  0  0  0
 29 25  1  0  0  0
  2 32  1  0  0  0
  6 33  1  0  0  0
 54 56  1  0  0  0
 54 57  1  0  0  0
 55 58  1  0  0  0
 55 59  1  0  0  0
 10 34  1  0  0  0
 14 35  1  0  0  0
 18 36  1  0  0  0
 22 37  1  0  0  0
M  END
> <minimizedAffinity>
-1.52482

> <CNNscore>
0.2654531300

> <CNNaffinity>
7.0720047951

> <CNN_VS>
1.8772858381

> <CNNaffinity_variance>
0.8577075005

$$$$
[H]c1c([H])c([H])c(C([H])([H])[C@@]2([H])C(=O)N([H])[C@@]([H])(C([H])([H])c3c([H])c([H])c([H])c([H])c3[H])C(=O)N([H])[C@@]([H])(C([H])([H])C([H])([H])C([H])([H])N=C(N([H])[H])N([H])[H])C(=O)N([H])[C@@]([H])(C([H])([H])c3c([H])c([H])c([H])c([H])c3[H])C(=O)N([H])[C@]([H])(C([H])([H])C([H])(C([H])([H])[H])C([H])([H])[H])C(=O)N3C([H])([H])C([H])([H])C([H])([H])[C@]3([H])C(=O)N([H])[C@@]([H])(C([H])([H])c3c([H])c([H])c([H])c([H])c3[H])C(=O)N2[H])c([H])c1[H]


 80 85  0  0  0  0  0  0  0  0999 V2000
  154.0167  139.0543  184.2477 C   0  0  0  0  0  0  0  0  0  0  0  0
  153.7373  137.9437  183.3321 N   0  0  0  0  0  0  0  0  0  0  0  0
  152.7030  137.7741  182.4341 C   0  0  0  0  0  0  0  0  0  0  0  0
  153.0463  137.6031  181.1879 O   0  0  0  0  0  0  0  0  0  0  0  0
  151.2386  137.7481  182.6393 C   0  0  0  0  0  0  0  0  0  0  0  0
  150.8198  137.3696  183.9683 N   0  0  0  0  0  0  0  0  0  0  0  0
  149.5928  136.7909  184.3501 C   0  0  0  0  0  0  0  0  0  0  0  0
  148.8885  137.4293  185.2194 O   0  0  0  0  0  0  0  0  0  0  0  0
  148.9990  135.5296  183.8804 C   0  0  0  0  0  0  0  0  0  0  0  0
  148.0570  135.0032  184.8827 N   0  0  0  0  0  0  0  0  0  0  0  0
  147.9512  133.6661  185.2780 C   0  0  0  0  0  0  0  0  0  0  0  0
  146.8128  133.2640  185.6515 O   0  0  0  0  0  0  0  0  0  0  0  0
  149.0434  132.6649  185.3063 C   0  0  0  0  0  0  0  0  0  0  0  0
  149.0207  131.9792  186.5773 N   0  0  0  0  0  0  0  0  0  0  0  0
  150.1568  131.8221  187.4414 C   0  0  0  0  0  0  0  0  0  0  0  0
  149.8862  131.9010  188.6948 O   0  0  0  0  0  0  0  0  0  0  0  0
  151.5324  131.5910  186.9447 C   0  0  0  0  0  0  0  0  0  0  0  0
  152.1516  132.7965  186.4378 N   0  0  0  0  0  0  0  0  0  0  0  0
  152.5473  133.9444  187.1504 C   0  0  0  0  0  0  0  0  0  0  0  0
  152.0183  135.0613  186.8081 O   0  0  0  0  0  0  0  0  0  0  0  0
  153.5102  134.0540  188.2683 C   0  0  0  0  0  0  0  0  0  0  0  0
  154.5701  135.0024  188.0694 N   0  0  0  0  0  0  0  0  0  0  0  0
  154.8296  136.0088  187.1620 C   0  0  0  0  0  0  0  0  0  0  0  0
  155.8199  135.7571  186.3468 O   0  0  0  0  0  0  0  0  0  0  0  0
  154.2518  137.3248  186.8820 C   0  0  0  0  0  0  0  0  0  0  0  0
  153.8310  138.1298  188.0708 C   0  0  0  0  0  0  0  0  0  0  0  0
  155.1241  138.6763  188.6559 C   0  0  0  0  0  0  0  0  0  0  0  0
  156.1068  138.5176  187.5047 C   0  0  0  0  0  0  0  0  0  0  0  0
  155.2754  138.2561  186.3424 N   0  0  0  0  0  0  0  0  0  0  0  0
  155.2813  138.6733  184.9855 C   0  0  0  0  0  0  0  0  0  0  0  0
  156.4101  138.7074  184.4172 O   0  0  0  0  0  0  0  0  0  0  0  0
  154.4510  137.1376  183.3661 H   0  0  0  0  0  0  0  0  0  0  0  0
  151.5233  137.5544  184.7455 H   0  0  0  0  0  0  0  0  0  0  0  0
  147.4300  135.7487  185.3068 H   0  0  0  0  0  0  0  0  0  0  0  0
  148.1140  131.5652  186.9178 H   0  0  0  0  0  0  0  0  0  0  0  0
  152.3254  132.8306  185.3799 H   0  0  0  0  0  0  0  0  0  0  0  0
  155.3475  134.8674  188.8107 H   0  0  0  0  0  0  0  0  0  0  0  0
  154.2740  140.3265  183.4971 C   0  0  0  0  0  0  0  0  0  0  0  0
  156.2314  141.8027  184.0047 C   0  0  0  0  0  0  0  0  0  0  0  0
  154.7621  141.5003  184.2266 C   0  0  0  0  0  0  0  0  0  0  0  0
  153.9692  142.7551  184.1705 C   0  0  0  0  0  0  0  0  0  0  0  0
  150.5083  138.9633  182.1439 C   0  0  0  0  0  0  0  0  0  0  0  0
  149.9650  138.8684  180.7836 C   0  0  0  0  0  0  0  0  0  0  0  0
  150.4902  139.5329  179.7130 C   0  0  0  0  0  0  0  0  0  0  0  0
  149.9530  139.4187  178.4236 C   0  0  0  0  0  0  0  0  0  0  0  0
  148.8614  138.6130  178.2277 C   0  0  0  0  0  0  0  0  0  0  0  0
  148.3169  137.9383  179.2803 C   0  0  0  0  0  0  0  0  0  0  0  0
  148.8673  138.0678  180.5451 C   0  0  0  0  0  0  0  0  0  0  0  0
  148.1960  135.6289  182.6181 C   0  0  0  0  0  0  0  0  0  0  0  0
  147.4414  134.3568  182.2801 C   0  0  0  0  0  0  0  0  0  0  0  0
  147.9967  133.8725  180.9540 C   0  0  0  0  0  0  0  0  0  0  0  0
  147.3969  134.5378  179.8190 N   0  0  0  0  0  0  0  0  0  0  0  0
  147.4103  133.9493  178.6684 C   0  0  0  0  0  0  0  0  0  0  0  0
  147.9882  132.6791  178.4717 N   0  0  0  0  0  0  0  0  0  0  0  0
  146.8201  134.6184  177.5715 N   0  0  0  0  0  0  0  0  0  0  0  0
  148.9881  132.6254  178.1447 H   0  0  0  0  0  0  0  0  0  0  0  0
  147.4916  131.7805  178.6278 H   0  0  0  0  0  0  0  0  0  0  0  0
  146.0995  134.1817  176.9649 H   0  0  0  0  0  0  0  0  0  0  0  0
  147.1149  135.5896  177.3574 H   0  0  0  0  0  0  0  0  0  0  0  0
  148.9961  131.7747  184.1134 C   0  0  0  0  0  0  0  0  0  0  0  0
  150.0850  131.9350  183.1433 C   0  0  0  0  0  0  0  0  0  0  0  0
  151.2005  132.6835  183.4310 C   0  0  0  0  0  0  0  0  0  0  0  0
  152.2265  132.8224  182.4897 C   0  0  0  0  0  0  0  0  0  0  0  0
  152.1306  132.2134  181.2695 C   0  0  0  0  0  0  0  0  0  0  0  0
  151.0104  131.4557  180.9667 C   0  0  0  0  0  0  0  0  0  0  0  0
  150.0062  131.3305  181.9115 C   0  0  0  0  0  0  0  0  0  0  0  0
  152.4172  130.7692  187.8119 C   0  0  0  0  0  0  0  0  0  0  0  0
  153.8655  130.8170  187.4856 C   0  0  0  0  0  0  0  0  0  0  0  0
  154.8793  130.7771  188.4176 C   0  0  0  0  0  0  0  0  0  0  0  0
  156.2136  130.8192  188.0446 C   0  0  0  0  0  0  0  0  0  0  0  0
  156.5916  130.9035  186.7223 C   0  0  0  0  0  0  0  0  0  0  0  0
  155.5956  130.9445  185.7768 C   0  0  0  0  0  0  0  0  0  0  0  0
  154.2757  130.9025  186.1477 C   0  0  0  0  0  0  0  0  0  0  0  0
  152.8206  134.3319  189.5803 C   0  0  0  0  0  0  0  0  0  0  0  0
  151.4520  134.8332  189.3605 C   0  0  0  0  0  0  0  0  0  0  0  0
  150.3023  134.1651  189.6914 C   0  0  0  0  0  0  0  0  0  0  0  0
  149.0448  134.7154  189.4501 C   0  0  0  0  0  0  0  0  0  0  0  0
  148.9041  135.9460  188.8731 C   0  0  0  0  0  0  0  0  0  0  0  0
  150.0269  136.6339  188.5330 C   0  0  0  0  0  0  0  0  0  0  0  0
  151.2574  136.0930  188.7698 C   0  0  0  0  0  0  0  0  0  0  0  0
 39 40  1  0  0  0
 40 41  1  0  0  0
 40 38  1  0  0  0
 38  1  1  0  0  0
  1  2  1  0  0  0
  2  3  1  0  0  0
  3  4  2  0  0  0
  3  5  1  0  0  0
  5 42  1  0  0  0
 42 43  1  0  0  0
 43 44  2  0  0  0
 44 45  1  0  0  0
 45 46  2  0  0  0
 46 47  1  0  0  0
 47 48  2  0  0  0
  5  6  1  0  0  0
  6  7  1  0  0  0
  7  8  2  0  0  0
  7  9  1  0  0  0
  9 49  1  0  0  0
 49 50  1  0  0  0
 50 51  1  0  0  0
 51 52  1  0  0  0
 52 53  2  0  0  0
 53 54  1  0  0  0
 53 55  1  0  0  0
  9 10  1  0  0  0
 10 11  1  0  0  0
 11 12  2  0  0  0
 11 13  1  0  0  0
 13 60  1  0  0  0
 60 61  1  0  0  0
 61 62  2  0  0  0
 62 63  1  0  0  0
 63 64  2  0  0  0
 64 65  1  0  0  0
 65 66  2  0  0  0
 13 14  1  0  0  0
 14 15  1  0  0  0
 15 16  2  0  0  0
 15 17  1  0  0  0
 17 67  1  0  0  0
 67 68  1  0  0  0
 68 69  2  0  0  0
 69 70  1  0  0  0
 70 71  2  0  0  0
 71 72  1  0  0  0
 72 73  2  0  0  0
 17 18  1  0  0  0
 18 19  1  0  0  0
 19 20  2  0  0  0
 19 21  1  0  0  0
 21 74  1  0  0  0
 74 75  1  0  0  0
 75 76  2  0  0  0
 76 77  1  0  0  0
 77 78  2  0  0  0
 78 79  1  0  0  0
 79 80  2  0  0  0
 21 22  1  0  0  0
 22 23  1  0  0  0
 23 24  2  0  0  0
 23 25  1  0  0  0
 25 26  1  0  0  0
 26 27  1  0  0  0
 27 28  1  0  0  0
 28 29  1  0  0  0
 29 30  1  0  0  0
 30 31  2  0  0  0
 30  1  1  0  0  0
 48 43  1  0  0  0
 66 61  1  0  0  0
 73 68  1  0  0  0
 80 75  1  0  0  0
 29 25  1  0  0  0
  2 32  1  0  0  0
  6 33  1  0  0  0
 54 56  1  0  0  0
 54 57  1  0  0  0
 55 58  1  0  0  0
 55 59  1  0  0  0
 10 34  1  0  0  0
 14 35  1  0  0  0
 18 36  1  0  0  0
 22 37  1  0  0  0
M  END
> <minimizedAffinity>
-3.87507

> <CNNscore>
0.2594536841

> <CNNaffinity>
7.1490468979

> <CNN_VS>
1.8548465967

> <CNNaffinity_variance>
0.9284688830

$$$$
[H]c1c([H])c([H])c(C([H])([H])[C@@]2([H])C(=O)N([H])[C@@]([H])(C([H])([H])c3c([H])c([H])c([H])c([H])c3[H])C(=O)N([H])[C@@]([H])(C([H])([H])C([H])([H])C([H])([H])N=C(N([H])[H])N([H])[H])C(=O)N([H])[C@@]([H])(C([H])([H])c3c([H])c([H])c([H])c([H])c3[H])C(=O)N([H])[C@]([H])(C([H])([H])C([H])(C([H])([H])[H])C([H])([H])[H])C(=O)N3C([H])([H])C([H])([H])C([H])([H])[C@]3([H])C(=O)N([H])[C@@]([H])(C([H])([H])c3c([H])c([H])c([H])c([H])c3[H])C(=O)N2[H])c([H])c1[H]


 80 85  0  0  0  0  0  0  0  0999 V2000
  156.3081  139.5782  185.2924 C   0  0  0  0  0  0  0  0  0  0  0  0
  156.3343  138.4879  184.3123 N   0  0  0  0  0  0  0  0  0  0  0  0
  155.6332  138.3397  183.1326 C   0  0  0  0  0  0  0  0  0  0  0  0
  156.3496  138.1948  182.0528 O   0  0  0  0  0  0  0  0  0  0  0  0
  154.1782  138.3123  182.8692 C   0  0  0  0  0  0  0  0  0  0  0  0
  153.3668  137.9061  183.9925 N   0  0  0  0  0  0  0  0  0  0  0  0
  152.0848  137.3219  183.9595 C   0  0  0  0  0  0  0  0  0  0  0  0
  151.1411  137.9429  184.5783 O   0  0  0  0  0  0  0  0  0  0  0  0
  151.6736  136.0721  183.3013 C   0  0  0  0  0  0  0  0  0  0  0  0
  150.4681  135.5263  183.9477 N   0  0  0  0  0  0  0  0  0  0  0  0
  150.2504  134.1812  184.2620 C   0  0  0  0  0  0  0  0  0  0  0  0
  149.0543  133.7735  184.2525 O   0  0  0  0  0  0  0  0  0  0  0  0
  151.2839  133.1774  184.6093 C   0  0  0  0  0  0  0  0  0  0  0  0
  150.8684  132.4648  185.7948 N   0  0  0  0  0  0  0  0  0  0  0  0
  151.6783  132.2868  186.9672 C   0  0  0  0  0  0  0  0  0  0  0  0
  151.0292  132.3395  188.0746 O   0  0  0  0  0  0  0  0  0  0  0  0
  153.1413  132.0637  186.9207 C   0  0  0  0  0  0  0  0  0  0  0  0
  153.8821  133.2786  186.6580 N   0  0  0  0  0  0  0  0  0  0  0  0
  154.0298  134.4101  187.4826 C   0  0  0  0  0  0  0  0  0  0  0  0
  153.6289  135.5352  187.0156 O   0  0  0  0  0  0  0  0  0  0  0  0
  154.5945  134.4938  188.8474 C   0  0  0  0  0  0  0  0  0  0  0  0
  155.6589  135.4442  189.0098 N   0  0  0  0  0  0  0  0  0  0  0  0
  156.1842  136.4693  188.2502 C   0  0  0  0  0  0  0  0  0  0  0  0
  157.3809  136.2331  187.7803 O   0  0  0  0  0  0  0  0  0  0  0  0
  155.7166  137.7921  187.8313 C   0  0  0  0  0  0  0  0  0  0  0  0
  154.9414  138.5723  188.8457 C   0  0  0  0  0  0  0  0  0  0  0  0
  155.9842  139.1036  189.8169 C   0  0  0  0  0  0  0  0  0  0  0  0
  157.2782  138.9676  189.0274 C   0  0  0  0  0  0  0  0  0  0  0  0
  156.8530  138.7327  187.6583 N   0  0  0  0  0  0  0  0  0  0  0  0
  157.2806  139.1789  186.3803 C   0  0  0  0  0  0  0  0  0  0  0  0
  158.5303  139.2229  186.1942 O   0  0  0  0  0  0  0  0  0  0  0  0
  157.0055  137.6799  184.5507 H   0  0  0  0  0  0  0  0  0  0  0  0
  153.7913  138.0729  184.9543 H   0  0  0  0  0  0  0  0  0  0  0  0
  149.7364  136.2638  184.1702 H   0  0  0  0  0  0  0  0  0  0  0  0
  149.9027  132.0453  185.8261 H   0  0  0  0  0  0  0  0  0  0  0  0
  154.3777  133.3350  185.7084 H   0  0  0  0  0  0  0  0  0  0  0  0
  156.1664  135.2919  189.9539 H   0  0  0  0  0  0  0  0  0  0  0  0
  156.7811  140.8656  184.6866 C   0  0  0  0  0  0  0  0  0  0  0  0
  158.6848  140.4383  183.1177 C   0  0  0  0  0  0  0  0  0  0  0  0
  158.2112  141.0482  184.4228 C   0  0  0  0  0  0  0  0  0  0  0  0
  158.8015  142.4000  184.5976 C   0  0  0  0  0  0  0  0  0  0  0  0
  153.6335  139.5392  182.1960 C   0  0  0  0  0  0  0  0  0  0  0  0
  154.3885  140.7775  182.4230 C   0  0  0  0  0  0  0  0  0  0  0  0
  155.5321  141.0982  181.7502 C   0  0  0  0  0  0  0  0  0  0  0  0
  156.2294  142.2911  181.9845 C   0  0  0  0  0  0  0  0  0  0  0  0
  155.7491  143.1681  182.9222 C   0  0  0  0  0  0  0  0  0  0  0  0
  154.6087  142.8717  183.6089 C   0  0  0  0  0  0  0  0  0  0  0  0
  153.9378  141.6859  183.3581 C   0  0  0  0  0  0  0  0  0  0  0  0
  151.3049  136.2000  181.8537 C   0  0  0  0  0  0  0  0  0  0  0  0
  150.2769  137.2832  181.5852 C   0  0  0  0  0  0  0  0  0  0  0  0
  148.9984  136.5678  181.1914 C   0  0  0  0  0  0  0  0  0  0  0  0
  149.0112  136.1121  179.8193 N   0  0  0  0  0  0  0  0  0  0  0  0
  148.8081  134.8598  179.5726 C   0  0  0  0  0  0  0  0  0  0  0  0
  148.5735  133.9137  180.5904 N   0  0  0  0  0  0  0  0  0  0  0  0
  148.8268  134.4353  178.2242 N   0  0  0  0  0  0  0  0  0  0  0  0
  149.3912  133.3698  180.9713 H   0  0  0  0  0  0  0  0  0  0  0  0
  147.6393  133.7117  180.9966 H   0  0  0  0  0  0  0  0  0  0  0  0
  148.0554  133.8904  177.7929 H   0  0  0  0  0  0  0  0  0  0  0  0
  149.6444  134.6756  177.6328 H   0  0  0  0  0  0  0  0  0  0  0  0
  151.6161  132.3131  183.4430 C   0  0  0  0  0  0  0  0  0  0  0  0
  153.0079  132.3569  182.9812 C   0  0  0  0  0  0  0  0  0  0  0  0
  153.4476  133.3263  182.1126 C   0  0  0  0  0  0  0  0  0  0  0  0
  154.7799  133.3479  181.6856 C   0  0  0  0  0  0  0  0  0  0  0  0
  155.6621  132.4023  182.1288 C   0  0  0  0  0  0  0  0  0  0  0  0
  155.2312  131.4187  183.0050 C   0  0  0  0  0  0  0  0  0  0  0  0
  153.9091  131.4145  183.4156 C   0  0  0  0  0  0  0  0  0  0  0  0
  153.7147  131.2218  188.0035 C   0  0  0  0  0  0  0  0  0  0  0  0
  155.1978  131.1863  188.0763 C   0  0  0  0  0  0  0  0  0  0  0  0
  155.9180  130.8223  189.1930 C   0  0  0  0  0  0  0  0  0  0  0  0
  157.3039  130.8044  189.1919 C   0  0  0  0  0  0  0  0  0  0  0  0
  158.0299  131.1504  188.0732 C   0  0  0  0  0  0  0  0  0  0  0  0
  157.3306  131.5165  186.9486 C   0  0  0  0  0  0  0  0  0  0  0  0
  155.9591  131.5334  186.9513 C   0  0  0  0  0  0  0  0  0  0  0  0
  153.5281  134.7450  189.8837 C   0  0  0  0  0  0  0  0  0  0  0  0
  153.7407  136.0395  190.5557 C   0  0  0  0  0  0  0  0  0  0  0  0
  154.9021  136.4312  191.1684 C   0  0  0  0  0  0  0  0  0  0  0  0
  155.0186  137.6784  191.7796 C   0  0  0  0  0  0  0  0  0  0  0  0
  153.9789  138.5651  191.7937 C   0  0  0  0  0  0  0  0  0  0  0  0
  152.8127  138.2051  191.1938 C   0  0  0  0  0  0  0  0  0  0  0  0
  152.7006  136.9832  190.5962 C   0  0  0  0  0  0  0  0  0  0  0  0
 39 40  1  0  0  0
 40 41  1  0  0  0
 40 38  1  0  0  0
 38  1  1  0  0  0
  1  2  1  0  0  0
  2  3  1  0  0  0
  3  4  2  0  0  0
  3  5  1  0  0  0
  5 42  1  0  0  0
 42 43  1  0  0  0
 43 44  2  0  0  0
 44 45  1  0  0  0
 45 46  2  0  0  0
 46 47  1  0  0  0
 47 48  2  0  0  0
  5  6  1  0  0  0
  6  7  1  0  0  0
  7  8  2  0  0  0
  7  9  1  0  0  0
  9 49  1  0  0  0
 49 50  1  0  0  0
 50 51  1  0  0  0
 51 52  1  0  0  0
 52 53  2  0  0  0
 53 54  1  0  0  0
 53 55  1  0  0  0
  9 10  1  0  0  0
 10 11  1  0  0  0
 11 12  2  0  0  0
 11 13  1  0  0  0
 13 60  1  0  0  0
 60 61  1  0  0  0
 61 62  2  0  0  0
 62 63  1  0  0  0
 63 64  2  0  0  0
 64 65  1  0  0  0
 65 66  2  0  0  0
 13 14  1  0  0  0
 14 15  1  0  0  0
 15 16  2  0  0  0
 15 17  1  0  0  0
 17 67  1  0  0  0
 67 68  1  0  0  0
 68 69  2  0  0  0
 69 70  1  0  0  0
 70 71  2  0  0  0
 71 72  1  0  0  0
 72 73  2  0  0  0
 17 18  1  0  0  0
 18 19  1  0  0  0
 19 20  2  0  0  0
 19 21  1  0  0  0
 21 74  1  0  0  0
 74 75  1  0  0  0
 75 76  2  0  0  0
 76 77  1  0  0  0
 77 78  2  0  0  0
 78 79  1  0  0  0
 79 80  2  0  0  0
 21 22  1  0  0  0
 22 23  1  0  0  0
 23 24  2  0  0  0
 23 25  1  0  0  0
 25 26  1  0  0  0
 26 27  1  0  0  0
 27 28  1  0  0  0
 28 29  1  0  0  0
 29 30  1  0  0  0
 30 31  2  0  0  0
 30  1  1  0  0  0
 48 43  1  0  0  0
 66 61  1  0  0  0
 73 68  1  0  0  0
 80 75  1  0  0  0
 29 25  1  0  0  0
  2 32  1  0  0  0
  6 33  1  0  0  0
 54 56  1  0  0  0
 54 57  1  0  0  0
 55 58  1  0  0  0
 55 59  1  0  0  0
 10 34  1  0  0  0
 14 35  1  0  0  0
 18 36  1  0  0  0
 22 37  1  0  0  0
M  END
> <minimizedAffinity>
4.33758

> <CNNscore>
0.2566698492

> <CNNaffinity>
7.2518377304

> <CNN_VS>
1.8613281250

> <CNNaffinity_variance>
0.6369336843

$$$$
[H]c1c([H])c([H])c(C([H])([H])[C@@]2([H])C(=O)N([H])[C@@]([H])(C([H])([H])c3c([H])c([H])c([H])c([H])c3[H])C(=O)N([H])[C@@]([H])(C([H])([H])C([H])([H])C([H])([H])N=C(N([H])[H])N([H])[H])C(=O)N([H])[C@@]([H])(C([H])([H])c3c([H])c([H])c([H])c([H])c3[H])C(=O)N([H])[C@]([H])(C([H])([H])C([H])(C([H])([H])[H])C([H])([H])[H])C(=O)N3C([H])([H])C([H])([H])C([H])([H])[C@]3([H])C(=O)N([H])[C@@]([H])(C([H])([H])c3c([H])c([H])c([H])c([H])c3[H])C(=O)N2[H])c([H])c1[H]


 80 85  0  0  0  0  0  0  0  0999 V2000
  156.3957  139.9917  185.4663 C   0  0  0  0  0  0  0  0  0  0  0  0
  156.5778  139.2035  184.2433 N   0  0  0  0  0  0  0  0  0  0  0  0
  156.2117  139.4874  182.9432 C   0  0  0  0  0  0  0  0  0  0  0  0
  157.1758  139.5050  182.0655 O   0  0  0  0  0  0  0  0  0  0  0  0
  154.8873  139.7794  182.3532 C   0  0  0  0  0  0  0  0  0  0  0  0
  153.7655  139.2431  183.0874 N   0  0  0  0  0  0  0  0  0  0  0  0
  152.4889  138.9165  182.5878 C   0  0  0  0  0  0  0  0  0  0  0  0
  151.4795  139.5096  183.1251 O   0  0  0  0  0  0  0  0  0  0  0  0
  152.1492  137.9688  181.5152 C   0  0  0  0  0  0  0  0  0  0  0  0
  150.7654  137.4904  181.6747 N   0  0  0  0  0  0  0  0  0  0  0  0
  150.3379  136.1679  181.5208 C   0  0  0  0  0  0  0  0  0  0  0  0
  149.1547  135.9884  181.1147 O   0  0  0  0  0  0  0  0  0  0  0  0
  151.1333  134.9463  181.7879 C   0  0  0  0  0  0  0  0  0  0  0  0
  150.3432  134.0344  182.5816 N   0  0  0  0  0  0  0  0  0  0  0  0
  150.7830  133.4236  183.8045 C   0  0  0  0  0  0  0  0  0  0  0  0
  149.8666  133.2995  184.6964 O   0  0  0  0  0  0  0  0  0  0  0  0
  152.1740  132.9719  184.0353 C   0  0  0  0  0  0  0  0  0  0  0  0
  153.0755  134.0673  184.3203 N   0  0  0  0  0  0  0  0  0  0  0  0
  153.1061  134.9050  185.4514 C   0  0  0  0  0  0  0  0  0  0  0  0
  152.9609  136.1640  185.2556 O   0  0  0  0  0  0  0  0  0  0  0  0
  153.2851  134.5354  186.8727 C   0  0  0  0  0  0  0  0  0  0  0  0
  154.3548  135.2141  187.5492 N   0  0  0  0  0  0  0  0  0  0  0  0
  155.1656  136.2943  187.2677 C   0  0  0  0  0  0  0  0  0  0  0  0
  156.4152  135.9852  187.0403 O   0  0  0  0  0  0  0  0  0  0  0  0
  154.9632  137.7404  187.1591 C   0  0  0  0  0  0  0  0  0  0  0  0
  154.0239  138.3537  188.1490 C   0  0  0  0  0  0  0  0  0  0  0  0
  154.8119  138.4290  189.4476 C   0  0  0  0  0  0  0  0  0  0  0  0
  156.2512  138.2809  188.9757 C   0  0  0  0  0  0  0  0  0  0  0  0
  156.1918  138.4839  187.5385 N   0  0  0  0  0  0  0  0  0  0  0  0
  156.9921  139.1642  186.5835 C   0  0  0  0  0  0  0  0  0  0  0  0
  158.2434  139.0392  186.7138 O   0  0  0  0  0  0  0  0  0  0  0  0
  157.0753  138.2583  184.3829 H   0  0  0  0  0  0  0  0  0  0  0  0
  153.9278  139.0804  184.1268 H   0  0  0  0  0  0  0  0  0  0  0  0
  150.0781  138.2599  181.9277 H   0  0  0  0  0  0  0  0  0  0  0  0
  149.3683  133.7935  182.2635 H   0  0  0  0  0  0  0  0  0  0  0  0
  153.8130  134.2807  183.5712 H   0  0  0  0  0  0  0  0  0  0  0  0
  154.5695  134.7384  188.4978 H   0  0  0  0  0  0  0  0  0  0  0  0
  157.1409  141.2906  185.3922 C   0  0  0  0  0  0  0  0  0  0  0  0
  159.2801  141.3456  184.0927 C   0  0  0  0  0  0  0  0  0  0  0  0
  158.6054  141.2784  185.4490 C   0  0  0  0  0  0  0  0  0  0  0  0
  159.2894  142.1872  186.4043 C   0  0  0  0  0  0  0  0  0  0  0  0
  154.6704  141.2133  181.9628 C   0  0  0  0  0  0  0  0  0  0  0  0
  155.8877  142.0046  181.7463 C   0  0  0  0  0  0  0  0  0  0  0  0
  156.7919  141.7432  180.7576 C   0  0  0  0  0  0  0  0  0  0  0  0
  157.9436  142.5199  180.5715 C   0  0  0  0  0  0  0  0  0  0  0  0
  158.1732  143.5793  181.4106 C   0  0  0  0  0  0  0  0  0  0  0  0
  157.2858  143.8620  182.4068 C   0  0  0  0  0  0  0  0  0  0  0  0
  156.1546  143.0789  182.5693 C   0  0  0  0  0  0  0  0  0  0  0  0
  152.2013  138.5273  180.1247 C   0  0  0  0  0  0  0  0  0  0  0  0
  151.9641  140.0247  180.0655 C   0  0  0  0  0  0  0  0  0  0  0  0
  150.5981  140.2142  179.4334 C   0  0  0  0  0  0  0  0  0  0  0  0
  150.0462  138.9835  178.9125 N   0  0  0  0  0  0  0  0  0  0  0  0
  148.8519  138.6344  179.2623 C   0  0  0  0  0  0  0  0  0  0  0  0
  148.0600  139.4070  180.1352 N   0  0  0  0  0  0  0  0  0  0  0  0
  148.3324  137.4264  178.7428 N   0  0  0  0  0  0  0  0  0  0  0  0
  148.0750  139.1797  181.1637 H   0  0  0  0  0  0  0  0  0  0  0  0
  147.4544  140.1944  179.8326 H   0  0  0  0  0  0  0  0  0  0  0  0
  147.4160  137.3679  178.2583 H   0  0  0  0  0  0  0  0  0  0  0  0
  148.8862  136.5554  178.8463 H   0  0  0  0  0  0  0  0  0  0  0  0
  151.6814  134.3683  180.5296 C   0  0  0  0  0  0  0  0  0  0  0  0
  151.0167  133.1595  180.0301 C   0  0  0  0  0  0  0  0  0  0  0  0
  151.4938  131.9041  180.3201 C   0  0  0  0  0  0  0  0  0  0  0  0
  150.8432  130.7654  179.8323 C   0  0  0  0  0  0  0  0  0  0  0  0
  149.7223  130.8889  179.0594 C   0  0  0  0  0  0  0  0  0  0  0  0
  149.2310  132.1496  178.7593 C   0  0  0  0  0  0  0  0  0  0  0  0
  149.8890  133.2638  179.2514 C   0  0  0  0  0  0  0  0  0  0  0  0
  152.3456  131.7935  184.9254 C   0  0  0  0  0  0  0  0  0  0  0  0
  153.7482  131.4342  185.2570 C   0  0  0  0  0  0  0  0  0  0  0  0
  154.7627  131.3076  184.3336 C   0  0  0  0  0  0  0  0  0  0  0  0
  156.0542  130.9751  184.7115 C   0  0  0  0  0  0  0  0  0  0  0  0
  156.3867  130.7545  186.0302 C   0  0  0  0  0  0  0  0  0  0  0  0
  155.3893  130.8759  186.9672 C   0  0  0  0  0  0  0  0  0  0  0  0
  154.1118  131.2052  186.5915 C   0  0  0  0  0  0  0  0  0  0  0  0
  152.0082  134.6902  187.6600 C   0  0  0  0  0  0  0  0  0  0  0  0
  152.0765  133.9409  188.9275 C   0  0  0  0  0  0  0  0  0  0  0  0
  153.2065  133.3648  189.4458 C   0  0  0  0  0  0  0  0  0  0  0  0
  153.1827  132.6744  190.6563 C   0  0  0  0  0  0  0  0  0  0  0  0
  152.0305  132.5426  191.3791 C   0  0  0  0  0  0  0  0  0  0  0  0
  150.8919  133.1035  190.8906 C   0  0  0  0  0  0  0  0  0  0  0  0
  150.9174  133.7788  189.7048 C   0  0  0  0  0  0  0  0  0  0  0  0
 39 40  1  0  0  0
 40 41  1  0  0  0
 40 38  1  0  0  0
 38  1  1  0  0  0
  1  2  1  0  0  0
  2  3  1  0  0  0
  3  4  2  0  0  0
  3  5  1  0  0  0
  5 42  1  0  0  0
 42 43  1  0  0  0
 43 44  2  0  0  0
 44 45  1  0  0  0
 45 46  2  0  0  0
 46 47  1  0  0  0
 47 48  2  0  0  0
  5  6  1  0  0  0
  6  7  1  0  0  0
  7  8  2  0  0  0
  7  9  1  0  0  0
  9 49  1  0  0  0
 49 50  1  0  0  0
 50 51  1  0  0  0
 51 52  1  0  0  0
 52 53  2  0  0  0
 53 54  1  0  0  0
 53 55  1  0  0  0
  9 10  1  0  0  0
 10 11  1  0  0  0
 11 12  2  0  0  0
 11 13  1  0  0  0
 13 60  1  0  0  0
 60 61  1  0  0  0
 61 62  2  0  0  0
 62 63  1  0  0  0
 63 64  2  0  0  0
 64 65  1  0  0  0
 65 66  2  0  0  0
 13 14  1  0  0  0
 14 15  1  0  0  0
 15 16  2  0  0  0
 15 17  1  0  0  0
 17 67  1  0  0  0
 67 68  1  0  0  0
 68 69  2  0  0  0
 69 70  1  0  0  0
 70 71  2  0  0  0
 71 72  1  0  0  0
 72 73  2  0  0  0
 17 18  1  0  0  0
 18 19  1  0  0  0
 19 20  2  0  0  0
 19 21  1  0  0  0
 21 74  1  0  0  0
 74 75  1  0  0  0
 75 76  2  0  0  0
 76 77  1  0  0  0
 77 78  2  0  0  0
 78 79  1  0  0  0
 79 80  2  0  0  0
 21 22  1  0  0  0
 22 23  1  0  0  0
 23 24  2  0  0  0
 23 25  1  0  0  0
 25 26  1  0  0  0
 26 27  1  0  0  0
 27 28  1  0  0  0
 28 29  1  0  0  0
 29 30  1  0  0  0
 30 31  2  0  0  0
 30  1  1  0  0  0
 48 43  1  0  0  0
 66 61  1  0  0  0
 73 68  1  0  0  0
 80 75  1  0  0  0
 29 25  1  0  0  0
  2 32  1  0  0  0
  6 33  1  0  0  0
 54 56  1  0  0  0
 54 57  1  0  0  0
 55 58  1  0  0  0
 55 59  1  0  0  0
 10 34  1  0  0  0
 14 35  1  0  0  0
 18 36  1  0  0  0
 22 37  1  0  0  0
M  END
> <minimizedAffinity>
-1.95932

> <CNNscore>
0.2161452770

> <CNNaffinity>
7.4822587967

> <CNN_VS>
1.6172548532

> <CNNaffinity_variance>
0.4463303089

$$$$
[H]c1c([H])c([H])c(C([H])([H])[C@@]2([H])C(=O)N([H])[C@@]([H])(C([H])([H])c3c([H])c([H])c([H])c([H])c3[H])C(=O)N([H])[C@@]([H])(C([H])([H])C([H])([H])C([H])([H])N=C(N([H])[H])N([H])[H])C(=O)N([H])[C@@]([H])(C([H])([H])c3c([H])c([H])c([H])c([H])c3[H])C(=O)N([H])[C@]([H])(C([H])([H])C([H])(C([H])([H])[H])C([H])([H])[H])C(=O)N3C([H])([H])C([H])([H])C([H])([H])[C@]3([H])C(=O)N([H])[C@@]([H])(C([H])([H])c3c([H])c([H])c([H])c([H])c3[H])C(=O)N2[H])c([H])c1[H]


 80 85  0  0  0  0  0  0  0  0999 V2000
  153.8087  138.9078  184.9943 C   0  0  0  0  0  0  0  0  0  0  0  0
  153.5318  137.7351  184.1589 N   0  0  0  0  0  0  0  0  0  0  0  0
  152.4496  137.4606  183.3473 C   0  0  0  0  0  0  0  0  0  0  0  0
  152.7156  137.2404  182.0900 O   0  0  0  0  0  0  0  0  0  0  0  0
  151.0068  137.3666  183.6582 C   0  0  0  0  0  0  0  0  0  0  0  0
  150.7032  137.0394  185.0315 N   0  0  0  0  0  0  0  0  0  0  0  0
  149.5410  136.4169  185.5294 C   0  0  0  0  0  0  0  0  0  0  0  0
  148.8625  137.0629  186.4135 O   0  0  0  0  0  0  0  0  0  0  0  0
  148.9903  135.1014  185.1685 C   0  0  0  0  0  0  0  0  0  0  0  0
  148.1517  134.5806  186.2614 N   0  0  0  0  0  0  0  0  0  0  0  0
  148.1510  133.2633  186.7309 C   0  0  0  0  0  0  0  0  0  0  0  0
  147.0663  132.8212  187.2052 O   0  0  0  0  0  0  0  0  0  0  0  0
  149.2988  132.3259  186.7316 C   0  0  0  0  0  0  0  0  0  0  0  0
  149.4035  131.7108  188.0341 N   0  0  0  0  0  0  0  0  0  0  0  0
  150.6035  131.6631  188.8213 C   0  0  0  0  0  0  0  0  0  0  0  0
  150.4158  131.7961  190.0853 O   0  0  0  0  0  0  0  0  0  0  0  0
  151.9527  131.4801  188.2395 C   0  0  0  0  0  0  0  0  0  0  0  0
  152.4646  132.6877  187.6286 N   0  0  0  0  0  0  0  0  0  0  0  0
  152.8414  133.8928  188.2516 C   0  0  0  0  0  0  0  0  0  0  0  0
  152.2262  134.9589  187.8917 O   0  0  0  0  0  0  0  0  0  0  0  0
  153.8710  134.1156  189.2903 C   0  0  0  0  0  0  0  0  0  0  0  0
  154.8579  135.1078  188.9678 N   0  0  0  0  0  0  0  0  0  0  0  0
  154.9955  136.0754  187.9939 C   0  0  0  0  0  0  0  0  0  0  0  0
  155.9403  135.8334  187.1236 O   0  0  0  0  0  0  0  0  0  0  0  0
  154.3246  137.3408  187.6895 C   0  0  0  0  0  0  0  0  0  0  0  0
  153.9407  138.1858  188.8630 C   0  0  0  0  0  0  0  0  0  0  0  0
  155.2372  138.8330  189.3250 C   0  0  0  0  0  0  0  0  0  0  0  0
  156.1457  138.6648  188.1157 C   0  0  0  0  0  0  0  0  0  0  0  0
  155.2529  138.2952  187.0310 N   0  0  0  0  0  0  0  0  0  0  0  0
  155.1411  138.6370  185.6577 C   0  0  0  0  0  0  0  0  0  0  0  0
  156.2242  138.7010  185.0089 O   0  0  0  0  0  0  0  0  0  0  0  0
  154.2916  136.9719  184.1825 H   0  0  0  0  0  0  0  0  0  0  0  0
  151.4466  137.3045  185.7457 H   0  0  0  0  0  0  0  0  0  0  0  0
  147.5133  135.3131  186.6909 H   0  0  0  0  0  0  0  0  0  0  0  0
  148.5479  131.2675  188.4596 H   0  0  0  0  0  0  0  0  0  0  0  0
  152.5629  132.6731  186.5606 H   0  0  0  0  0  0  0  0  0  0  0  0
  155.6911  135.0560  189.6572 H   0  0  0  0  0  0  0  0  0  0  0  0
  153.9395  140.1489  184.1633 C   0  0  0  0  0  0  0  0  0  0  0  0
  153.7705  140.4136  181.6794 C   0  0  0  0  0  0  0  0  0  0  0  0
  154.6380  140.0770  182.8768 C   0  0  0  0  0  0  0  0  0  0  0  0
  155.9633  140.7352  182.7472 C   0  0  0  0  0  0  0  0  0  0  0  0
  150.1749  138.5114  183.1554 C   0  0  0  0  0  0  0  0  0  0  0  0
  149.7959  138.4481  181.7387 C   0  0  0  0  0  0  0  0  0  0  0  0
  150.4075  139.1777  180.7604 C   0  0  0  0  0  0  0  0  0  0  0  0
  150.0273  139.0926  179.4142 C   0  0  0  0  0  0  0  0  0  0  0  0
  149.0052  138.2487  179.0646 C   0  0  0  0  0  0  0  0  0  0  0  0
  148.3770  137.5087  180.0225 C   0  0  0  0  0  0  0  0  0  0  0  0
  148.7723  137.6108  181.3464 C   0  0  0  0  0  0  0  0  0  0  0  0
  148.0979  135.0876  183.9637 C   0  0  0  0  0  0  0  0  0  0  0  0
  147.7466  133.6904  183.4877 C   0  0  0  0  0  0  0  0  0  0  0  0
  148.3244  133.5591  182.0912 C   0  0  0  0  0  0  0  0  0  0  0  0
  149.6709  134.0763  181.9910 N   0  0  0  0  0  0  0  0  0  0  0  0
  150.1621  134.3235  180.8214 C   0  0  0  0  0  0  0  0  0  0  0  0
  149.4368  134.1088  179.6323 N   0  0  0  0  0  0  0  0  0  0  0  0
  151.4812  134.8270  180.7461 N   0  0  0  0  0  0  0  0  0  0  0  0
  149.5554  133.1915  179.1281 H   0  0  0  0  0  0  0  0  0  0  0  0
  148.7856  134.8000  179.2120 H   0  0  0  0  0  0  0  0  0  0  0  0
  151.7274  135.6896  180.2236 H   0  0  0  0  0  0  0  0  0  0  0  0
  152.2423  134.3171  181.2327 H   0  0  0  0  0  0  0  0  0  0  0  0
  149.2211  131.3703  185.5920 C   0  0  0  0  0  0  0  0  0  0  0  0
  150.2894  131.4691  184.5912 C   0  0  0  0  0  0  0  0  0  0  0  0
  150.2436  130.7569  183.4173 C   0  0  0  0  0  0  0  0  0  0  0  0
  151.2744  130.8670  182.4775 C   0  0  0  0  0  0  0  0  0  0  0  0
  152.3420  131.6866  182.7171 C   0  0  0  0  0  0  0  0  0  0  0  0
  152.4005  132.4102  183.8976 C   0  0  0  0  0  0  0  0  0  0  0  0
  151.3707  132.2876  184.8147 C   0  0  0  0  0  0  0  0  0  0  0  0
  152.9413  130.7564  189.0816 C   0  0  0  0  0  0  0  0  0  0  0  0
  154.3512  130.8176  188.6182 C   0  0  0  0  0  0  0  0  0  0  0  0
  154.7437  130.7736  187.2983 C   0  0  0  0  0  0  0  0  0  0  0  0
  156.0789  130.8418  186.9328 C   0  0  0  0  0  0  0  0  0  0  0  0
  157.0800  130.9567  187.8725 C   0  0  0  0  0  0  0  0  0  0  0  0
  156.7098  131.0024  189.1948 C   0  0  0  0  0  0  0  0  0  0  0  0
  155.3879  130.9350  189.5547 C   0  0  0  0  0  0  0  0  0  0  0  0
  153.2584  134.4273  190.6326 C   0  0  0  0  0  0  0  0  0  0  0  0
  151.8697  134.8977  190.4817 C   0  0  0  0  0  0  0  0  0  0  0  0
  150.7528  134.2004  190.8610 C   0  0  0  0  0  0  0  0  0  0  0  0
  149.4728  134.7225  190.6837 C   0  0  0  0  0  0  0  0  0  0  0  0
  149.2764  135.9536  190.1241 C   0  0  0  0  0  0  0  0  0  0  0  0
  150.3656  136.6702  189.7372 C   0  0  0  0  0  0  0  0  0  0  0  0
  151.6182  136.1568  189.9112 C   0  0  0  0  0  0  0  0  0  0  0  0
 39 40  1  0  0  0
 40 41  1  0  0  0
 40 38  1  0  0  0
 38  1  1  0  0  0
  1  2  1  0  0  0
  2  3  1  0  0  0
  3  4  2  0  0  0
  3  5  1  0  0  0
  5 42  1  0  0  0
 42 43  1  0  0  0
 43 44  2  0  0  0
 44 45  1  0  0  0
 45 46  2  0  0  0
 46 47  1  0  0  0
 47 48  2  0  0  0
  5  6  1  0  0  0
  6  7  1  0  0  0
  7  8  2  0  0  0
  7  9  1  0  0  0
  9 49  1  0  0  0
 49 50  1  0  0  0
 50 51  1  0  0  0
 51 52  1  0  0  0
 52 53  2  0  0  0
 53 54  1  0  0  0
 53 55  1  0  0  0
  9 10  1  0  0  0
 10 11  1  0  0  0
 11 12  2  0  0  0
 11 13  1  0  0  0
 13 60  1  0  0  0
 60 61  1  0  0  0
 61 62  2  0  0  0
 62 63  1  0  0  0
 63 64  2  0  0  0
 64 65  1  0  0  0
 65 66  2  0  0  0
 13 14  1  0  0  0
 14 15  1  0  0  0
 15 16  2  0  0  0
 15 17  1  0  0  0
 17 67  1  0  0  0
 67 68  1  0  0  0
 68 69  2  0  0  0
 69 70  1  0  0  0
 70 71  2  0  0  0
 71 72  1  0  0  0
 72 73  2  0  0  0
 17 18  1  0  0  0
 18 19  1  0  0  0
 19 20  2  0  0  0
 19 21  1  0  0  0
 21 74  1  0  0  0
 74 75  1  0  0  0
 75 76  2  0  0  0
 76 77  1  0  0  0
 77 78  2  0  0  0
 78 79  1  0  0  0
 79 80  2  0  0  0
 21 22  1  0  0  0
 22 23  1  0  0  0
 23 24  2  0  0  0
 23 25  1  0  0  0
 25 26  1  0  0  0
 26 27  1  0  0  0
 27 28  1  0  0  0
 28 29  1  0  0  0
 29 30  1  0  0  0
 30 31  2  0  0  0
 30  1  1  0  0  0
 48 43  1  0  0  0
 66 61  1  0  0  0
 73 68  1  0  0  0
 80 75  1  0  0  0
 29 25  1  0  0  0
  2 32  1  0  0  0
  6 33  1  0  0  0
 54 56  1  0  0  0
 54 57  1  0  0  0
 55 58  1  0  0  0
 55 59  1  0  0  0
 10 34  1  0  0  0
 14 35  1  0  0  0
 18 36  1  0  0  0
 22 37  1  0  0  0
M  END
> <minimizedAffinity>
-3.84669

> <CNNscore>
0.2063089162

> <CNNaffinity>
7.0751037598

> <CNN_VS>
1.4596569538

> <CNNaffinity_variance>
1.0529823303

$$$$
[H]c1c([H])c([H])c(C([H])([H])[C@@]2([H])C(=O)N([H])[C@@]([H])(C([H])([H])c3c([H])c([H])c([H])c([H])c3[H])C(=O)N([H])[C@@]([H])(C([H])([H])C([H])([H])C([H])([H])N=C(N([H])[H])N([H])[H])C(=O)N([H])[C@@]([H])(C([H])([H])c3c([H])c([H])c([H])c([H])c3[H])C(=O)N([H])[C@]([H])(C([H])([H])C([H])(C([H])([H])[H])C([H])([H])[H])C(=O)N3C([H])([H])C([H])([H])C([H])([H])[C@]3([H])C(=O)N([H])[C@@]([H])(C([H])([H])c3c([H])c([H])c([H])c([H])c3[H])C(=O)N2[H])c([H])c1[H]


 80 85  0  0  0  0  0  0  0  0999 V2000
  153.8024  139.2786  183.7257 C   0  0  0  0  0  0  0  0  0  0  0  0
  153.7122  138.1515  182.7921 N   0  0  0  0  0  0  0  0  0  0  0  0
  152.6918  137.7891  181.9362 C   0  0  0  0  0  0  0  0  0  0  0  0
  153.0012  137.7160  180.6717 O   0  0  0  0  0  0  0  0  0  0  0  0
  151.2758  137.4577  182.2052 C   0  0  0  0  0  0  0  0  0  0  0  0
  151.0094  136.9761  183.5401 N   0  0  0  0  0  0  0  0  0  0  0  0
  149.9476  136.1497  183.9593 C   0  0  0  0  0  0  0  0  0  0  0  0
  149.1709  136.6126  184.8767 O   0  0  0  0  0  0  0  0  0  0  0  0
  149.6028  134.8020  183.4806 C   0  0  0  0  0  0  0  0  0  0  0  0
  148.8394  134.0740  184.5082 N   0  0  0  0  0  0  0  0  0  0  0  0
  149.0297  132.7366  184.8696 C   0  0  0  0  0  0  0  0  0  0  0  0
  148.0178  132.1014  185.2815 O   0  0  0  0  0  0  0  0  0  0  0  0
  150.3042  131.9819  184.8210 C   0  0  0  0  0  0  0  0  0  0  0  0
  150.4852  131.2826  186.0717 N   0  0  0  0  0  0  0  0  0  0  0  0
  151.6704  131.3470  186.8799 C   0  0  0  0  0  0  0  0  0  0  0  0
  151.4514  131.3450  188.1458 O   0  0  0  0  0  0  0  0  0  0  0  0
  153.0380  131.4140  186.3164 C   0  0  0  0  0  0  0  0  0  0  0  0
  153.3710  132.7306  185.8171 N   0  0  0  0  0  0  0  0  0  0  0  0
  153.5574  133.9219  186.5439 C   0  0  0  0  0  0  0  0  0  0  0  0
  152.7943  134.9119  186.2572 O   0  0  0  0  0  0  0  0  0  0  0  0
  154.5310  134.2068  187.6207 C   0  0  0  0  0  0  0  0  0  0  0  0
  155.3627  135.3571  187.4022 N   0  0  0  0  0  0  0  0  0  0  0  0
  155.3652  136.4122  186.5132 C   0  0  0  0  0  0  0  0  0  0  0  0
  156.3448  136.3855  185.6482 O   0  0  0  0  0  0  0  0  0  0  0  0
  154.5167  137.5857  186.2966 C   0  0  0  0  0  0  0  0  0  0  0  0
  153.9987  138.2641  187.5254 C   0  0  0  0  0  0  0  0  0  0  0  0
  155.1792  139.0546  188.0680 C   0  0  0  0  0  0  0  0  0  0  0  0
  156.1158  139.1236  186.8703 C   0  0  0  0  0  0  0  0  0  0  0  0
  155.2996  138.7180  185.7390 N   0  0  0  0  0  0  0  0  0  0  0  0
  155.1530  139.1528  184.3956 C   0  0  0  0  0  0  0  0  0  0  0  0
  156.2215  139.4297  183.7791 O   0  0  0  0  0  0  0  0  0  0  0  0
  154.5770  137.5095  182.7714 H   0  0  0  0  0  0  0  0  0  0  0  0
  151.6974  137.2874  184.2904 H   0  0  0  0  0  0  0  0  0  0  0  0
  148.0944  134.6660  184.9807 H   0  0  0  0  0  0  0  0  0  0  0  0
  149.7006  130.6841  186.4401 H   0  0  0  0  0  0  0  0  0  0  0  0
  153.4819  132.8197  184.7539 H   0  0  0  0  0  0  0  0  0  0  0  0
  156.1868  135.3715  188.1042 H   0  0  0  0  0  0  0  0  0  0  0  0
  153.7560  140.5903  183.0009 C   0  0  0  0  0  0  0  0  0  0  0  0
  155.5730  141.9771  184.0224 C   0  0  0  0  0  0  0  0  0  0  0  0
  154.0945  141.8189  183.7248 C   0  0  0  0  0  0  0  0  0  0  0  0
  153.5302  143.1069  183.2462 C   0  0  0  0  0  0  0  0  0  0  0  0
  150.2883  138.5052  181.7775 C   0  0  0  0  0  0  0  0  0  0  0  0
  149.1855  138.0322  180.9319 C   0  0  0  0  0  0  0  0  0  0  0  0
  149.3442  137.6406  179.6338 C   0  0  0  0  0  0  0  0  0  0  0  0
  148.2728  137.1881  178.8518 C   0  0  0  0  0  0  0  0  0  0  0  0
  147.0204  137.1366  179.4067 C   0  0  0  0  0  0  0  0  0  0  0  0
  146.8343  137.5225  180.7014 C   0  0  0  0  0  0  0  0  0  0  0  0
  147.9102  137.9655  181.4534 C   0  0  0  0  0  0  0  0  0  0  0  0
  148.7355  134.7572  182.2584 C   0  0  0  0  0  0  0  0  0  0  0  0
  149.5194  134.6342  180.9651 C   0  0  0  0  0  0  0  0  0  0  0  0
  150.7500  133.8089  181.2906 C   0  0  0  0  0  0  0  0  0  0  0  0
  151.9836  134.5241  181.0518 N   0  0  0  0  0  0  0  0  0  0  0  0
  153.1078  133.9109  181.2264 C   0  0  0  0  0  0  0  0  0  0  0  0
  153.1828  132.5665  181.6423 N   0  0  0  0  0  0  0  0  0  0  0  0
  154.3021  134.6295  180.9892 N   0  0  0  0  0  0  0  0  0  0  0  0
  153.2862  132.3619  182.6705 H   0  0  0  0  0  0  0  0  0  0  0  0
  153.1434  131.7524  180.9987 H   0  0  0  0  0  0  0  0  0  0  0  0
  155.0528  134.2852  180.3601 H   0  0  0  0  0  0  0  0  0  0  0  0
  154.4413  135.5428  181.4610 H   0  0  0  0  0  0  0  0  0  0  0  0
  150.3820  131.1236  183.6065 C   0  0  0  0  0  0  0  0  0  0  0  0
  149.2152  131.1538  182.7175 C   0  0  0  0  0  0  0  0  0  0  0  0
  149.3525  131.1793  181.3508 C   0  0  0  0  0  0  0  0  0  0  0  0
  148.2250  131.2081  180.5227 C   0  0  0  0  0  0  0  0  0  0  0  0
  146.9702  131.2112  181.0654 C   0  0  0  0  0  0  0  0  0  0  0  0
  146.8179  131.1860  182.4426 C   0  0  0  0  0  0  0  0  0  0  0  0
  147.9460  131.1577  183.2447 C   0  0  0  0  0  0  0  0  0  0  0  0
  154.1142  130.7764  187.1199 C   0  0  0  0  0  0  0  0  0  0  0  0
  155.4934  130.9343  186.5917 C   0  0  0  0  0  0  0  0  0  0  0  0
  156.5953  131.2404  187.3600 C   0  0  0  0  0  0  0  0  0  0  0  0
  157.8585  131.3674  186.8037 C   0  0  0  0  0  0  0  0  0  0  0  0
  158.0741  131.1940  185.4540 C   0  0  0  0  0  0  0  0  0  0  0  0
  156.9882  130.8881  184.6700 C   0  0  0  0  0  0  0  0  0  0  0  0
  155.7388  130.7625  185.2220 C   0  0  0  0  0  0  0  0  0  0  0  0
  153.8644  134.3119  188.9694 C   0  0  0  0  0  0  0  0  0  0  0  0
  154.8377  134.6879  190.0104 C   0  0  0  0  0  0  0  0  0  0  0  0
  154.7649  135.8104  190.7929 C   0  0  0  0  0  0  0  0  0  0  0  0
  155.7301  136.0889  191.7590 C   0  0  0  0  0  0  0  0  0  0  0  0
  156.7912  135.2537  191.9679 C   0  0  0  0  0  0  0  0  0  0  0  0
  156.8914  134.1311  191.2066 C   0  0  0  0  0  0  0  0  0  0  0  0
  155.9453  133.8605  190.2609 C   0  0  0  0  0  0  0  0  0  0  0  0
 39 40  1  0  0  0
 40 41  1  0  0  0
 40 38  1  0  0  0
 38  1  1  0  0  0
  1  2  1  0  0  0
  2  3  1  0  0  0
  3  4  2  0  0  0
  3  5  1  0  0  0
  5 42  1  0  0  0
 42 43  1  0  0  0
 43 44  2  0  0  0
 44 45  1  0  0  0
 45 46  2  0  0  0
 46 47  1  0  0  0
 47 48  2  0  0  0
  5  6  1  0  0  0
  6  7  1  0  0  0
  7  8  2  0  0  0
  7  9  1  0  0  0
  9 49  1  0  0  0
 49 50  1  0  0  0
 50 51  1  0  0  0
 51 52  1  0  0  0
 52 53  2  0  0  0
 53 54  1  0  0  0
 53 55  1  0  0  0
  9 10  1  0  0  0
 10 11  1  0  0  0
 11 12  2  0  0  0
 11 13  1  0  0  0
 13 60  1  0  0  0
 60 61  1  0  0  0
 61 62  2  0  0  0
 62 63  1  0  0  0
 63 64  2  0  0  0
 64 65  1  0  0  0
 65 66  2  0  0  0
 13 14  1  0  0  0
 14 15  1  0  0  0
 15 16  2  0  0  0
 15 17  1  0  0  0
 17 67  1  0  0  0
 67 68  1  0  0  0
 68 69  2  0  0  0
 69 70  1  0  0  0
 70 71  2  0  0  0
 71 72  1  0  0  0
 72 73  2  0  0  0
 17 18  1  0  0  0
 18 19  1  0  0  0
 19 20  2  0  0  0
 19 21  1  0  0  0
 21 74  1  0  0  0
 74 75  1  0  0  0
 75 76  2  0  0  0
 76 77  1  0  0  0
 77 78  2  0  0  0
 78 79  1  0  0  0
 79 80  2  0  0  0
 21 22  1  0  0  0
 22 23  1  0  0  0
 23 24  2  0  0  0
 23 25  1  0  0  0
 25 26  1  0  0  0
 26 27  1  0  0  0
 27 28  1  0  0  0
 28 29  1  0  0  0
 29 30  1  0  0  0
 30 31  2  0  0  0
 30  1  1  0  0  0
 48 43  1  0  0  0
 66 61  1  0  0  0
 73 68  1  0  0  0
 80 75  1  0  0  0
 29 25  1  0  0  0
  2 32  1  0  0  0
  6 33  1  0  0  0
 54 56  1  0  0  0
 54 57  1  0  0  0
 55 58  1  0  0  0
 55 59  1  0  0  0
 10 34  1  0  0  0
 14 35  1  0  0  0
 18 36  1  0  0  0
 22 37  1  0  0  0
M  END
> <minimizedAffinity>
-2.41413

> <CNNscore>
0.2060160786

> <CNNaffinity>
6.9895009995

> <CNN_VS>
1.4399496317

> <CNNaffinity_variance>
1.3221031427

$$$$
[H]c1c([H])c([H])c(C([H])([H])[C@@]2([H])C(=O)N([H])[C@@]([H])(C([H])([H])c3c([H])c([H])c([H])c([H])c3[H])C(=O)N([H])[C@@]([H])(C([H])([H])C([H])([H])C([H])([H])N=C(N([H])[H])N([H])[H])C(=O)N([H])[C@@]([H])(C([H])([H])c3c([H])c([H])c([H])c([H])c3[H])C(=O)N([H])[C@]([H])(C([H])([H])C([H])(C([H])([H])[H])C([H])([H])[H])C(=O)N3C([H])([H])C([H])([H])C([H])([H])[C@]3([H])C(=O)N([H])[C@@]([H])(C([H])([H])c3c([H])c([H])c([H])c([H])c3[H])C(=O)N2[H])c([H])c1[H]


 80 85  0  0  0  0  0  0  0  0999 V2000
  149.7576  136.0816  183.7275 C   0  0  0  0  0  0  0  0  0  0  0  0
  151.0566  136.6528  184.0964 N   0  0  0  0  0  0  0  0  0  0  0  0
  152.2917  136.5053  183.4983 C   0  0  0  0  0  0  0  0  0  0  0  0
  152.8726  137.6030  183.1010 O   0  0  0  0  0  0  0  0  0  0  0  0
  153.0948  135.2941  183.2237 C   0  0  0  0  0  0  0  0  0  0  0  0
  152.8178  134.1740  184.0919 N   0  0  0  0  0  0  0  0  0  0  0  0
  153.6808  133.1104  184.4237 C   0  0  0  0  0  0  0  0  0  0  0  0
  153.2756  131.9189  184.1492 O   0  0  0  0  0  0  0  0  0  0  0  0
  155.0073  133.1813  185.0557 C   0  0  0  0  0  0  0  0  0  0  0  0
  155.3179  131.9128  185.7366 N   0  0  0  0  0  0  0  0  0  0  0  0
  155.9005  131.7888  187.0018 C   0  0  0  0  0  0  0  0  0  0  0  0
  156.6159  130.7679  187.2091 O   0  0  0  0  0  0  0  0  0  0  0  0
  155.7638  132.7360  188.1332 C   0  0  0  0  0  0  0  0  0  0  0  0
  155.4446  131.9953  189.3313 N   0  0  0  0  0  0  0  0  0  0  0  0
  154.3462  132.2922  190.2074 C   0  0  0  0  0  0  0  0  0  0  0  0
  153.7673  131.2582  190.7034 O   0  0  0  0  0  0  0  0  0  0  0  0
  153.9033  133.6700  190.5204 C   0  0  0  0  0  0  0  0  0  0  0  0
  153.1391  134.2671  189.4466 N   0  0  0  0  0  0  0  0  0  0  0  0
  151.8614  133.9089  188.9762 C   0  0  0  0  0  0  0  0  0  0  0  0
  151.7625  133.5648  187.7448 O   0  0  0  0  0  0  0  0  0  0  0  0
  150.5804  133.8691  189.7152 C   0  0  0  0  0  0  0  0  0  0  0  0
  149.5136  134.6305  189.1279 N   0  0  0  0  0  0  0  0  0  0  0  0
  149.3059  135.2565  187.9160 C   0  0  0  0  0  0  0  0  0  0  0  0
  149.2905  136.5620  187.9796 O   0  0  0  0  0  0  0  0  0  0  0  0
  149.0921  134.8038  186.5401 C   0  0  0  0  0  0  0  0  0  0  0  0
  148.2410  133.5854  186.3684 C   0  0  0  0  0  0  0  0  0  0  0  0
  146.8133  134.0690  186.5703 C   0  0  0  0  0  0  0  0  0  0  0  0
  146.9396  135.5744  186.3857 C   0  0  0  0  0  0  0  0  0  0  0  0
  148.2483  135.7645  185.7843 N   0  0  0  0  0  0  0  0  0  0  0  0
  148.7744  136.5920  184.7578 C   0  0  0  0  0  0  0  0  0  0  0  0
  148.3773  137.7922  184.7503 O   0  0  0  0  0  0  0  0  0  0  0  0
  151.0425  137.2859  184.9678 H   0  0  0  0  0  0  0  0  0  0  0  0
  151.8461  134.1542  184.5261 H   0  0  0  0  0  0  0  0  0  0  0  0
  155.0552  131.0531  185.1703 H   0  0  0  0  0  0  0  0  0  0  0  0
  156.0421  131.1688  189.5950 H   0  0  0  0  0  0  0  0  0  0  0  0
  153.6057  135.0835  188.9306 H   0  0  0  0  0  0  0  0  0  0  0  0
  148.6932  134.7398  189.8257 H   0  0  0  0  0  0  0  0  0  0  0  0
  149.3164  136.5608  182.3770 C   0  0  0  0  0  0  0  0  0  0  0  0
  148.6590  135.5227  180.1957 C   0  0  0  0  0  0  0  0  0  0  0  0
  148.3028  135.7971  181.6439 C   0  0  0  0  0  0  0  0  0  0  0  0
  147.7399  134.5739  182.2710 C   0  0  0  0  0  0  0  0  0  0  0  0
  153.1516  134.8861  181.7795 C   0  0  0  0  0  0  0  0  0  0  0  0
  152.5128  133.6049  181.4550 C   0  0  0  0  0  0  0  0  0  0  0  0
  153.1717  132.5579  180.8779 C   0  0  0  0  0  0  0  0  0  0  0  0
  152.5364  131.3437  180.5841 C   0  0  0  0  0  0  0  0  0  0  0  0
  151.2068  131.1998  180.8848 C   0  0  0  0  0  0  0  0  0  0  0  0
  150.5249  132.2305  181.4613 C   0  0  0  0  0  0  0  0  0  0  0  0
  151.1763  133.4205  181.7421 C   0  0  0  0  0  0  0  0  0  0  0  0
  156.1552  133.4005  184.1164 C   0  0  0  0  0  0  0  0  0  0  0  0
  156.8930  132.1247  183.7556 C   0  0  0  0  0  0  0  0  0  0  0  0
  156.6443  131.8932  182.2771 C   0  0  0  0  0  0  0  0  0  0  0  0
  157.8635  131.6744  181.5313 N   0  0  0  0  0  0  0  0  0  0  0  0
  157.8125  131.6481  180.2402 C   0  0  0  0  0  0  0  0  0  0  0  0
  156.6117  131.8245  179.5239 N   0  0  0  0  0  0  0  0  0  0  0  0
  159.0160  131.4308  179.5307 N   0  0  0  0  0  0  0  0  0  0  0  0
  156.0660  130.9705  179.2367 H   0  0  0  0  0  0  0  0  0  0  0  0
  156.2218  132.7487  179.2552 H   0  0  0  0  0  0  0  0  0  0  0  0
  159.3459  132.0589  178.7727 H   0  0  0  0  0  0  0  0  0  0  0  0
  159.6011  130.6093  179.7731 H   0  0  0  0  0  0  0  0  0  0  0  0
  156.9532  133.6252  188.2448 C   0  0  0  0  0  0  0  0  0  0  0  0
  156.6773  135.0529  188.4397 C   0  0  0  0  0  0  0  0  0  0  0  0
  156.9628  135.6856  189.6253 C   0  0  0  0  0  0  0  0  0  0  0  0
  156.6906  137.0484  189.7882 C   0  0  0  0  0  0  0  0  0  0  0  0
  156.1358  137.7682  188.7668 C   0  0  0  0  0  0  0  0  0  0  0  0
  155.8426  137.1418  187.5659 C   0  0  0  0  0  0  0  0  0  0  0  0
  156.1195  135.7927  187.4245 C   0  0  0  0  0  0  0  0  0  0  0  0
  153.3254  133.8855  191.8732 C   0  0  0  0  0  0  0  0  0  0  0  0
  153.0322  135.2966  192.2322 C   0  0  0  0  0  0  0  0  0  0  0  0
  151.9616  135.7029  192.9982 C   0  0  0  0  0  0  0  0  0  0  0  0
  151.7488  137.0383  193.3024 C   0  0  0  0  0  0  0  0  0  0  0  0
  152.5982  138.0257  192.8529 C   0  0  0  0  0  0  0  0  0  0  0  0
  153.6723  137.6416  192.0873 C   0  0  0  0  0  0  0  0  0  0  0  0
  153.8816  136.3195  191.7874 C   0  0  0  0  0  0  0  0  0  0  0  0
  150.1173  132.4556  189.9638 C   0  0  0  0  0  0  0  0  0  0  0  0
  149.7301  132.2681  191.3735 C   0  0  0  0  0  0  0  0  0  0  0  0
  149.7804  133.2353  192.3429 C   0  0  0  0  0  0  0  0  0  0  0  0
  149.3915  132.9724  193.6552 C   0  0  0  0  0  0  0  0  0  0  0  0
  148.9424  131.7380  194.0318 C   0  0  0  0  0  0  0  0  0  0  0  0
  148.8810  130.7568  193.0921 C   0  0  0  0  0  0  0  0  0  0  0  0
  149.2628  131.0162  191.8076 C   0  0  0  0  0  0  0  0  0  0  0  0
 39 40  1  0  0  0
 40 41  1  0  0  0
 40 38  1  0  0  0
 38  1  1  0  0  0
  1  2  1  0  0  0
  2  3  1  0  0  0
  3  4  2  0  0  0
  3  5  1  0  0  0
  5 42  1  0  0  0
 42 43  1  0  0  0
 43 44  2  0  0  0
 44 45  1  0  0  0
 45 46  2  0  0  0
 46 47  1  0  0  0
 47 48  2  0  0  0
  5  6  1  0  0  0
  6  7  1  0  0  0
  7  8  2  0  0  0
  7  9  1  0  0  0
  9 49  1  0  0  0
 49 50  1  0  0  0
 50 51  1  0  0  0
 51 52  1  0  0  0
 52 53  2  0  0  0
 53 54  1  0  0  0
 53 55  1  0  0  0
  9 10  1  0  0  0
 10 11  1  0  0  0
 11 12  2  0  0  0
 11 13  1  0  0  0
 13 60  1  0  0  0
 60 61  1  0  0  0
 61 62  2  0  0  0
 62 63  1  0  0  0
 63 64  2  0  0  0
 64 65  1  0  0  0
 65 66  2  0  0  0
 13 14  1  0  0  0
 14 15  1  0  0  0
 15 16  2  0  0  0
 15 17  1  0  0  0
 17 67  1  0  0  0
 67 68  1  0  0  0
 68 69  2  0  0  0
 69 70  1  0  0  0
 70 71  2  0  0  0
 71 72  1  0  0  0
 72 73  2  0  0  0
 17 18  1  0  0  0
 18 19  1  0  0  0
 19 20  2  0  0  0
 19 21  1  0  0  0
 21 74  1  0  0  0
 74 75  1  0  0  0
 75 76  2  0  0  0
 76 77  1  0  0  0
 77 78  2  0  0  0
 78 79  1  0  0  0
 79 80  2  0  0  0
 21 22  1  0  0  0
 22 23  1  0  0  0
 23 24  2  0  0  0
 23 25  1  0  0  0
 25 26  1  0  0  0
 26 27  1  0  0  0
 27 28  1  0  0  0
 28 29  1  0  0  0
 29 30  1  0  0  0
 30 31  2  0  0  0
 30  1  1  0  0  0
 48 43  1  0  0  0
 66 61  1  0  0  0
 73 68  1  0  0  0
 80 75  1  0  0  0
 29 25  1  0  0  0
  2 32  1  0  0  0
  6 33  1  0  0  0
 54 56  1  0  0  0
 54 57  1  0  0  0
 55 58  1  0  0  0
 55 59  1  0  0  0
 10 34  1  0  0  0
 14 35  1  0  0  0
 18 36  1  0  0  0
 22 37  1  0  0  0
M  END
> <minimizedAffinity>
-5.62617

> <CNNscore>
0.1886809021

> <CNNaffinity>
6.8357453346

> <CNN_VS>
1.2897745371

> <CNNaffinity_variance>
1.3438645601

$$$$
[H]c1c([H])c([H])c(C([H])([H])[C@@]2([H])C(=O)N([H])[C@@]([H])(C([H])([H])c3c([H])c([H])c([H])c([H])c3[H])C(=O)N([H])[C@@]([H])(C([H])([H])C([H])([H])C([H])([H])N=C(N([H])[H])N([H])[H])C(=O)N([H])[C@@]([H])(C([H])([H])c3c([H])c([H])c([H])c([H])c3[H])C(=O)N([H])[C@]([H])(C([H])([H])C([H])(C([H])([H])[H])C([H])([H])[H])C(=O)N3C([H])([H])C([H])([H])C([H])([H])[C@]3([H])C(=O)N([H])[C@@]([H])(C([H])([H])c3c([H])c([H])c([H])c([H])c3[H])C(=O)N2[H])c([H])c1[H]


 80 85  0  0  0  0  0  0  0  0999 V2000
  153.6068  138.9935  184.5961 C   0  0  0  0  0  0  0  0  0  0  0  0
  153.1610  137.8688  183.7676 N   0  0  0  0  0  0  0  0  0  0  0  0
  151.9754  137.6862  183.0849 C   0  0  0  0  0  0  0  0  0  0  0  0
  152.0764  137.4952  181.7990 O   0  0  0  0  0  0  0  0  0  0  0  0
  150.5766  137.6649  183.5645 C   0  0  0  0  0  0  0  0  0  0  0  0
  150.4183  137.3077  184.9547 N   0  0  0  0  0  0  0  0  0  0  0  0
  149.2872  136.7364  185.5714 C   0  0  0  0  0  0  0  0  0  0  0  0
  148.7594  137.3891  186.5484 O   0  0  0  0  0  0  0  0  0  0  0  0
  148.6176  135.4684  185.2426 C   0  0  0  0  0  0  0  0  0  0  0  0
  147.8839  134.9589  186.4136 N   0  0  0  0  0  0  0  0  0  0  0  0
  147.8577  133.6282  186.8427 C   0  0  0  0  0  0  0  0  0  0  0  0
  146.8117  133.2332  187.4316 O   0  0  0  0  0  0  0  0  0  0  0  0
  148.9375  132.6265  186.6789 C   0  0  0  0  0  0  0  0  0  0  0  0
  149.1576  131.9610  187.9417 N   0  0  0  0  0  0  0  0  0  0  0  0
  150.4373  131.8163  188.5769 C   0  0  0  0  0  0  0  0  0  0  0  0
  150.4093  131.9153  189.8575 O   0  0  0  0  0  0  0  0  0  0  0  0
  151.6942  131.5760  187.8320 C   0  0  0  0  0  0  0  0  0  0  0  0
  152.2035  132.7728  187.1979 N   0  0  0  0  0  0  0  0  0  0  0  0
  152.7250  133.9314  187.8045 C   0  0  0  0  0  0  0  0  0  0  0  0
  152.1384  135.0433  187.5513 O   0  0  0  0  0  0  0  0  0  0  0  0
  153.8822  134.0576  188.7175 C   0  0  0  0  0  0  0  0  0  0  0  0
  154.8833  135.0017  188.3064 N   0  0  0  0  0  0  0  0  0  0  0  0
  154.9639  135.9934  187.3505 C   0  0  0  0  0  0  0  0  0  0  0  0
  155.7821  135.7279  186.3663 O   0  0  0  0  0  0  0  0  0  0  0  0
  154.3409  137.3054  187.1647 C   0  0  0  0  0  0  0  0  0  0  0  0
  154.1517  138.1295  188.3990 C   0  0  0  0  0  0  0  0  0  0  0  0
  155.5311  138.6838  188.7195 C   0  0  0  0  0  0  0  0  0  0  0  0
  156.2779  138.5060  187.4053 C   0  0  0  0  0  0  0  0  0  0  0  0
  155.2416  138.2271  186.4261 N   0  0  0  0  0  0  0  0  0  0  0  0
  154.9891  138.6228  185.0864 C   0  0  0  0  0  0  0  0  0  0  0  0
  155.9896  138.6468  184.3138 O   0  0  0  0  0  0  0  0  0  0  0  0
  153.8698  137.0626  183.6781 H   0  0  0  0  0  0  0  0  0  0  0  0
  151.2561  137.5041  185.5813 H   0  0  0  0  0  0  0  0  0  0  0  0
  147.3473  135.7116  186.9372 H   0  0  0  0  0  0  0  0  0  0  0  0
  148.3328  131.5533  188.4545 H   0  0  0  0  0  0  0  0  0  0  0  0
  152.1734  132.7901  186.1258 H   0  0  0  0  0  0  0  0  0  0  0  0
  155.7875  134.8776  188.8887 H   0  0  0  0  0  0  0  0  0  0  0  0
  153.7145  140.2534  183.7904 C   0  0  0  0  0  0  0  0  0  0  0  0
  153.0261  140.5242  181.3986 C   0  0  0  0  0  0  0  0  0  0  0  0
  154.1220  140.1701  182.3850 C   0  0  0  0  0  0  0  0  0  0  0  0
  155.4013  140.8038  181.9749 C   0  0  0  0  0  0  0  0  0  0  0  0
  149.7632  138.8729  183.1978 C   0  0  0  0  0  0  0  0  0  0  0  0
  148.9520  138.7479  181.9808 C   0  0  0  0  0  0  0  0  0  0  0  0
  149.4405  138.9571  180.7234 C   0  0  0  0  0  0  0  0  0  0  0  0
  148.6430  138.8252  179.5785 C   0  0  0  0  0  0  0  0  0  0  0  0
  147.3257  138.4749  179.7233 C   0  0  0  0  0  0  0  0  0  0  0  0
  146.8123  138.2605  180.9684 C   0  0  0  0  0  0  0  0  0  0  0  0
  147.6220  138.3969  182.0842 C   0  0  0  0  0  0  0  0  0  0  0  0
  147.5895  135.5486  184.1542 C   0  0  0  0  0  0  0  0  0  0  0  0
  147.0165  134.1992  183.7634 C   0  0  0  0  0  0  0  0  0  0  0  0
  147.3490  134.0049  182.2960 C   0  0  0  0  0  0  0  0  0  0  0  0
  148.6311  134.5660  181.9329 N   0  0  0  0  0  0  0  0  0  0  0  0
  148.8281  134.9414  180.7120 C   0  0  0  0  0  0  0  0  0  0  0  0
  147.8404  134.8264  179.7135 N   0  0  0  0  0  0  0  0  0  0  0  0
  150.0896  135.4855  180.3781 N   0  0  0  0  0  0  0  0  0  0  0  0
  147.8376  133.9673  179.1038 H   0  0  0  0  0  0  0  0  0  0  0  0
  147.1057  135.5379  179.5332 H   0  0  0  0  0  0  0  0  0  0  0  0
  150.2016  136.4023  179.9039 H   0  0  0  0  0  0  0  0  0  0  0  0
  150.9464  134.9507  180.6150 H   0  0  0  0  0  0  0  0  0  0  0  0
  148.6665  131.7177  185.5307 C   0  0  0  0  0  0  0  0  0  0  0  0
  149.5744  131.8356  184.3843 C   0  0  0  0  0  0  0  0  0  0  0  0
  149.3948  131.0898  183.2446 C   0  0  0  0  0  0  0  0  0  0  0  0
  150.2739  131.2191  182.1637 C   0  0  0  0  0  0  0  0  0  0  0  0
  151.3247  132.0913  182.2292 C   0  0  0  0  0  0  0  0  0  0  0  0
  151.5172  132.8493  183.3734 C   0  0  0  0  0  0  0  0  0  0  0  0
  150.6364  132.7068  184.4320 C   0  0  0  0  0  0  0  0  0  0  0  0
  152.7291  130.7672  188.5283 C   0  0  0  0  0  0  0  0  0  0  0  0
  154.0774  130.7700  187.9052 C   0  0  0  0  0  0  0  0  0  0  0  0
  154.3121  130.7547  186.5478 C   0  0  0  0  0  0  0  0  0  0  0  0
  155.5982  130.7649  186.0308 C   0  0  0  0  0  0  0  0  0  0  0  0
  156.7057  130.7905  186.8500 C   0  0  0  0  0  0  0  0  0  0  0  0
  156.4934  130.8061  188.2073 C   0  0  0  0  0  0  0  0  0  0  0  0
  155.2201  130.7962  188.7172 C   0  0  0  0  0  0  0  0  0  0  0  0
  153.4535  134.3568  190.1320 C   0  0  0  0  0  0  0  0  0  0  0  0
  154.5534  134.9709  190.8973 C   0  0  0  0  0  0  0  0  0  0  0  0
  154.5054  136.1982  191.5048 C   0  0  0  0  0  0  0  0  0  0  0  0
  155.5941  136.7036  192.2132 C   0  0  0  0  0  0  0  0  0  0  0  0
  156.7570  135.9960  192.3330 C   0  0  0  0  0  0  0  0  0  0  0  0
  156.8355  134.7742  191.7408 C   0  0  0  0  0  0  0  0  0  0  0  0
  155.7684  134.2814  191.0472 C   0  0  0  0  0  0  0  0  0  0  0  0
 39 40  1  0  0  0
 40 41  1  0  0  0
 40 38  1  0  0  0
 38  1  1  0  0  0
  1  2  1  0  0  0
  2  3  1  0  0  0
  3  4  2  0  0  0
  3  5  1  0  0  0
  5 42  1  0  0  0
 42 43  1  0  0  0
 43 44  2  0  0  0
 44 45  1  0  0  0
 45 46  2  0  0  0
 46 47  1  0  0  0
 47 48  2  0  0  0
  5  6  1  0  0  0
  6  7  1  0  0  0
  7  8  2  0  0  0
  7  9  1  0  0  0
  9 49  1  0  0  0
 49 50  1  0  0  0
 50 51  1  0  0  0
 51 52  1  0  0  0
 52 53  2  0  0  0
 53 54  1  0  0  0
 53 55  1  0  0  0
  9 10  1  0  0  0
 10 11  1  0  0  0
 11 12  2  0  0  0
 11 13  1  0  0  0
 13 60  1  0  0  0
 60 61  1  0  0  0
 61 62  2  0  0  0
 62 63  1  0  0  0
 63 64  2  0  0  0
 64 65  1  0  0  0
 65 66  2  0  0  0
 13 14  1  0  0  0
 14 15  1  0  0  0
 15 16  2  0  0  0
 15 17  1  0  0  0
 17 67  1  0  0  0
 67 68  1  0  0  0
 68 69  2  0  0  0
 69 70  1  0  0  0
 70 71  2  0  0  0
 71 72  1  0  0  0
 72 73  2  0  0  0
 17 18  1  0  0  0
 18 19  1  0  0  0
 19 20  2  0  0  0
 19 21  1  0  0  0
 21 74  1  0  0  0
 74 75  1  0  0  0
 75 76  2  0  0  0
 76 77  1  0  0  0
 77 78  2  0  0  0
 78 79  1  0  0  0
 79 80  2  0  0  0
 21 22  1  0  0  0
 22 23  1  0  0  0
 23 24  2  0  0  0
 23 25  1  0  0  0
 25 26  1  0  0  0
 26 27  1  0  0  0
 27 28  1  0  0  0
 28 29  1  0  0  0
 29 30  1  0  0  0
 30 31  2  0  0  0
 30  1  1  0  0  0
 48 43  1  0  0  0
 66 61  1  0  0  0
 73 68  1  0  0  0
 80 75  1  0  0  0
 29 25  1  0  0  0
  2 32  1  0  0  0
  6 33  1  0  0  0
 54 56  1  0  0  0
 54 57  1  0  0  0
 55 58  1  0  0  0
 55 59  1  0  0  0
 10 34  1  0  0  0
 14 35  1  0  0  0
 18 36  1  0  0  0
 22 37  1  0  0  0
M  END
> <minimizedAffinity>
-4.08334

> <CNNscore>
0.1861085594

> <CNNaffinity>
6.9792761803

> <CNN_VS>
1.2989029884

> <CNNaffinity_variance>
0.9710763693

$$$$
[H]c1c([H])c([H])c(C([H])([H])[C@@]2([H])C(=O)N([H])[C@@]([H])(C([H])([H])c3c([H])c([H])c([H])c([H])c3[H])C(=O)N([H])[C@@]([H])(C([H])([H])C([H])([H])C([H])([H])N=C(N([H])[H])N([H])[H])C(=O)N([H])[C@@]([H])(C([H])([H])c3c([H])c([H])c([H])c([H])c3[H])C(=O)N([H])[C@]([H])(C([H])([H])C([H])(C([H])([H])[H])C([H])([H])[H])C(=O)N3C([H])([H])C([H])([H])C([H])([H])[C@]3([H])C(=O)N([H])[C@@]([H])(C([H])([H])c3c([H])c([H])c([H])c([H])c3[H])C(=O)N2[H])c([H])c1[H]


 80 85  0  0  0  0  0  0  0  0999 V2000
  154.0912  139.0250  184.0246 C   0  0  0  0  0  0  0  0  0  0  0  0
  153.1735  139.0241  185.1682 N   0  0  0  0  0  0  0  0  0  0  0  0
  153.4336  138.8540  186.5131 C   0  0  0  0  0  0  0  0  0  0  0  0
  153.0641  139.8280  187.2974 O   0  0  0  0  0  0  0  0  0  0  0  0
  154.0697  137.7349  187.2412 C   0  0  0  0  0  0  0  0  0  0  0  0
  153.9850  136.4549  186.5781 N   0  0  0  0  0  0  0  0  0  0  0  0
  154.0304  135.1765  187.1694 C   0  0  0  0  0  0  0  0  0  0  0  0
  154.9586  134.3779  186.7696 O   0  0  0  0  0  0  0  0  0  0  0  0
  153.1402  134.6214  188.2007 C   0  0  0  0  0  0  0  0  0  0  0  0
  153.1382  133.1501  188.1367 N   0  0  0  0  0  0  0  0  0  0  0  0
  152.0087  132.3318  188.2376 C   0  0  0  0  0  0  0  0  0  0  0  0
  152.1724  131.1828  188.7375 O   0  0  0  0  0  0  0  0  0  0  0  0
  150.6302  132.6740  187.8147 C   0  0  0  0  0  0  0  0  0  0  0  0
  150.0922  131.5831  187.0360 N   0  0  0  0  0  0  0  0  0  0  0  0
  149.4929  131.7228  185.7386 C   0  0  0  0  0  0  0  0  0  0  0  0
  149.7482  130.7589  184.9285 O   0  0  0  0  0  0  0  0  0  0  0  0
  148.6511  132.8772  185.3501 C   0  0  0  0  0  0  0  0  0  0  0  0
  149.4296  134.0618  185.0596 N   0  0  0  0  0  0  0  0  0  0  0  0
  150.3184  134.2857  183.9910 C   0  0  0  0  0  0  0  0  0  0  0  0
  151.5348  134.5653  184.2858 O   0  0  0  0  0  0  0  0  0  0  0  0
  150.0477  134.2435  182.5372 C   0  0  0  0  0  0  0  0  0  0  0  0
  150.4169  135.4278  181.8135 N   0  0  0  0  0  0  0  0  0  0  0  0
  151.1558  136.5589  182.0932 C   0  0  0  0  0  0  0  0  0  0  0  0
  150.4496  137.6553  182.1827 O   0  0  0  0  0  0  0  0  0  0  0  0
  152.5751  136.8387  182.3195 C   0  0  0  0  0  0  0  0  0  0  0  0
  153.5434  136.0833  181.4650 C   0  0  0  0  0  0  0  0  0  0  0  0
  153.4900  136.7673  180.1077 C   0  0  0  0  0  0  0  0  0  0  0  0
  152.8531  138.1105  180.4336 C   0  0  0  0  0  0  0  0  0  0  0  0
  152.9273  138.2134  181.8808 N   0  0  0  0  0  0  0  0  0  0  0  0
  153.2280  139.2502  182.8028 C   0  0  0  0  0  0  0  0  0  0  0  0
  152.7291  140.3839  182.5495 O   0  0  0  0  0  0  0  0  0  0  0  0
  152.1376  139.1818  184.9185 H   0  0  0  0  0  0  0  0  0  0  0  0
  153.8789  136.4883  185.5194 H   0  0  0  0  0  0  0  0  0  0  0  0
  154.1051  132.7310  188.0017 H   0  0  0  0  0  0  0  0  0  0  0  0
  150.1409  130.6054  187.4252 H   0  0  0  0  0  0  0  0  0  0  0  0
  149.3285  134.8760  185.7505 H   0  0  0  0  0  0  0  0  0  0  0  0
  149.9899  135.4162  180.8187 H   0  0  0  0  0  0  0  0  0  0  0  0
  155.0770  140.1507  184.1193 C   0  0  0  0  0  0  0  0  0  0  0  0
  156.7830  141.4524  182.8294 C   0  0  0  0  0  0  0  0  0  0  0  0
  156.3002  140.0988  183.3135 C   0  0  0  0  0  0  0  0  0  0  0  0
  157.4474  139.2962  183.8098 C   0  0  0  0  0  0  0  0  0  0  0  0
  155.4552  138.0155  187.7480 C   0  0  0  0  0  0  0  0  0  0  0  0
  155.7062  137.6519  189.1478 C   0  0  0  0  0  0  0  0  0  0  0  0
  156.5683  136.6641  189.5281 C   0  0  0  0  0  0  0  0  0  0  0  0
  156.7920  136.3424  190.8737 C   0  0  0  0  0  0  0  0  0  0  0  0
  156.1225  137.0417  191.8441 C   0  0  0  0  0  0  0  0  0  0  0  0
  155.2552  138.0333  191.4913 C   0  0  0  0  0  0  0  0  0  0  0  0
  155.0522  138.3322  190.1539 C   0  0  0  0  0  0  0  0  0  0  0  0
  153.5196  134.9407  189.6157 C   0  0  0  0  0  0  0  0  0  0  0  0
  152.6363  134.2622  190.6460 C   0  0  0  0  0  0  0  0  0  0  0  0
  152.3158  135.3147  191.6906 C   0  0  0  0  0  0  0  0  0  0  0  0
  151.0153  135.1273  192.2940 N   0  0  0  0  0  0  0  0  0  0  0  0
  150.7964  135.6080  193.4736 C   0  0  0  0  0  0  0  0  0  0  0  0
  151.7773  136.3113  194.2011 N   0  0  0  0  0  0  0  0  0  0  0  0
  149.5185  135.4118  194.0459 N   0  0  0  0  0  0  0  0  0  0  0  0
  152.3751  135.7791  194.8860 H   0  0  0  0  0  0  0  0  0  0  0  0
  151.9548  137.3303  194.1090 H   0  0  0  0  0  0  0  0  0  0  0  0
  148.9435  136.1892  194.4236 H   0  0  0  0  0  0  0  0  0  0  0  0
  149.1313  134.4506  194.0934 H   0  0  0  0  0  0  0  0  0  0  0  0
  149.7927  133.0885  188.9743 C   0  0  0  0  0  0  0  0  0  0  0  0
  148.9296  134.2562  188.7640 C   0  0  0  0  0  0  0  0  0  0  0  0
  147.6175  134.2636  189.1712 C   0  0  0  0  0  0  0  0  0  0  0  0
  146.8132  135.3889  188.9598 C   0  0  0  0  0  0  0  0  0  0  0  0
  147.3248  136.4969  188.3438 C   0  0  0  0  0  0  0  0  0  0  0  0
  148.6468  136.5022  187.9278 C   0  0  0  0  0  0  0  0  0  0  0  0
  149.4262  135.3790  188.1462 C   0  0  0  0  0  0  0  0  0  0  0  0
  147.5684  132.6032  184.3688 C   0  0  0  0  0  0  0  0  0  0  0  0
  147.3089  133.6784  183.3774 C   0  0  0  0  0  0  0  0  0  0  0  0
  147.2960  135.0249  183.6687 C   0  0  0  0  0  0  0  0  0  0  0  0
  147.0528  135.9789  182.6930 C   0  0  0  0  0  0  0  0  0  0  0  0
  146.8115  135.6269  181.3829 C   0  0  0  0  0  0  0  0  0  0  0  0
  146.8199  134.2889  181.0713 C   0  0  0  0  0  0  0  0  0  0  0  0
  147.0610  133.3461  182.0381 C   0  0  0  0  0  0  0  0  0  0  0  0
  150.6698  133.0353  181.8834 C   0  0  0  0  0  0  0  0  0  0  0  0
  149.8566  132.5759  180.7431 C   0  0  0  0  0  0  0  0  0  0  0  0
  149.0661  131.4567  180.7353 C   0  0  0  0  0  0  0  0  0  0  0  0
  148.3254  131.0957  179.6112 C   0  0  0  0  0  0  0  0  0  0  0  0
  148.3554  131.8432  178.4677 C   0  0  0  0  0  0  0  0  0  0  0  0
  149.1310  132.9601  178.4443 C   0  0  0  0  0  0  0  0  0  0  0  0
  149.8559  133.3116  179.5460 C   0  0  0  0  0  0  0  0  0  0  0  0
 39 40  1  0  0  0
 40 41  1  0  0  0
 40 38  1  0  0  0
 38  1  1  0  0  0
  1  2  1  0  0  0
  2  3  1  0  0  0
  3  4  2  0  0  0
  3  5  1  0  0  0
  5 42  1  0  0  0
 42 43  1  0  0  0
 43 44  2  0  0  0
 44 45  1  0  0  0
 45 46  2  0  0  0
 46 47  1  0  0  0
 47 48  2  0  0  0
  5  6  1  0  0  0
  6  7  1  0  0  0
  7  8  2  0  0  0
  7  9  1  0  0  0
  9 49  1  0  0  0
 49 50  1  0  0  0
 50 51  1  0  0  0
 51 52  1  0  0  0
 52 53  2  0  0  0
 53 54  1  0  0  0
 53 55  1  0  0  0
  9 10  1  0  0  0
 10 11  1  0  0  0
 11 12  2  0  0  0
 11 13  1  0  0  0
 13 60  1  0  0  0
 60 61  1  0  0  0
 61 62  2  0  0  0
 62 63  1  0  0  0
 63 64  2  0  0  0
 64 65  1  0  0  0
 65 66  2  0  0  0
 13 14  1  0  0  0
 14 15  1  0  0  0
 15 16  2  0  0  0
 15 17  1  0  0  0
 17 67  1  0  0  0
 67 68  1  0  0  0
 68 69  2  0  0  0
 69 70  1  0  0  0
 70 71  2  0  0  0
 71 72  1  0  0  0
 72 73  2  0  0  0
 17 18  1  0  0  0
 18 19  1  0  0  0
 19 20  2  0  0  0
 19 21  1  0  0  0
 21 74  1  0  0  0
 74 75  1  0  0  0
 75 76  2  0  0  0
 76 77  1  0  0  0
 77 78  2  0  0  0
 78 79  1  0  0  0
 79 80  2  0  0  0
 21 22  1  0  0  0
 22 23  1  0  0  0
 23 24  2  0  0  0
 23 25  1  0  0  0
 25 26  1  0  0  0
 26 27  1  0  0  0
 27 28  1  0  0  0
 28 29  1  0  0  0
 29 30  1  0  0  0
 30 31  2  0  0  0
 30  1  1  0  0  0
 48 43  1  0  0  0
 66 61  1  0  0  0
 73 68  1  0  0  0
 80 75  1  0  0  0
 29 25  1  0  0  0
  2 32  1  0  0  0
  6 33  1  0  0  0
 54 56  1  0  0  0
 54 57  1  0  0  0
 55 58  1  0  0  0
 55 59  1  0  0  0
 10 34  1  0  0  0
 14 35  1  0  0  0
 18 36  1  0  0  0
 22 37  1  0  0  0
M  END
> <minimizedAffinity>
-2.99343

> <CNNscore>
0.1790108085

> <CNNaffinity>
6.8887100220

> <CNN_VS>
1.2331535816

> <CNNaffinity_variance>
0.9775414467

$$$$
[H]N=C(N([H])[H])N([H])C([H])([H])C([H])([H])C([H])([H])[C@@]([H])(C(=O)N([H])[C@]([H])(C(=O)N([H])[C@]([H])(C(=O)O[H])C([H])(C([H])([H])[H])C([H])([H])[H])C([H])([H])c1c([H])n([H])c2c([H])c([H])c([H])c([H])c12)N([H])C(=O)[C@@]([H])(N([H])C(=O)[C@@]1([H])N(C(=O)[C@@]([H])(N([H])[H])C([H])([H])[H])C([H])([H])C([H])([H])C1([H])[H])C([H])([H])C([H])(C([H])([H])[H])C([H])([H])[H]


 65 67  0  0  0  0  0  0  0  0999 V2000
  153.8031  137.3950  185.1893 C   0  0  0  0  0  0  0  0  0  0  0  0
  152.7829  137.0637  187.7037 C   0  0  0  0  0  0  0  0  0  0  0  0
  151.4790  137.1099  188.0239 O   0  0  0  0  0  0  0  0  0  0  0  0
  153.2662  137.2160  186.5349 N   0  0  0  0  0  0  0  0  0  0  0  0
  152.1852  137.9294  186.1266 H   0  0  0  0  0  0  0  0  0  0  0  0
  153.5354  136.8159  189.0165 C   0  0  0  0  0  0  0  0  0  0  0  0
  152.5806  136.1810  189.9429 N   0  0  0  0  0  0  0  0  0  0  0  0
  152.4276  136.6089  191.2651 C   0  0  0  0  0  0  0  0  0  0  0  0
  153.1553  137.6069  191.6638 O   0  0  0  0  0  0  0  0  0  0  0  0
  151.9747  135.3683  189.6174 H   0  0  0  0  0  0  0  0  0  0  0  0
  151.5315  136.0511  192.2636 C   0  0  0  0  0  0  0  0  0  0  0  0
  152.0592  136.2641  193.6895 C   0  0  0  0  0  0  0  0  0  0  0  0
  152.9273  135.0718  193.9268 C   0  0  0  0  0  0  0  0  0  0  0  0
  152.5382  134.0179  192.8868 C   0  0  0  0  0  0  0  0  0  0  0  0
  151.3784  134.5872  192.2160 N   0  0  0  0  0  0  0  0  0  0  0  0
  150.2754  133.9040  191.6576 C   0  0  0  0  0  0  0  0  0  0  0  0
  149.3204  134.5326  191.1169 O   0  0  0  0  0  0  0  0  0  0  0  0
  150.1829  132.4049  191.6777 C   0  0  0  0  0  0  0  0  0  0  0  0
  149.5119  131.8796  190.4417 C   0  0  0  0  0  0  0  0  0  0  0  0
  149.4326  132.0271  192.8788 N   0  0  0  0  0  0  0  0  0  0  0  0
  149.7651  131.1453  193.2835 H   0  0  0  0  0  0  0  0  0  0  0  0
  149.4600  132.7685  193.6091 H   0  0  0  0  0  0  0  0  0  0  0  0
  154.7677  136.0142  188.8091 C   0  0  0  0  0  0  0  0  0  0  0  0
  156.2447  136.1507  190.8604 C   0  0  0  0  0  0  0  0  0  0  0  0
  155.8847  136.7548  189.5282 C   0  0  0  0  0  0  0  0  0  0  0  0
  155.6648  138.2332  189.6272 C   0  0  0  0  0  0  0  0  0  0  0  0
  154.9854  138.3815  185.2965 C   0  0  0  0  0  0  0  0  0  0  0  0
  155.6785  138.2875  186.3256 O   0  0  0  0  0  0  0  0  0  0  0  0
  155.2689  139.3185  184.3036 N   0  0  0  0  0  0  0  0  0  0  0  0
  154.6663  139.4128  183.4429 H   0  0  0  0  0  0  0  0  0  0  0  0
  156.4130  140.1984  184.4386 C   0  0  0  0  0  0  0  0  0  0  0  0
  156.4185  140.8854  183.0658 C   0  0  0  0  0  0  0  0  0  0  0  0
  155.6183  140.3254  182.2425 O   0  0  0  0  0  0  0  0  0  0  0  0
  157.1789  141.9553  182.7304 N   0  0  0  0  0  0  0  0  0  0  0  0
  157.9522  142.2070  183.4900 H   0  0  0  0  0  0  0  0  0  0  0  0
  157.2930  142.7762  181.5917 C   0  0  0  0  0  0  0  0  0  0  0  0
  158.0179  142.1308  180.4307 C   0  0  0  0  0  0  0  0  0  0  0  0
  158.5805  142.9888  179.4522 O   0  0  0  0  0  0  0  0  0  0  0  0
  158.1705  140.9143  180.2614 O   0  0  0  0  0  0  0  0  0  0  0  0
  159.5244  143.2998  179.7097 H   0  0  0  0  0  0  0  0  0  0  0  0
  157.8341  144.1466  181.7818 C   0  0  0  0  0  0  0  0  0  0  0  0
  156.7622  145.0759  182.2728 C   0  0  0  0  0  0  0  0  0  0  0  0
  159.0620  144.2523  182.6393 C   0  0  0  0  0  0  0  0  0  0  0  0
  157.6483  139.6701  184.9325 C   0  0  0  0  0  0  0  0  0  0  0  0
  158.8828  140.3916  184.4285 C   0  0  0  0  0  0  0  0  0  0  0  0
  159.5842  140.2459  183.2646 C   0  0  0  0  0  0  0  0  0  0  0  0
  160.6326  141.0753  183.2906 N   0  0  0  0  0  0  0  0  0  0  0  0
  160.6654  141.7581  184.4122 C   0  0  0  0  0  0  0  0  0  0  0  0
  161.4935  142.7321  184.9917 C   0  0  0  0  0  0  0  0  0  0  0  0
  161.2549  143.2644  186.2186 C   0  0  0  0  0  0  0  0  0  0  0  0
  160.1681  142.8700  186.9691 C   0  0  0  0  0  0  0  0  0  0  0  0
  159.3403  141.9136  186.4200 C   0  0  0  0  0  0  0  0  0  0  0  0
  159.5531  141.3551  185.1863 C   0  0  0  0  0  0  0  0  0  0  0  0
  161.3679  141.1882  182.5122 H   0  0  0  0  0  0  0  0  0  0  0  0
  152.7763  138.0330  184.3216 C   0  0  0  0  0  0  0  0  0  0  0  0
  151.9642  137.1270  183.4592 C   0  0  0  0  0  0  0  0  0  0  0  0
  152.6507  136.6152  182.2217 C   0  0  0  0  0  0  0  0  0  0  0  0
  152.9312  135.1857  182.4108 N   0  0  0  0  0  0  0  0  0  0  0  0
  153.5366  134.8893  183.2214 H   0  0  0  0  0  0  0  0  0  0  0  0
  152.4077  134.2415  181.5212 C   0  0  0  0  0  0  0  0  0  0  0  0
  151.0246  134.2054  181.2094 N   0  0  0  0  0  0  0  0  0  0  0  0
  153.2498  133.4193  180.9578 N   0  0  0  0  0  0  0  0  0  0  0  0
  150.4865  133.3597  180.9421 H   0  0  0  0  0  0  0  0  0  0  0  0
  150.5278  135.1430  181.2598 H   0  0  0  0  0  0  0  0  0  0  0  0
  154.2703  133.4598  181.1582 H   0  0  0  0  0  0  0  0  0  0  0  0
 24 25  1  0  0  0
 25 26  1  0  0  0
 25 23  1  0  0  0
 23  6  1  0  0  0
  6  7  1  0  0  0
  7  8  1  0  0  0
  8  9  2  0  0  0
  8 11  1  0  0  0
 11 12  1  0  0  0
 12 13  1  0  0  0
 13 14  1  0  0  0
 14 15  1  0  0  0
 15 16  1  0  0  0
 16 17  2  0  0  0
 16 18  1  0  0  0
 18 19  1  0  0  0
 18 20  1  0  0  0
  6  2  1  0  0  0
  2  3  2  0  0  0
  2  4  1  0  0  0
  4  1  1  0  0  0
  1 55  1  0  0  0
 55 56  1  0  0  0
 56 57  1  0  0  0
 57 58  1  0  0  0
 58 60  1  0  0  0
 60 61  1  0  0  0
 60 62  2  0  0  0
  1 27  1  0  0  0
 27 28  2  0  0  0
 27 29  1  0  0  0
 29 31  1  0  0  0
 31 44  1  0  0  0
 44 45  1  0  0  0
 45 46  2  0  0  0
 46 47  1  0  0  0
 47 48  1  0  0  0
 48 49  2  0  0  0
 49 50  1  0  0  0
 50 51  2  0  0  0
 51 52  1  0  0  0
 52 53  2  0  0  0
 31 32  1  0  0  0
 32 33  2  0  0  0
 32 34  1  0  0  0
 34 36  1  0  0  0
 36 41  1  0  0  0
 41 42  1  0  0  0
 41 43  1  0  0  0
 36 37  1  0  0  0
 37 38  1  0  0  0
 37 39  2  0  0  0
 15 11  1  0  0  0
 53 45  1  0  0  0
 53 48  1  0  0  0
  7 10  1  0  0  0
 20 21  1  0  0  0
 20 22  1  0  0  0
  4  5  1  0  0  0
 58 59  1  0  0  0
 61 63  1  0  0  0
 61 64  1  0  0  0
 62 65  1  0  0  0
 29 30  1  0  0  0
 47 54  1  0  0  0
 34 35  1  0  0  0
 38 40  1  0  0  0
M  END
> <minimizedAffinity>
-7.87935

> <CNNscore>
0.3256802559

> <CNNaffinity>
7.0863800049

> <CNN_VS>
2.3078939915

> <CNNaffinity_variance>
0.2956800461

$$$$
[H]N=C(N([H])[H])N([H])C([H])([H])C([H])([H])C([H])([H])[C@@]([H])(C(=O)N([H])[C@]([H])(C(=O)N([H])[C@]([H])(C(=O)O[H])C([H])(C([H])([H])[H])C([H])([H])[H])C([H])([H])c1c([H])n([H])c2c([H])c([H])c([H])c([H])c12)N([H])C(=O)[C@@]([H])(N([H])C(=O)[C@@]1([H])N(C(=O)[C@@]([H])(N([H])[H])C([H])([H])[H])C([H])([H])C([H])([H])C1([H])[H])C([H])([H])C([H])(C([H])([H])[H])C([H])([H])[H]


 65 67  0  0  0  0  0  0  0  0999 V2000
  153.9076  137.0503  183.8188 C   0  0  0  0  0  0  0  0  0  0  0  0
  153.9625  134.9666  185.5873 C   0  0  0  0  0  0  0  0  0  0  0  0
  153.1068  133.9310  185.5924 O   0  0  0  0  0  0  0  0  0  0  0  0
  153.9444  135.9406  184.7664 N   0  0  0  0  0  0  0  0  0  0  0  0
  152.6224  135.7650  184.5100 H   0  0  0  0  0  0  0  0  0  0  0  0
  154.9201  134.7339  186.7621 C   0  0  0  0  0  0  0  0  0  0  0  0
  154.3651  135.4635  187.9165 N   0  0  0  0  0  0  0  0  0  0  0  0
  154.9489  136.6344  188.4094 C   0  0  0  0  0  0  0  0  0  0  0  0
  156.0092  137.0790  187.8072 O   0  0  0  0  0  0  0  0  0  0  0  0
  153.4900  135.1076  188.4076 H   0  0  0  0  0  0  0  0  0  0  0  0
  154.4968  137.4236  189.5424 C   0  0  0  0  0  0  0  0  0  0  0  0
  155.5622  138.4291  190.0015 C   0  0  0  0  0  0  0  0  0  0  0  0
  156.3828  137.6530  190.9792 C   0  0  0  0  0  0  0  0  0  0  0  0
  155.5502  136.4398  191.4021 C   0  0  0  0  0  0  0  0  0  0  0  0
  154.2537  136.6594  190.7776 N   0  0  0  0  0  0  0  0  0  0  0  0
  152.9822  136.2728  191.2561 C   0  0  0  0  0  0  0  0  0  0  0  0
  151.9284  136.5480  190.6133 O   0  0  0  0  0  0  0  0  0  0  0  0
  152.8196  135.5190  192.5452 C   0  0  0  0  0  0  0  0  0  0  0  0
  151.9434  134.3127  192.3690 C   0  0  0  0  0  0  0  0  0  0  0  0
  152.2426  136.4437  193.5251 N   0  0  0  0  0  0  0  0  0  0  0  0
  152.5886  136.2695  194.4747 H   0  0  0  0  0  0  0  0  0  0  0  0
  152.4174  137.4395  193.2766 H   0  0  0  0  0  0  0  0  0  0  0  0
  155.1299  133.2889  187.0315 C   0  0  0  0  0  0  0  0  0  0  0  0
  157.5689  133.9638  187.0931 C   0  0  0  0  0  0  0  0  0  0  0  0
  156.5508  132.9743  186.5893 C   0  0  0  0  0  0  0  0  0  0  0  0
  156.6873  132.7342  185.1171 C   0  0  0  0  0  0  0  0  0  0  0  0
  154.5513  138.2680  184.5155 C   0  0  0  0  0  0  0  0  0  0  0  0
  154.0719  138.5756  185.6218 O   0  0  0  0  0  0  0  0  0  0  0  0
  155.6077  138.9804  183.9495 N   0  0  0  0  0  0  0  0  0  0  0  0
  155.9973  138.7330  183.0009 H   0  0  0  0  0  0  0  0  0  0  0  0
  156.1985  140.0956  184.6629 C   0  0  0  0  0  0  0  0  0  0  0  0
  156.2048  141.1732  183.5697 C   0  0  0  0  0  0  0  0  0  0  0  0
  155.3546  142.0986  183.7991 O   0  0  0  0  0  0  0  0  0  0  0  0
  156.9985  141.1680  182.4718 N   0  0  0  0  0  0  0  0  0  0  0  0
  157.5447  140.2100  182.3224 H   0  0  0  0  0  0  0  0  0  0  0  0
  157.2263  142.0593  181.4054 C   0  0  0  0  0  0  0  0  0  0  0  0
  157.8436  141.4188  180.1814 C   0  0  0  0  0  0  0  0  0  0  0  0
  158.9478  140.5525  180.3826 O   0  0  0  0  0  0  0  0  0  0  0  0
  157.4645  141.5789  179.0140 O   0  0  0  0  0  0  0  0  0  0  0  0
  158.6509  139.5909  180.5853 H   0  0  0  0  0  0  0  0  0  0  0  0
  157.9629  143.3148  181.7023 C   0  0  0  0  0  0  0  0  0  0  0  0
  158.8887  143.6654  180.5737 C   0  0  0  0  0  0  0  0  0  0  0  0
  157.1168  144.4960  182.0811 C   0  0  0  0  0  0  0  0  0  0  0  0
  157.4004  139.8896  185.4126 C   0  0  0  0  0  0  0  0  0  0  0  0
  158.6564  140.3978  184.7324 C   0  0  0  0  0  0  0  0  0  0  0  0
  159.2419  140.0258  183.5548 C   0  0  0  0  0  0  0  0  0  0  0  0
  160.3676  140.7295  183.3961 N   0  0  0  0  0  0  0  0  0  0  0  0
  160.5612  141.5433  184.4087 C   0  0  0  0  0  0  0  0  0  0  0  0
  161.5285  142.4854  184.7921 C   0  0  0  0  0  0  0  0  0  0  0  0
  161.4463  143.1948  185.9478 C   0  0  0  0  0  0  0  0  0  0  0  0
  160.3901  143.0243  186.8168 C   0  0  0  0  0  0  0  0  0  0  0  0
  159.4273  142.1034  186.4611 C   0  0  0  0  0  0  0  0  0  0  0  0
  159.4808  141.3701  185.3040 C   0  0  0  0  0  0  0  0  0  0  0  0
  161.0445  140.6582  182.5617 H   0  0  0  0  0  0  0  0  0  0  0  0
  152.4942  137.4098  183.5237 C   0  0  0  0  0  0  0  0  0  0  0  0
  152.0778  137.3905  182.0917 C   0  0  0  0  0  0  0  0  0  0  0  0
  150.8516  138.1964  181.7576 C   0  0  0  0  0  0  0  0  0  0  0  0
  151.2497  139.6044  181.6271 N   0  0  0  0  0  0  0  0  0  0  0  0
  150.6641  140.3440  182.0975 H   0  0  0  0  0  0  0  0  0  0  0  0
  152.3825  139.9499  180.8824 C   0  0  0  0  0  0  0  0  0  0  0  0
  153.5158  140.5462  181.4921 N   0  0  0  0  0  0  0  0  0  0  0  0
  152.3710  139.6647  179.6092 N   0  0  0  0  0  0  0  0  0  0  0  0
  154.1772  141.1991  181.0314 H   0  0  0  0  0  0  0  0  0  0  0  0
  153.6739  140.2766  182.5074 H   0  0  0  0  0  0  0  0  0  0  0  0
  151.5553  139.1992  179.1606 H   0  0  0  0  0  0  0  0  0  0  0  0
 24 25  1  0  0  0
 25 26  1  0  0  0
 25 23  1  0  0  0
 23  6  1  0  0  0
  6  7  1  0  0  0
  7  8  1  0  0  0
  8  9  2  0  0  0
  8 11  1  0  0  0
 11 12  1  0  0  0
 12 13  1  0  0  0
 13 14  1  0  0  0
 14 15  1  0  0  0
 15 16  1  0  0  0
 16 17  2  0  0  0
 16 18  1  0  0  0
 18 19  1  0  0  0
 18 20  1  0  0  0
  6  2  1  0  0  0
  2  3  2  0  0  0
  2  4  1  0  0  0
  4  1  1  0  0  0
  1 55  1  0  0  0
 55 56  1  0  0  0
 56 57  1  0  0  0
 57 58  1  0  0  0
 58 60  1  0  0  0
 60 61  1  0  0  0
 60 62  2  0  0  0
  1 27  1  0  0  0
 27 28  2  0  0  0
 27 29  1  0  0  0
 29 31  1  0  0  0
 31 44  1  0  0  0
 44 45  1  0  0  0
 45 46  2  0  0  0
 46 47  1  0  0  0
 47 48  1  0  0  0
 48 49  2  0  0  0
 49 50  1  0  0  0
 50 51  2  0  0  0
 51 52  1  0  0  0
 52 53  2  0  0  0
 31 32  1  0  0  0
 32 33  2  0  0  0
 32 34  1  0  0  0
 34 36  1  0  0  0
 36 41  1  0  0  0
 41 42  1  0  0  0
 41 43  1  0  0  0
 36 37  1  0  0  0
 37 38  1  0  0  0
 37 39  2  0  0  0
 15 11  1  0  0  0
 53 45  1  0  0  0
 53 48  1  0  0  0
  7 10  1  0  0  0
 20 21  1  0  0  0
 20 22  1  0  0  0
  4  5  1  0  0  0
 58 59  1  0  0  0
 61 63  1  0  0  0
 61 64  1  0  0  0
 62 65  1  0  0  0
 29 30  1  0  0  0
 47 54  1  0  0  0
 34 35  1  0  0  0
 38 40  1  0  0  0
M  END
> <minimizedAffinity>
-9.00096

> <CNNscore>
0.2120588273

> <CNNaffinity>
7.3799757957

> <CNN_VS>
1.5649889708

> <CNNaffinity_variance>
0.4805665612

$$$$
[H]N=C(N([H])[H])N([H])C([H])([H])C([H])([H])C([H])([H])[C@@]([H])(C(=O)N([H])[C@]([H])(C(=O)N([H])[C@]([H])(C(=O)O[H])C([H])(C([H])([H])[H])C([H])([H])[H])C([H])([H])c1c([H])n([H])c2c([H])c([H])c([H])c([H])c12)N([H])C(=O)[C@@]([H])(N([H])C(=O)[C@@]1([H])N(C(=O)[C@@]([H])(N([H])[H])C([H])([H])[H])C([H])([H])C([H])([H])C1([H])[H])C([H])([H])C([H])(C([H])([H])[H])C([H])([H])[H]


 65 67  0  0  0  0  0  0  0  0999 V2000
  154.1819  137.3728  185.6679 C   0  0  0  0  0  0  0  0  0  0  0  0
  153.7806  136.8474  188.3204 C   0  0  0  0  0  0  0  0  0  0  0  0
  153.5031  137.7668  189.2598 O   0  0  0  0  0  0  0  0  0  0  0  0
  153.9679  137.0837  187.0827 N   0  0  0  0  0  0  0  0  0  0  0  0
  154.3364  138.3667  187.3322 H   0  0  0  0  0  0  0  0  0  0  0  0
  153.8402  135.4991  189.0482 C   0  0  0  0  0  0  0  0  0  0  0  0
  155.2337  135.3148  189.4924 N   0  0  0  0  0  0  0  0  0  0  0  0
  156.2267  134.8148  188.6446 C   0  0  0  0  0  0  0  0  0  0  0  0
  155.8872  134.5193  187.4272 O   0  0  0  0  0  0  0  0  0  0  0  0
  155.5187  135.5648  190.4873 H   0  0  0  0  0  0  0  0  0  0  0  0
  157.6213  134.5813  188.9784 C   0  0  0  0  0  0  0  0  0  0  0  0
  158.5199  134.6058  187.7338 C   0  0  0  0  0  0  0  0  0  0  0  0
  158.4889  133.1936  187.2477 C   0  0  0  0  0  0  0  0  0  0  0  0
  157.9929  132.3287  188.4096 C   0  0  0  0  0  0  0  0  0  0  0  0
  157.9151  133.2497  189.5343 N   0  0  0  0  0  0  0  0  0  0  0  0
  158.1227  132.9690  190.9030 C   0  0  0  0  0  0  0  0  0  0  0  0
  158.0405  133.8781  191.7784 O   0  0  0  0  0  0  0  0  0  0  0  0
  158.4491  131.5840  191.3842 C   0  0  0  0  0  0  0  0  0  0  0  0
  158.0922  131.4073  192.8317 C   0  0  0  0  0  0  0  0  0  0  0  0
  159.8836  131.3716  191.1712 N   0  0  0  0  0  0  0  0  0  0  0  0
  160.1005  130.3996  190.9263 H   0  0  0  0  0  0  0  0  0  0  0  0
  160.2699  132.0016  190.4380 H   0  0  0  0  0  0  0  0  0  0  0  0
  152.8588  135.4225  190.1598 C   0  0  0  0  0  0  0  0  0  0  0  0
  153.3735  133.7591  191.9971 C   0  0  0  0  0  0  0  0  0  0  0  0
  153.6602  135.1192  191.4164 C   0  0  0  0  0  0  0  0  0  0  0  0
  153.5873  136.1959  192.4552 C   0  0  0  0  0  0  0  0  0  0  0  0
  155.3623  138.3633  185.5772 C   0  0  0  0  0  0  0  0  0  0  0  0
  156.1097  138.4086  186.5710 O   0  0  0  0  0  0  0  0  0  0  0  0
  155.5867  139.1571  184.4531 N   0  0  0  0  0  0  0  0  0  0  0  0
  154.9386  139.1348  183.6210 H   0  0  0  0  0  0  0  0  0  0  0  0
  156.7310  140.0459  184.4064 C   0  0  0  0  0  0  0  0  0  0  0  0
  156.4922  140.7619  183.0697 C   0  0  0  0  0  0  0  0  0  0  0  0
  155.4153  140.3763  182.5011 O   0  0  0  0  0  0  0  0  0  0  0  0
  157.3130  141.6909  182.5232 N   0  0  0  0  0  0  0  0  0  0  0  0
  158.2928  141.7797  183.0434 H   0  0  0  0  0  0  0  0  0  0  0  0
  157.2633  142.5125  181.3805 C   0  0  0  0  0  0  0  0  0  0  0  0
  158.3166  142.1959  180.3413 C   0  0  0  0  0  0  0  0  0  0  0  0
  157.8694  141.7763  179.0630 O   0  0  0  0  0  0  0  0  0  0  0  0
  159.5406  142.2775  180.5061 O   0  0  0  0  0  0  0  0  0  0  0  0
  157.6726  142.5711  178.4438 H   0  0  0  0  0  0  0  0  0  0  0  0
  157.2351  143.9830  181.5900 C   0  0  0  0  0  0  0  0  0  0  0  0
  155.9569  144.3985  182.2586 C   0  0  0  0  0  0  0  0  0  0  0  0
  158.4210  144.5652  182.3035 C   0  0  0  0  0  0  0  0  0  0  0  0
  158.0371  139.5201  184.6650 C   0  0  0  0  0  0  0  0  0  0  0  0
  159.1728  140.4307  184.2415 C   0  0  0  0  0  0  0  0  0  0  0  0
  159.9053  140.4601  183.0881 C   0  0  0  0  0  0  0  0  0  0  0  0
  160.8340  141.4160  183.1958 N   0  0  0  0  0  0  0  0  0  0  0  0
  160.7587  142.0169  184.3612 C   0  0  0  0  0  0  0  0  0  0  0  0
  161.4412  143.0480  185.0254 C   0  0  0  0  0  0  0  0  0  0  0  0
  161.1151  143.4572  186.2791 C   0  0  0  0  0  0  0  0  0  0  0  0
  160.0787  142.8722  186.9742 C   0  0  0  0  0  0  0  0  0  0  0  0
  159.3935  141.8563  186.3417 C   0  0  0  0  0  0  0  0  0  0  0  0
  159.6977  141.4183  185.0787 C   0  0  0  0  0  0  0  0  0  0  0  0
  161.5600  141.6785  182.4451 H   0  0  0  0  0  0  0  0  0  0  0  0
  152.9864  138.0625  185.1116 C   0  0  0  0  0  0  0  0  0  0  0  0
  152.0251  137.2265  184.3362 C   0  0  0  0  0  0  0  0  0  0  0  0
  152.3449  137.0481  182.8766 C   0  0  0  0  0  0  0  0  0  0  0  0
  152.9218  138.3033  182.3768 N   0  0  0  0  0  0  0  0  0  0  0  0
  153.9679  138.4301  182.4086 H   0  0  0  0  0  0  0  0  0  0  0  0
  152.0900  139.3109  181.8773 C   0  0  0  0  0  0  0  0  0  0  0  0
  150.7416  139.0501  181.5231 N   0  0  0  0  0  0  0  0  0  0  0  0
  152.5927  140.5117  181.7875 N   0  0  0  0  0  0  0  0  0  0  0  0
  150.2008  139.5490  180.7919 H   0  0  0  0  0  0  0  0  0  0  0  0
  150.2738  138.2733  182.0764 H   0  0  0  0  0  0  0  0  0  0  0  0
  153.5719  140.7172  182.0744 H   0  0  0  0  0  0  0  0  0  0  0  0
 24 25  1  0  0  0
 25 26  1  0  0  0
 25 23  1  0  0  0
 23  6  1  0  0  0
  6  7  1  0  0  0
  7  8  1  0  0  0
  8  9  2  0  0  0
  8 11  1  0  0  0
 11 12  1  0  0  0
 12 13  1  0  0  0
 13 14  1  0  0  0
 14 15  1  0  0  0
 15 16  1  0  0  0
 16 17  2  0  0  0
 16 18  1  0  0  0
 18 19  1  0  0  0
 18 20  1  0  0  0
  6  2  1  0  0  0
  2  3  2  0  0  0
  2  4  1  0  0  0
  4  1  1  0  0  0
  1 55  1  0  0  0
 55 56  1  0  0  0
 56 57  1  0  0  0
 57 58  1  0  0  0
 58 60  1  0  0  0
 60 61  1  0  0  0
 60 62  2  0  0  0
  1 27  1  0  0  0
 27 28  2  0  0  0
 27 29  1  0  0  0
 29 31  1  0  0  0
 31 44  1  0  0  0
 44 45  1  0  0  0
 45 46  2  0  0  0
 46 47  1  0  0  0
 47 48  1  0  0  0
 48 49  2  0  0  0
 49 50  1  0  0  0
 50 51  2  0  0  0
 51 52  1  0  0  0
 52 53  2  0  0  0
 31 32  1  0  0  0
 32 33  2  0  0  0
 32 34  1  0  0  0
 34 36  1  0  0  0
 36 41  1  0  0  0
 41 42  1  0  0  0
 41 43  1  0  0  0
 36 37  1  0  0  0
 37 38  1  0  0  0
 37 39  2  0  0  0
 15 11  1  0  0  0
 53 45  1  0  0  0
 53 48  1  0  0  0
  7 10  1  0  0  0
 20 21  1  0  0  0
 20 22  1  0  0  0
  4  5  1  0  0  0
 58 59  1  0  0  0
 61 63  1  0  0  0
 61 64  1  0  0  0
 62 65  1  0  0  0
 29 30  1  0  0  0
 47 54  1  0  0  0
 34 35  1  0  0  0
 38 40  1  0  0  0
M  END
> <minimizedAffinity>
-8.13992

> <CNNscore>
0.2056996077

> <CNNaffinity>
7.1513891220

> <CNN_VS>
1.4710379839

> <CNNaffinity_variance>
0.5468497276

$$$$
[H]N=C(N([H])[H])N([H])C([H])([H])C([H])([H])C([H])([H])[C@@]([H])(C(=O)N([H])[C@]([H])(C(=O)N([H])[C@]([H])(C(=O)O[H])C([H])(C([H])([H])[H])C([H])([H])[H])C([H])([H])c1c([H])n([H])c2c([H])c([H])c([H])c([H])c12)N([H])C(=O)[C@@]([H])(N([H])C(=O)[C@@]1([H])N(C(=O)[C@@]([H])(N([H])[H])C([H])([H])[H])C([H])([H])C([H])([H])C1([H])[H])C([H])([H])C([H])(C([H])([H])[H])C([H])([H])[H]


 65 67  0  0  0  0  0  0  0  0999 V2000
  154.2151  137.3328  185.1051 C   0  0  0  0  0  0  0  0  0  0  0  0
  153.1242  137.0718  187.5979 C   0  0  0  0  0  0  0  0  0  0  0  0
  151.8234  137.2278  187.8955 O   0  0  0  0  0  0  0  0  0  0  0  0
  153.6402  137.1906  186.4393 N   0  0  0  0  0  0  0  0  0  0  0  0
  152.6322  137.9976  186.0184 H   0  0  0  0  0  0  0  0  0  0  0  0
  153.8284  136.7504  188.9216 C   0  0  0  0  0  0  0  0  0  0  0  0
  152.8039  136.2011  189.8281 N   0  0  0  0  0  0  0  0  0  0  0  0
  152.6382  136.6673  191.1358 C   0  0  0  0  0  0  0  0  0  0  0  0
  153.4186  137.6229  191.5386 O   0  0  0  0  0  0  0  0  0  0  0  0
  152.1553  135.4238  189.4988 H   0  0  0  0  0  0  0  0  0  0  0  0
  151.6752  136.1927  192.1147 C   0  0  0  0  0  0  0  0  0  0  0  0
  152.1986  136.3390  193.5505 C   0  0  0  0  0  0  0  0  0  0  0  0
  152.9397  135.0639  193.7882 C   0  0  0  0  0  0  0  0  0  0  0  0
  152.4642  134.0636  192.7314 C   0  0  0  0  0  0  0  0  0  0  0  0
  151.3778  134.7519  192.0494 N   0  0  0  0  0  0  0  0  0  0  0  0
  150.2213  134.1872  191.4673 C   0  0  0  0  0  0  0  0  0  0  0  0
  149.3423  134.9127  190.9191 O   0  0  0  0  0  0  0  0  0  0  0  0
  149.9796  132.7046  191.4701 C   0  0  0  0  0  0  0  0  0  0  0  0
  149.4893  132.2257  190.1344 C   0  0  0  0  0  0  0  0  0  0  0  0
  148.9951  132.4220  192.5187 N   0  0  0  0  0  0  0  0  0  0  0  0
  149.1624  131.5193  192.9758 H   0  0  0  0  0  0  0  0  0  0  0  0
  148.9658  133.1697  193.2425 H   0  0  0  0  0  0  0  0  0  0  0  0
  154.9858  135.8403  188.7298 C   0  0  0  0  0  0  0  0  0  0  0  0
  156.4284  135.8540  190.8098 C   0  0  0  0  0  0  0  0  0  0  0  0
  156.1552  136.4763  189.4654 C   0  0  0  0  0  0  0  0  0  0  0  0
  156.0785  137.9700  189.5474 C   0  0  0  0  0  0  0  0  0  0  0  0
  155.3009  138.4267  185.1894 C   0  0  0  0  0  0  0  0  0  0  0  0
  155.8862  138.5265  186.2829 O   0  0  0  0  0  0  0  0  0  0  0  0
  155.6156  139.2516  184.1102 N   0  0  0  0  0  0  0  0  0  0  0  0
  155.1021  139.1815  183.1914 H   0  0  0  0  0  0  0  0  0  0  0  0
  156.6686  140.2404  184.2328 C   0  0  0  0  0  0  0  0  0  0  0  0
  156.5545  140.9597  182.8815 C   0  0  0  0  0  0  0  0  0  0  0  0
  155.3941  140.8319  182.3630 O   0  0  0  0  0  0  0  0  0  0  0  0
  157.5515  141.6492  182.2765 N   0  0  0  0  0  0  0  0  0  0  0  0
  158.5444  141.5114  182.7600 H   0  0  0  0  0  0  0  0  0  0  0  0
  157.6541  142.4301  181.1090 C   0  0  0  0  0  0  0  0  0  0  0  0
  158.2187  141.6915  179.9151 C   0  0  0  0  0  0  0  0  0  0  0  0
  157.7684  142.0848  178.6296 O   0  0  0  0  0  0  0  0  0  0  0  0
  159.0482  140.7739  179.9601 O   0  0  0  0  0  0  0  0  0  0  0  0
  158.3174  142.8656  178.2515 H   0  0  0  0  0  0  0  0  0  0  0  0
  158.3389  143.7440  181.2170 C   0  0  0  0  0  0  0  0  0  0  0  0
  158.8724  143.9509  182.6049 C   0  0  0  0  0  0  0  0  0  0  0  0
  159.4039  144.0130  180.1934 C   0  0  0  0  0  0  0  0  0  0  0  0
  157.9683  139.8288  184.6692 C   0  0  0  0  0  0  0  0  0  0  0  0
  158.7328  140.8865  185.4406 C   0  0  0  0  0  0  0  0  0  0  0  0
  158.3900  141.5916  186.5601 C   0  0  0  0  0  0  0  0  0  0  0  0
  159.3750  142.4503  186.8428 N   0  0  0  0  0  0  0  0  0  0  0  0
  160.3489  142.3551  185.9667 C   0  0  0  0  0  0  0  0  0  0  0  0
  161.5892  142.9743  185.7461 C   0  0  0  0  0  0  0  0  0  0  0  0
  162.4011  142.6447  184.7079 C   0  0  0  0  0  0  0  0  0  0  0  0
  162.0434  141.6678  183.8039 C   0  0  0  0  0  0  0  0  0  0  0  0
  160.8286  141.0455  184.0003 C   0  0  0  0  0  0  0  0  0  0  0  0
  159.9852  141.3551  185.0358 C   0  0  0  0  0  0  0  0  0  0  0  0
  159.3936  143.1400  187.6695 H   0  0  0  0  0  0  0  0  0  0  0  0
  153.1735  137.8200  184.1607 C   0  0  0  0  0  0  0  0  0  0  0  0
  152.7867  136.9022  183.0506 C   0  0  0  0  0  0  0  0  0  0  0  0
  151.9411  137.5111  181.9649 C   0  0  0  0  0  0  0  0  0  0  0  0
  152.7888  138.4148  181.1757 N   0  0  0  0  0  0  0  0  0  0  0  0
  153.7422  138.0822  180.8728 H   0  0  0  0  0  0  0  0  0  0  0  0
  152.3349  139.6957  180.8439 C   0  0  0  0  0  0  0  0  0  0  0  0
  152.7042  140.8328  181.6069 N   0  0  0  0  0  0  0  0  0  0  0  0
  151.5891  139.8087  179.7792 N   0  0  0  0  0  0  0  0  0  0  0  0
  152.1345  141.6911  181.7281 H   0  0  0  0  0  0  0  0  0  0  0  0
  153.6539  140.7685  182.0785 H   0  0  0  0  0  0  0  0  0  0  0  0
  151.3392  138.9832  179.1968 H   0  0  0  0  0  0  0  0  0  0  0  0
 24 25  1  0  0  0
 25 26  1  0  0  0
 25 23  1  0  0  0
 23  6  1  0  0  0
  6  7  1  0  0  0
  7  8  1  0  0  0
  8  9  2  0  0  0
  8 11  1  0  0  0
 11 12  1  0  0  0
 12 13  1  0  0  0
 13 14  1  0  0  0
 14 15  1  0  0  0
 15 16  1  0  0  0
 16 17  2  0  0  0
 16 18  1  0  0  0
 18 19  1  0  0  0
 18 20  1  0  0  0
  6  2  1  0  0  0
  2  3  2  0  0  0
  2  4  1  0  0  0
  4  1  1  0  0  0
  1 55  1  0  0  0
 55 56  1  0  0  0
 56 57  1  0  0  0
 57 58  1  0  0  0
 58 60  1  0  0  0
 60 61  1  0  0  0
 60 62  2  0  0  0
  1 27  1  0  0  0
 27 28  2  0  0  0
 27 29  1  0  0  0
 29 31  1  0  0  0
 31 44  1  0  0  0
 44 45  1  0  0  0
 45 46  2  0  0  0
 46 47  1  0  0  0
 47 48  1  0  0  0
 48 49  2  0  0  0
 49 50  1  0  0  0
 50 51  2  0  0  0
 51 52  1  0  0  0
 52 53  2  0  0  0
 31 32  1  0  0  0
 32 33  2  0  0  0
 32 34  1  0  0  0
 34 36  1  0  0  0
 36 41  1  0  0  0
 41 42  1  0  0  0
 41 43  1  0  0  0
 36 37  1  0  0  0
 37 38  1  0  0  0
 37 39  2  0  0  0
 15 11  1  0  0  0
 53 45  1  0  0  0
 53 48  1  0  0  0
  7 10  1  0  0  0
 20 21  1  0  0  0
 20 22  1  0  0  0
  4  5  1  0  0  0
 58 59  1  0  0  0
 61 63  1  0  0  0
 61 64  1  0  0  0
 62 65  1  0  0  0
 29 30  1  0  0  0
 47 54  1  0  0  0
 34 35  1  0  0  0
 38 40  1  0  0  0
M  END
> <minimizedAffinity>
-7.64167

> <CNNscore>
0.1965677589

> <CNNaffinity>
6.8960127831

> <CNN_VS>
1.3555337191

> <CNNaffinity_variance>
0.3615033925

$$$$
[H]N=C(N([H])[H])N([H])C([H])([H])C([H])([H])C([H])([H])[C@@]([H])(C(=O)N([H])[C@]([H])(C(=O)N([H])[C@]([H])(C(=O)O[H])C([H])(C([H])([H])[H])C([H])([H])[H])C([H])([H])c1c([H])n([H])c2c([H])c([H])c([H])c([H])c12)N([H])C(=O)[C@@]([H])(N([H])C(=O)[C@@]1([H])N(C(=O)[C@@]([H])(N([H])[H])C([H])([H])[H])C([H])([H])C([H])([H])C1([H])[H])C([H])([H])C([H])(C([H])([H])[H])C([H])([H])[H]


 65 67  0  0  0  0  0  0  0  0999 V2000
  154.0972  137.5259  184.9987 C   0  0  0  0  0  0  0  0  0  0  0  0
  153.1589  137.0581  187.5232 C   0  0  0  0  0  0  0  0  0  0  0  0
  151.8660  136.9030  187.8537 O   0  0  0  0  0  0  0  0  0  0  0  0
  153.6043  137.2753  186.3496 N   0  0  0  0  0  0  0  0  0  0  0  0
  152.4225  137.8086  185.9458 H   0  0  0  0  0  0  0  0  0  0  0  0
  153.9502  136.9401  188.8313 C   0  0  0  0  0  0  0  0  0  0  0  0
  154.8442  135.7770  188.6863 N   0  0  0  0  0  0  0  0  0  0  0  0
  154.5455  134.5322  189.2486 C   0  0  0  0  0  0  0  0  0  0  0  0
  153.4331  134.4198  189.9078 O   0  0  0  0  0  0  0  0  0  0  0  0
  155.7531  135.8621  188.1384 H   0  0  0  0  0  0  0  0  0  0  0  0
  155.3555  133.3279  189.1801 C   0  0  0  0  0  0  0  0  0  0  0  0
  155.0734  132.3805  190.3547 C   0  0  0  0  0  0  0  0  0  0  0  0
  156.0118  132.8479  191.4189 C   0  0  0  0  0  0  0  0  0  0  0  0
  157.0862  133.6943  190.7312 C   0  0  0  0  0  0  0  0  0  0  0  0
  156.8063  133.5438  189.3106 N   0  0  0  0  0  0  0  0  0  0  0  0
  157.7260  133.5492  188.2385 C   0  0  0  0  0  0  0  0  0  0  0  0
  157.3418  133.3875  187.0445 O   0  0  0  0  0  0  0  0  0  0  0  0
  159.1982  133.7467  188.4623 C   0  0  0  0  0  0  0  0  0  0  0  0
  159.6982  134.9810  187.7693 C   0  0  0  0  0  0  0  0  0  0  0  0
  159.8832  132.5526  187.9591 N   0  0  0  0  0  0  0  0  0  0  0  0
  160.7128  132.3174  188.5142 H   0  0  0  0  0  0  0  0  0  0  0  0
  159.2533  131.7245  187.9209 H   0  0  0  0  0  0  0  0  0  0  0  0
  154.6737  138.1944  189.1595 C   0  0  0  0  0  0  0  0  0  0  0  0
  154.7164  139.1910  191.4860 C   0  0  0  0  0  0  0  0  0  0  0  0
  155.1445  138.0515  190.5986 C   0  0  0  0  0  0  0  0  0  0  0  0
  156.6081  137.7613  190.7305 C   0  0  0  0  0  0  0  0  0  0  0  0
  155.2793  138.5112  185.1188 C   0  0  0  0  0  0  0  0  0  0  0  0
  155.9626  138.4146  186.1542 O   0  0  0  0  0  0  0  0  0  0  0  0
  155.5726  139.4501  184.1306 N   0  0  0  0  0  0  0  0  0  0  0  0
  154.9782  139.5466  183.2644 H   0  0  0  0  0  0  0  0  0  0  0  0
  156.7161  140.3289  184.2780 C   0  0  0  0  0  0  0  0  0  0  0  0
  156.7018  141.0583  182.9274 C   0  0  0  0  0  0  0  0  0  0  0  0
  155.9019  140.5141  182.0932 O   0  0  0  0  0  0  0  0  0  0  0  0
  157.4459  142.1478  182.6197 N   0  0  0  0  0  0  0  0  0  0  0  0
  158.2222  142.3855  183.3808 H   0  0  0  0  0  0  0  0  0  0  0  0
  157.5404  143.0052  181.5064 C   0  0  0  0  0  0  0  0  0  0  0  0
  158.3247  142.4324  180.3459 C   0  0  0  0  0  0  0  0  0  0  0  0
  158.0229  141.1071  179.9428 O   0  0  0  0  0  0  0  0  0  0  0  0
  159.2064  143.0231  179.7091 O   0  0  0  0  0  0  0  0  0  0  0  0
  157.2451  141.0759  179.2735 H   0  0  0  0  0  0  0  0  0  0  0  0
  158.0019  144.3968  181.7458 C   0  0  0  0  0  0  0  0  0  0  0  0
  156.8533  145.2731  182.1537 C   0  0  0  0  0  0  0  0  0  0  0  0
  159.1514  144.5502  182.6996 C   0  0  0  0  0  0  0  0  0  0  0  0
  157.9592  139.7892  184.7390 C   0  0  0  0  0  0  0  0  0  0  0  0
  159.1809  140.5770  184.3083 C   0  0  0  0  0  0  0  0  0  0  0  0
  159.9142  140.5202  183.1564 C   0  0  0  0  0  0  0  0  0  0  0  0
  160.9337  141.3796  183.2560 N   0  0  0  0  0  0  0  0  0  0  0  0
  160.9172  141.9979  184.4146 C   0  0  0  0  0  0  0  0  0  0  0  0
  161.6986  142.9630  185.0692 C   0  0  0  0  0  0  0  0  0  0  0  0
  161.4133  143.4165  186.3176 C   0  0  0  0  0  0  0  0  0  0  0  0
  160.3226  142.9458  187.0164 C   0  0  0  0  0  0  0  0  0  0  0  0
  159.5402  141.9965  186.3934 C   0  0  0  0  0  0  0  0  0  0  0  0
  159.8007  141.5163  185.1360 C   0  0  0  0  0  0  0  0  0  0  0  0
  161.6833  141.5599  182.5043 H   0  0  0  0  0  0  0  0  0  0  0  0
  153.0411  138.2028  184.1982 C   0  0  0  0  0  0  0  0  0  0  0  0
  152.1402  137.3284  183.3931 C   0  0  0  0  0  0  0  0  0  0  0  0
  151.8596  137.7958  181.9904 C   0  0  0  0  0  0  0  0  0  0  0  0
  151.6627  139.2512  182.0227 N   0  0  0  0  0  0  0  0  0  0  0  0
  150.9281  139.6507  182.6645 H   0  0  0  0  0  0  0  0  0  0  0  0
  152.4347  140.0845  181.2063 C   0  0  0  0  0  0  0  0  0  0  0  0
  153.1935  141.1540  181.7469 N   0  0  0  0  0  0  0  0  0  0  0  0
  152.4609  139.8140  179.9301 N   0  0  0  0  0  0  0  0  0  0  0  0
  153.4285  142.0375  181.2566 H   0  0  0  0  0  0  0  0  0  0  0  0
  153.5388  141.0031  182.7401 H   0  0  0  0  0  0  0  0  0  0  0  0
  151.9312  139.0122  179.5304 H   0  0  0  0  0  0  0  0  0  0  0  0
 24 25  1  0  0  0
 25 26  1  0  0  0
 25 23  1  0  0  0
 23  6  1  0  0  0
  6  7  1  0  0  0
  7  8  1  0  0  0
  8  9  2  0  0  0
  8 11  1  0  0  0
 11 12  1  0  0  0
 12 13  1  0  0  0
 13 14  1  0  0  0
 14 15  1  0  0  0
 15 16  1  0  0  0
 16 17  2  0  0  0
 16 18  1  0  0  0
 18 19  1  0  0  0
 18 20  1  0  0  0
  6  2  1  0  0  0
  2  3  2  0  0  0
  2  4  1  0  0  0
  4  1  1  0  0  0
  1 55  1  0  0  0
 55 56  1  0  0  0
 56 57  1  0  0  0
 57 58  1  0  0  0
 58 60  1  0  0  0
 60 61  1  0  0  0
 60 62  2  0  0  0
  1 27  1  0  0  0
 27 28  2  0  0  0
 27 29  1  0  0  0
 29 31  1  0  0  0
 31 44  1  0  0  0
 44 45  1  0  0  0
 45 46  2  0  0  0
 46 47  1  0  0  0
 47 48  1  0  0  0
 48 49  2  0  0  0
 49 50  1  0  0  0
 50 51  2  0  0  0
 51 52  1  0  0  0
 52 53  2  0  0  0
 31 32  1  0  0  0
 32 33  2  0  0  0
 32 34  1  0  0  0
 34 36  1  0  0  0
 36 41  1  0  0  0
 41 42  1  0  0  0
 41 43  1  0  0  0
 36 37  1  0  0  0
 37 38  1  0  0  0
 37 39  2  0  0  0
 15 11  1  0  0  0
 53 45  1  0  0  0
 53 48  1  0  0  0
  7 10  1  0  0  0
 20 21  1  0  0  0
 20 22  1  0  0  0
  4  5  1  0  0  0
 58 59  1  0  0  0
 61 63  1  0  0  0
 61 64  1  0  0  0
 62 65  1  0  0  0
 29 30  1  0  0  0
 47 54  1  0  0  0
 34 35  1  0  0  0
 38 40  1  0  0  0
M  END
> <minimizedAffinity>
-8.92095

> <CNNscore>
0.1898407936

> <CNNaffinity>
7.2975287437

> <CNN_VS>
1.3853687048

> <CNNaffinity_variance>
0.8212847710

$$$$
[H]N=C(N([H])[H])N([H])C([H])([H])C([H])([H])C([H])([H])[C@@]([H])(C(=O)N([H])[C@]([H])(C(=O)N([H])[C@]([H])(C(=O)O[H])C([H])(C([H])([H])[H])C([H])([H])[H])C([H])([H])c1c([H])n([H])c2c([H])c([H])c([H])c([H])c12)N([H])C(=O)[C@@]([H])(N([H])C(=O)[C@@]1([H])N(C(=O)[C@@]([H])(N([H])[H])C([H])([H])[H])C([H])([H])C([H])([H])C1([H])[H])C([H])([H])C([H])(C([H])([H])[H])C([H])([H])[H]


 65 67  0  0  0  0  0  0  0  0999 V2000
  154.2752  137.5592  185.0301 C   0  0  0  0  0  0  0  0  0  0  0  0
  153.2458  137.1731  187.5328 C   0  0  0  0  0  0  0  0  0  0  0  0
  151.9403  137.0453  187.8232 O   0  0  0  0  0  0  0  0  0  0  0  0
  153.7336  137.3522  186.3697 N   0  0  0  0  0  0  0  0  0  0  0  0
  152.5741  137.8910  185.9118 H   0  0  0  0  0  0  0  0  0  0  0  0
  153.9908  137.0796  188.8698 C   0  0  0  0  0  0  0  0  0  0  0  0
  155.0109  136.0264  188.7174 N   0  0  0  0  0  0  0  0  0  0  0  0
  154.8269  134.7325  189.2142 C   0  0  0  0  0  0  0  0  0  0  0  0
  153.7077  134.4720  189.8176 O   0  0  0  0  0  0  0  0  0  0  0  0
  155.9264  136.2329  188.2148 H   0  0  0  0  0  0  0  0  0  0  0  0
  155.7649  133.6259  189.1327 C   0  0  0  0  0  0  0  0  0  0  0  0
  156.9004  133.7613  190.1571 C   0  0  0  0  0  0  0  0  0  0  0  0
  157.9286  134.5735  189.4397 C   0  0  0  0  0  0  0  0  0  0  0  0
  157.6004  134.4973  187.9462 C   0  0  0  0  0  0  0  0  0  0  0  0
  156.5121  133.5336  187.8671 N   0  0  0  0  0  0  0  0  0  0  0  0
  156.2239  132.6328  186.8180 C   0  0  0  0  0  0  0  0  0  0  0  0
  155.2482  131.8315  186.8916 O   0  0  0  0  0  0  0  0  0  0  0  0
  157.0573  132.5825  185.5693 C   0  0  0  0  0  0  0  0  0  0  0  0
  156.2045  132.6616  184.3364 C   0  0  0  0  0  0  0  0  0  0  0  0
  157.8169  131.3292  185.5983 N   0  0  0  0  0  0  0  0  0  0  0  0
  158.7452  131.4274  185.1734 H   0  0  0  0  0  0  0  0  0  0  0  0
  157.9225  130.9555  186.5642 H   0  0  0  0  0  0  0  0  0  0  0  0
  154.5598  138.3873  189.2828 C   0  0  0  0  0  0  0  0  0  0  0  0
  156.2560  137.8863  191.0938 C   0  0  0  0  0  0  0  0  0  0  0  0
  154.8374  138.2799  190.7743 C   0  0  0  0  0  0  0  0  0  0  0  0
  153.8446  137.4382  191.5157 C   0  0  0  0  0  0  0  0  0  0  0  0
  155.3933  138.6170  185.1475 C   0  0  0  0  0  0  0  0  0  0  0  0
  156.1207  138.5277  186.1531 O   0  0  0  0  0  0  0  0  0  0  0  0
  155.5858  139.6101  184.1880 N   0  0  0  0  0  0  0  0  0  0  0  0
  154.9536  139.6990  183.3483 H   0  0  0  0  0  0  0  0  0  0  0  0
  156.6734  140.5580  184.3298 C   0  0  0  0  0  0  0  0  0  0  0  0
  156.5361  141.3593  183.0276 C   0  0  0  0  0  0  0  0  0  0  0  0
  155.3154  141.5326  182.6939 O   0  0  0  0  0  0  0  0  0  0  0  0
  157.5683  141.8325  182.2887 N   0  0  0  0  0  0  0  0  0  0  0  0
  158.5601  141.4419  182.6086 H   0  0  0  0  0  0  0  0  0  0  0  0
  157.6807  142.6331  181.1355 C   0  0  0  0  0  0  0  0  0  0  0  0
  158.1391  141.8854  179.9023 C   0  0  0  0  0  0  0  0  0  0  0  0
  157.7023  142.3696  178.6434 O   0  0  0  0  0  0  0  0  0  0  0  0
  158.8710  140.8873  179.8938 O   0  0  0  0  0  0  0  0  0  0  0  0
  158.3196  143.1039  178.2780 H   0  0  0  0  0  0  0  0  0  0  0  0
  158.4652  143.8900  181.2432 C   0  0  0  0  0  0  0  0  0  0  0  0
  159.0274  144.0468  182.6263 C   0  0  0  0  0  0  0  0  0  0  0  0
  159.5371  144.0830  180.2095 C   0  0  0  0  0  0  0  0  0  0  0  0
  157.9736  140.0827  184.6943 C   0  0  0  0  0  0  0  0  0  0  0  0
  158.8098  141.0818  185.4695 C   0  0  0  0  0  0  0  0  0  0  0  0
  158.5182  141.8020  186.5938 C   0  0  0  0  0  0  0  0  0  0  0  0
  159.5599  142.5905  186.8785 N   0  0  0  0  0  0  0  0  0  0  0  0
  160.5230  142.4345  185.9992 C   0  0  0  0  0  0  0  0  0  0  0  0
  161.8018  142.9695  185.7786 C   0  0  0  0  0  0  0  0  0  0  0  0
  162.5870  142.5916  184.7364 C   0  0  0  0  0  0  0  0  0  0  0  0
  162.1618  141.6463  183.8279 C   0  0  0  0  0  0  0  0  0  0  0  0
  160.9080  141.1067  184.0243 C   0  0  0  0  0  0  0  0  0  0  0  0
  160.0901  141.4668  185.0638 C   0  0  0  0  0  0  0  0  0  0  0  0
  159.6272  143.2725  187.7090 H   0  0  0  0  0  0  0  0  0  0  0  0
  153.2221  138.1298  184.1471 C   0  0  0  0  0  0  0  0  0  0  0  0
  152.4081  137.1626  183.3557 C   0  0  0  0  0  0  0  0  0  0  0  0
  151.2896  137.7603  182.5457 C   0  0  0  0  0  0  0  0  0  0  0  0
  150.0581  137.6919  183.3437 N   0  0  0  0  0  0  0  0  0  0  0  0
  150.1301  137.4681  184.3713 H   0  0  0  0  0  0  0  0  0  0  0  0
  148.8152  137.9124  182.7409 C   0  0  0  0  0  0  0  0  0  0  0  0
  147.6036  137.7392  183.4576 N   0  0  0  0  0  0  0  0  0  0  0  0
  148.8156  138.3231  181.5024 N   0  0  0  0  0  0  0  0  0  0  0  0
  146.6926  137.4597  183.0474 H   0  0  0  0  0  0  0  0  0  0  0  0
  147.6688  137.9231  184.5018 H   0  0  0  0  0  0  0  0  0  0  0  0
  149.7014  138.4821  180.9795 H   0  0  0  0  0  0  0  0  0  0  0  0
 24 25  1  0  0  0
 25 26  1  0  0  0
 25 23  1  0  0  0
 23  6  1  0  0  0
  6  7  1  0  0  0
  7  8  1  0  0  0
  8  9  2  0  0  0
  8 11  1  0  0  0
 11 12  1  0  0  0
 12 13  1  0  0  0
 13 14  1  0  0  0
 14 15  1  0  0  0
 15 16  1  0  0  0
 16 17  2  0  0  0
 16 18  1  0  0  0
 18 19  1  0  0  0
 18 20  1  0  0  0
  6  2  1  0  0  0
  2  3  2  0  0  0
  2  4  1  0  0  0
  4  1  1  0  0  0
  1 55  1  0  0  0
 55 56  1  0  0  0
 56 57  1  0  0  0
 57 58  1  0  0  0
 58 60  1  0  0  0
 60 61  1  0  0  0
 60 62  2  0  0  0
  1 27  1  0  0  0
 27 28  2  0  0  0
 27 29  1  0  0  0
 29 31  1  0  0  0
 31 44  1  0  0  0
 44 45  1  0  0  0
 45 46  2  0  0  0
 46 47  1  0  0  0
 47 48  1  0  0  0
 48 49  2  0  0  0
 49 50  1  0  0  0
 50 51  2  0  0  0
 51 52  1  0  0  0
 52 53  2  0  0  0
 31 32  1  0  0  0
 32 33  2  0  0  0
 32 34  1  0  0  0
 34 36  1  0  0  0
 36 41  1  0  0  0
 41 42  1  0  0  0
 41 43  1  0  0  0
 36 37  1  0  0  0
 37 38  1  0  0  0
 37 39  2  0  0  0
 15 11  1  0  0  0
 53 45  1  0  0  0
 53 48  1  0  0  0
  7 10  1  0  0  0
 20 21  1  0  0  0
 20 22  1  0  0  0
  4  5  1  0  0  0
 58 59  1  0  0  0
 61 63  1  0  0  0
 61 64  1  0  0  0
 62 65  1  0  0  0
 29 30  1  0  0  0
 47 54  1  0  0  0
 34 35  1  0  0  0
 38 40  1  0  0  0
M  END
> <minimizedAffinity>
-7.54291

> <CNNscore>
0.1643380076

> <CNNaffinity>
7.2671079636

> <CNN_VS>
1.1942620277

> <CNNaffinity_variance>
0.5204147696

$$$$
[H]N=C(N([H])[H])N([H])C([H])([H])C([H])([H])C([H])([H])[C@@]([H])(C(=O)N([H])[C@]([H])(C(=O)N([H])[C@]([H])(C(=O)O[H])C([H])(C([H])([H])[H])C([H])([H])[H])C([H])([H])c1c([H])n([H])c2c([H])c([H])c([H])c([H])c12)N([H])C(=O)[C@@]([H])(N([H])C(=O)[C@@]1([H])N(C(=O)[C@@]([H])(N([H])[H])C([H])([H])[H])C([H])([H])C([H])([H])C1([H])[H])C([H])([H])C([H])(C([H])([H])[H])C([H])([H])[H]


 65 67  0  0  0  0  0  0  0  0999 V2000
  153.2637  137.6628  183.3484 C   0  0  0  0  0  0  0  0  0  0  0  0
  151.0053  137.0832  184.7755 C   0  0  0  0  0  0  0  0  0  0  0  0
  149.7501  137.1481  184.3010 O   0  0  0  0  0  0  0  0  0  0  0  0
  152.0626  137.3505  184.1171 N   0  0  0  0  0  0  0  0  0  0  0  0
  151.3841  138.1532  183.2570 H   0  0  0  0  0  0  0  0  0  0  0  0
  150.8848  136.6507  186.2416 C   0  0  0  0  0  0  0  0  0  0  0  0
  151.8580  137.4528  187.0049 N   0  0  0  0  0  0  0  0  0  0  0  0
  152.7354  136.8786  187.9297 C   0  0  0  0  0  0  0  0  0  0  0  0
  152.6781  135.5928  188.0971 O   0  0  0  0  0  0  0  0  0  0  0  0
  151.9150  138.5065  186.8639 H   0  0  0  0  0  0  0  0  0  0  0  0
  153.7209  137.5710  188.7424 C   0  0  0  0  0  0  0  0  0  0  0  0
  154.8202  138.2141  187.8851 C   0  0  0  0  0  0  0  0  0  0  0  0
  155.8335  137.1267  187.7358 C   0  0  0  0  0  0  0  0  0  0  0  0
  155.5512  136.0953  188.8314 C   0  0  0  0  0  0  0  0  0  0  0  0
  154.5069  136.7077  189.6399 N   0  0  0  0  0  0  0  0  0  0  0  0
  154.2865  136.5651  191.0278 C   0  0  0  0  0  0  0  0  0  0  0  0
  153.3435  137.1762  191.6080 O   0  0  0  0  0  0  0  0  0  0  0  0
  155.1565  135.6845  191.8788 C   0  0  0  0  0  0  0  0  0  0  0  0
  156.5635  136.2037  191.9468 C   0  0  0  0  0  0  0  0  0  0  0  0
  155.1245  134.3401  191.2959 N   0  0  0  0  0  0  0  0  0  0  0  0
  155.1761  133.6055  192.0098 H   0  0  0  0  0  0  0  0  0  0  0  0
  154.2783  134.1857  190.7093 H   0  0  0  0  0  0  0  0  0  0  0  0
  149.4955  136.7823  186.7485 C   0  0  0  0  0  0  0  0  0  0  0  0
  149.4832  134.2731  187.0829 C   0  0  0  0  0  0  0  0  0  0  0  0
  149.2821  135.6263  187.7137 C   0  0  0  0  0  0  0  0  0  0  0  0
  147.9931  135.7018  188.4729 C   0  0  0  0  0  0  0  0  0  0  0  0
  154.0317  138.7543  184.1238 C   0  0  0  0  0  0  0  0  0  0  0  0
  153.4525  139.2195  185.1220 O   0  0  0  0  0  0  0  0  0  0  0  0
  155.2982  139.1928  183.7392 N   0  0  0  0  0  0  0  0  0  0  0  0
  155.7778  138.8143  182.8792 H   0  0  0  0  0  0  0  0  0  0  0  0
  155.9902  140.1964  184.5237 C   0  0  0  0  0  0  0  0  0  0  0  0
  156.0960  141.3419  183.5073 C   0  0  0  0  0  0  0  0  0  0  0  0
  155.5247  142.4074  183.9196 O   0  0  0  0  0  0  0  0  0  0  0  0
  156.7073  141.2623  182.3009 N   0  0  0  0  0  0  0  0  0  0  0  0
  156.9895  140.2250  182.0130 H   0  0  0  0  0  0  0  0  0  0  0  0
  156.9866  142.1754  181.2657 C   0  0  0  0  0  0  0  0  0  0  0  0
  157.8999  141.6326  180.1882 C   0  0  0  0  0  0  0  0  0  0  0  0
  157.3474  141.4433  178.8963 O   0  0  0  0  0  0  0  0  0  0  0  0
  159.0948  141.3440  180.3327 O   0  0  0  0  0  0  0  0  0  0  0  0
  157.3899  142.2986  178.3302 H   0  0  0  0  0  0  0  0  0  0  0  0
  157.4644  143.5283  181.6508 C   0  0  0  0  0  0  0  0  0  0  0  0
  156.3060  144.4284  181.9694 C   0  0  0  0  0  0  0  0  0  0  0  0
  158.4887  143.5730  182.7477 C   0  0  0  0  0  0  0  0  0  0  0  0
  157.1682  139.8285  185.2492 C   0  0  0  0  0  0  0  0  0  0  0  0
  158.4657  140.2623  184.5959 C   0  0  0  0  0  0  0  0  0  0  0  0
  159.0603  139.8459  183.4380 C   0  0  0  0  0  0  0  0  0  0  0  0
  160.2249  140.4881  183.3005 N   0  0  0  0  0  0  0  0  0  0  0  0
  160.4353  141.3031  184.3087 C   0  0  0  0  0  0  0  0  0  0  0  0
  161.4406  142.1984  184.7065 C   0  0  0  0  0  0  0  0  0  0  0  0
  161.3666  142.9253  185.8517 C   0  0  0  0  0  0  0  0  0  0  0  0
  160.2815  142.8207  186.6951 C   0  0  0  0  0  0  0  0  0  0  0  0
  159.2811  141.9467  186.3250 C   0  0  0  0  0  0  0  0  0  0  0  0
  159.3252  141.1974  185.1778 C   0  0  0  0  0  0  0  0  0  0  0  0
  160.9179  140.3714  182.4846 H   0  0  0  0  0  0  0  0  0  0  0  0
  152.8794  138.2460  182.0344 C   0  0  0  0  0  0  0  0  0  0  0  0
  151.8928  139.3643  182.0551 C   0  0  0  0  0  0  0  0  0  0  0  0
  150.8195  139.3074  181.0018 C   0  0  0  0  0  0  0  0  0  0  0  0
  149.5735  138.8629  181.6403 N   0  0  0  0  0  0  0  0  0  0  0  0
  149.2144  139.3927  182.4780 H   0  0  0  0  0  0  0  0  0  0  0  0
  148.8863  137.7498  181.1446 C   0  0  0  0  0  0  0  0  0  0  0  0
  149.2154  137.1747  179.8906 N   0  0  0  0  0  0  0  0  0  0  0  0
  147.9553  137.2361  181.9008 N   0  0  0  0  0  0  0  0  0  0  0  0
  148.5573  136.6770  179.2619 H   0  0  0  0  0  0  0  0  0  0  0  0
  150.2327  137.2769  179.6023 H   0  0  0  0  0  0  0  0  0  0  0  0
  147.7291  137.6339  182.8356 H   0  0  0  0  0  0  0  0  0  0  0  0
 24 25  1  0  0  0
 25 26  1  0  0  0
 25 23  1  0  0  0
 23  6  1  0  0  0
  6  7  1  0  0  0
  7  8  1  0  0  0
  8  9  2  0  0  0
  8 11  1  0  0  0
 11 12  1  0  0  0
 12 13  1  0  0  0
 13 14  1  0  0  0
 14 15  1  0  0  0
 15 16  1  0  0  0
 16 17  2  0  0  0
 16 18  1  0  0  0
 18 19  1  0  0  0
 18 20  1  0  0  0
  6  2  1  0  0  0
  2  3  2  0  0  0
  2  4  1  0  0  0
  4  1  1  0  0  0
  1 55  1  0  0  0
 55 56  1  0  0  0
 56 57  1  0  0  0
 57 58  1  0  0  0
 58 60  1  0  0  0
 60 61  1  0  0  0
 60 62  2  0  0  0
  1 27  1  0  0  0
 27 28  2  0  0  0
 27 29  1  0  0  0
 29 31  1  0  0  0
 31 44  1  0  0  0
 44 45  1  0  0  0
 45 46  2  0  0  0
 46 47  1  0  0  0
 47 48  1  0  0  0
 48 49  2  0  0  0
 49 50  1  0  0  0
 50 51  2  0  0  0
 51 52  1  0  0  0
 52 53  2  0  0  0
 31 32  1  0  0  0
 32 33  2  0  0  0
 32 34  1  0  0  0
 34 36  1  0  0  0
 36 41  1  0  0  0
 41 42  1  0  0  0
 41 43  1  0  0  0
 36 37  1  0  0  0
 37 38  1  0  0  0
 37 39  2  0  0  0
 15 11  1  0  0  0
 53 45  1  0  0  0
 53 48  1  0  0  0
  7 10  1  0  0  0
 20 21  1  0  0  0
 20 22  1  0  0  0
  4  5  1  0  0  0
 58 59  1  0  0  0
 61 63  1  0  0  0
 61 64  1  0  0  0
 62 65  1  0  0  0
 29 30  1  0  0  0
 47 54  1  0  0  0
 34 35  1  0  0  0
 38 40  1  0  0  0
M  END
> <minimizedAffinity>
-8.33037

> <CNNscore>
0.1467998922

> <CNNaffinity>
7.0521750450

> <CNN_VS>
1.0352585316

> <CNNaffinity_variance>
0.6603003740

$$$$
[H]N=C(N([H])[H])N([H])C([H])([H])C([H])([H])C([H])([H])[C@@]([H])(C(=O)N([H])[C@]([H])(C(=O)N([H])[C@]([H])(C(=O)O[H])C([H])(C([H])([H])[H])C([H])([H])[H])C([H])([H])c1c([H])n([H])c2c([H])c([H])c([H])c([H])c12)N([H])C(=O)[C@@]([H])(N([H])C(=O)[C@@]1([H])N(C(=O)[C@@]([H])(N([H])[H])C([H])([H])[H])C([H])([H])C([H])([H])C1([H])[H])C([H])([H])C([H])(C([H])([H])[H])C([H])([H])[H]


 65 67  0  0  0  0  0  0  0  0999 V2000
  154.4003  139.1649  183.3540 C   0  0  0  0  0  0  0  0  0  0  0  0
  152.4150  137.3893  182.7388 C   0  0  0  0  0  0  0  0  0  0  0  0
  152.5428  136.0520  182.7399 O   0  0  0  0  0  0  0  0  0  0  0  0
  153.3344  138.2233  183.0251 N   0  0  0  0  0  0  0  0  0  0  0  0
  154.3096  137.3354  182.7013 H   0  0  0  0  0  0  0  0  0  0  0  0
  150.9714  137.6789  182.3106 C   0  0  0  0  0  0  0  0  0  0  0  0
  150.1189  137.4302  183.4872 N   0  0  0  0  0  0  0  0  0  0  0  0
  148.8012  136.9773  183.3711 C   0  0  0  0  0  0  0  0  0  0  0  0
  148.3391  136.7671  182.1766 O   0  0  0  0  0  0  0  0  0  0  0  0
  150.4968  137.5921  184.4693 H   0  0  0  0  0  0  0  0  0  0  0  0
  147.8717  136.7127  184.4559 C   0  0  0  0  0  0  0  0  0  0  0  0
  146.8115  137.8158  184.5834 C   0  0  0  0  0  0  0  0  0  0  0  0
  147.4504  138.8170  185.4895 C   0  0  0  0  0  0  0  0  0  0  0  0
  148.6002  138.1051  186.2071 C   0  0  0  0  0  0  0  0  0  0  0  0
  148.4681  136.7130  185.8024 N   0  0  0  0  0  0  0  0  0  0  0  0
  148.7924  135.5572  186.5468 C   0  0  0  0  0  0  0  0  0  0  0  0
  148.6069  134.3991  186.0736 O   0  0  0  0  0  0  0  0  0  0  0  0
  149.3713  135.6458  187.9301 C   0  0  0  0  0  0  0  0  0  0  0  0
  150.2584  134.4725  188.2304 C   0  0  0  0  0  0  0  0  0  0  0  0
  148.2502  135.7064  188.8724 N   0  0  0  0  0  0  0  0  0  0  0  0
  148.4583  136.2939  189.6869 H   0  0  0  0  0  0  0  0  0  0  0  0
  147.3756  136.0468  188.4218 H   0  0  0  0  0  0  0  0  0  0  0  0
  150.8184  139.0488  181.7588 C   0  0  0  0  0  0  0  0  0  0  0  0
  151.7298  139.9428  179.5729 C   0  0  0  0  0  0  0  0  0  0  0  0
  150.8669  138.9070  180.2453 C   0  0  0  0  0  0  0  0  0  0  0  0
  149.5174  138.8035  179.6036 C   0  0  0  0  0  0  0  0  0  0  0  0
  154.8815  138.8300  184.7819 C   0  0  0  0  0  0  0  0  0  0  0  0
  156.0372  139.1948  185.0641 O   0  0  0  0  0  0  0  0  0  0  0  0
  154.0755  138.1654  185.7053 N   0  0  0  0  0  0  0  0  0  0  0  0
  153.1046  137.8358  185.4568 H   0  0  0  0  0  0  0  0  0  0  0  0
  154.5648  137.9064  187.0450 C   0  0  0  0  0  0  0  0  0  0  0  0
  154.6803  136.3758  187.0246 C   0  0  0  0  0  0  0  0  0  0  0  0
  153.6018  135.8155  186.6313 O   0  0  0  0  0  0  0  0  0  0  0  0
  155.7791  135.6701  187.3852 N   0  0  0  0  0  0  0  0  0  0  0  0
  156.5630  136.2882  187.8769 H   0  0  0  0  0  0  0  0  0  0  0  0
  156.1320  134.3067  187.3768 C   0  0  0  0  0  0  0  0  0  0  0  0
  155.1706  133.4114  188.1277 C   0  0  0  0  0  0  0  0  0  0  0  0
  154.0694  132.8837  187.4072 O   0  0  0  0  0  0  0  0  0  0  0  0
  155.2637  133.0910  189.3196 O   0  0  0  0  0  0  0  0  0  0  0  0
  154.3095  132.0121  186.9209 H   0  0  0  0  0  0  0  0  0  0  0  0
  157.5176  133.9513  187.7779 C   0  0  0  0  0  0  0  0  0  0  0  0
  158.0077  132.7665  186.9972 C   0  0  0  0  0  0  0  0  0  0  0  0
  158.5194  135.0688  187.7314 C   0  0  0  0  0  0  0  0  0  0  0  0
  153.9083  138.5175  188.1607 C   0  0  0  0  0  0  0  0  0  0  0  0
  154.4233  138.0660  189.5132 C   0  0  0  0  0  0  0  0  0  0  0  0
  155.6190  138.3004  190.1323 C   0  0  0  0  0  0  0  0  0  0  0  0
  155.6295  137.6516  191.3013 N   0  0  0  0  0  0  0  0  0  0  0  0
  154.5067  136.9957  191.4862 C   0  0  0  0  0  0  0  0  0  0  0  0
  153.9597  136.1647  192.4765 C   0  0  0  0  0  0  0  0  0  0  0  0
  152.7226  135.6131  192.3724 C   0  0  0  0  0  0  0  0  0  0  0  0
  151.9270  135.8465  191.2714 C   0  0  0  0  0  0  0  0  0  0  0  0
  152.4436  136.6599  190.2850 C   0  0  0  0  0  0  0  0  0  0  0  0
  153.6880  137.2307  190.3577 C   0  0  0  0  0  0  0  0  0  0  0  0
  156.4365  137.6478  192.0142 H   0  0  0  0  0  0  0  0  0  0  0  0
  153.8530  140.5482  183.3884 C   0  0  0  0  0  0  0  0  0  0  0  0
  154.2572  141.4616  182.2808 C   0  0  0  0  0  0  0  0  0  0  0  0
  155.6241  142.0778  182.4089 C   0  0  0  0  0  0  0  0  0  0  0  0
  156.5657  141.2734  181.6187 N   0  0  0  0  0  0  0  0  0  0  0  0
  156.3785  141.1359  180.5905 H   0  0  0  0  0  0  0  0  0  0  0  0
  157.6840  140.6962  182.2297 C   0  0  0  0  0  0  0  0  0  0  0  0
  158.6309  139.9479  181.4848 N   0  0  0  0  0  0  0  0  0  0  0  0
  157.8430  140.9074  183.5075 N   0  0  0  0  0  0  0  0  0  0  0  0
  159.2062  139.1657  181.8499 H   0  0  0  0  0  0  0  0  0  0  0  0
  158.7383  140.2424  180.4697 H   0  0  0  0  0  0  0  0  0  0  0  0
  157.1688  141.4812  184.0547 H   0  0  0  0  0  0  0  0  0  0  0  0
 24 25  1  0  0  0
 25 26  1  0  0  0
 25 23  1  0  0  0
 23  6  1  0  0  0
  6  7  1  0  0  0
  7  8  1  0  0  0
  8  9  2  0  0  0
  8 11  1  0  0  0
 11 12  1  0  0  0
 12 13  1  0  0  0
 13 14  1  0  0  0
 14 15  1  0  0  0
 15 16  1  0  0  0
 16 17  2  0  0  0
 16 18  1  0  0  0
 18 19  1  0  0  0
 18 20  1  0  0  0
  6  2  1  0  0  0
  2  3  2  0  0  0
  2  4  1  0  0  0
  4  1  1  0  0  0
  1 55  1  0  0  0
 55 56  1  0  0  0
 56 57  1  0  0  0
 57 58  1  0  0  0
 58 60  1  0  0  0
 60 61  1  0  0  0
 60 62  2  0  0  0
  1 27  1  0  0  0
 27 28  2  0  0  0
 27 29  1  0  0  0
 29 31  1  0  0  0
 31 44  1  0  0  0
 44 45  1  0  0  0
 45 46  2  0  0  0
 46 47  1  0  0  0
 47 48  1  0  0  0
 48 49  2  0  0  0
 49 50  1  0  0  0
 50 51  2  0  0  0
 51 52  1  0  0  0
 52 53  2  0  0  0
 31 32  1  0  0  0
 32 33  2  0  0  0
 32 34  1  0  0  0
 34 36  1  0  0  0
 36 41  1  0  0  0
 41 42  1  0  0  0
 41 43  1  0  0  0
 36 37  1  0  0  0
 37 38  1  0  0  0
 37 39  2  0  0  0
 15 11  1  0  0  0
 53 45  1  0  0  0
 53 48  1  0  0  0
  7 10  1  0  0  0
 20 21  1  0  0  0
 20 22  1  0  0  0
  4  5  1  0  0  0
 58 59  1  0  0  0
 61 63  1  0  0  0
 61 64  1  0  0  0
 62 65  1  0  0  0
 29 30  1  0  0  0
 47 54  1  0  0  0
 34 35  1  0  0  0
 38 40  1  0  0  0
M  END
> <minimizedAffinity>
-6.80829

> <CNNscore>
0.1368213147

> <CNNaffinity>
6.6566481590

> <CNN_VS>
0.9107713699

> <CNNaffinity_variance>
0.6736905575

$$$$
[H]N=C(N([H])[H])N([H])C([H])([H])C([H])([H])C([H])([H])[C@@]([H])(C(=O)N([H])[C@]([H])(C(=O)N([H])[C@]([H])(C(=O)O[H])C([H])(C([H])([H])[H])C([H])([H])[H])C([H])([H])c1c([H])n([H])c2c([H])c([H])c([H])c([H])c12)N([H])C(=O)[C@@]([H])(N([H])C(=O)[C@@]1([H])N(C(=O)[C@@]([H])(N([H])[H])C([H])([H])[H])C([H])([H])C([H])([H])C1([H])[H])C([H])([H])C([H])(C([H])([H])[H])C([H])([H])[H]


 65 67  0  0  0  0  0  0  0  0999 V2000
  154.0005  139.4501  182.7033 C   0  0  0  0  0  0  0  0  0  0  0  0
  152.4036  137.4258  181.7952 C   0  0  0  0  0  0  0  0  0  0  0  0
  152.7479  136.1281  181.7478 O   0  0  0  0  0  0  0  0  0  0  0  0
  153.1411  138.3747  182.2176 N   0  0  0  0  0  0  0  0  0  0  0  0
  154.2757  137.6744  181.9601 H   0  0  0  0  0  0  0  0  0  0  0  0
  150.9817  137.5103  181.2275 C   0  0  0  0  0  0  0  0  0  0  0  0
  150.2473  136.3390  181.7392 N   0  0  0  0  0  0  0  0  0  0  0  0
  149.9008  136.2066  183.0872 C   0  0  0  0  0  0  0  0  0  0  0  0
  150.2400  137.1652  183.8938 O   0  0  0  0  0  0  0  0  0  0  0  0
  149.9586  135.5548  181.0795 H   0  0  0  0  0  0  0  0  0  0  0  0
  149.1930  135.0956  183.7002 C   0  0  0  0  0  0  0  0  0  0  0  0
  148.2557  134.3954  182.7062 C   0  0  0  0  0  0  0  0  0  0  0  0
  146.9790  135.1619  182.8243 C   0  0  0  0  0  0  0  0  0  0  0  0
  147.0418  135.9402  184.1411 C   0  0  0  0  0  0  0  0  0  0  0  0
  148.2622  135.4679  184.7788 N   0  0  0  0  0  0  0  0  0  0  0  0
  148.5243  135.3324  186.1602 C   0  0  0  0  0  0  0  0  0  0  0  0
  149.6325  134.8873  186.5766 O   0  0  0  0  0  0  0  0  0  0  0  0
  147.5052  135.7086  187.1977 C   0  0  0  0  0  0  0  0  0  0  0  0
  147.6449  137.1457  187.6087 C   0  0  0  0  0  0  0  0  0  0  0  0
  147.6970  134.8172  188.3453 N   0  0  0  0  0  0  0  0  0  0  0  0
  146.8128  134.5886  188.8120 H   0  0  0  0  0  0  0  0  0  0  0  0
  148.1805  133.9339  188.0808 H   0  0  0  0  0  0  0  0  0  0  0  0
  150.3256  138.8003  181.5589 C   0  0  0  0  0  0  0  0  0  0  0  0
  149.1984  138.6466  179.2975 C   0  0  0  0  0  0  0  0  0  0  0  0
  150.0328  139.4833  180.2319 C   0  0  0  0  0  0  0  0  0  0  0  0
  151.2495  140.0328  179.5525 C   0  0  0  0  0  0  0  0  0  0  0  0
  154.4404  139.0730  184.1339 C   0  0  0  0  0  0  0  0  0  0  0  0
  155.5709  139.4655  184.4748 O   0  0  0  0  0  0  0  0  0  0  0  0
  153.6253  138.3430  184.9981 N   0  0  0  0  0  0  0  0  0  0  0  0
  152.6769  137.9906  184.6995 H   0  0  0  0  0  0  0  0  0  0  0  0
  154.0739  138.0455  186.3442 C   0  0  0  0  0  0  0  0  0  0  0  0
  154.2967  136.5296  186.2511 C   0  0  0  0  0  0  0  0  0  0  0  0
  153.4709  135.9683  185.4544 O   0  0  0  0  0  0  0  0  0  0  0  0
  155.2422  135.8356  186.9291 N   0  0  0  0  0  0  0  0  0  0  0  0
  155.7543  136.4336  187.7156 H   0  0  0  0  0  0  0  0  0  0  0  0
  155.6703  134.4940  186.9456 C   0  0  0  0  0  0  0  0  0  0  0  0
  154.5596  133.4901  187.1651 C   0  0  0  0  0  0  0  0  0  0  0  0
  153.4187  133.9237  187.8864 O   0  0  0  0  0  0  0  0  0  0  0  0
  154.5549  132.3195  186.7630 O   0  0  0  0  0  0  0  0  0  0  0  0
  152.7257  134.3733  187.2769 H   0  0  0  0  0  0  0  0  0  0  0  0
  156.8050  134.1438  187.8382 C   0  0  0  0  0  0  0  0  0  0  0  0
  157.9423  135.1059  187.6516 C   0  0  0  0  0  0  0  0  0  0  0  0
  156.4702  133.9937  189.2941 C   0  0  0  0  0  0  0  0  0  0  0  0
  153.3292  138.5498  187.4579 C   0  0  0  0  0  0  0  0  0  0  0  0
  153.3567  137.6581  188.6837 C   0  0  0  0  0  0  0  0  0  0  0  0
  152.4004  136.8308  189.2023 C   0  0  0  0  0  0  0  0  0  0  0  0
  152.8726  136.2844  190.3276 N   0  0  0  0  0  0  0  0  0  0  0  0
  154.0882  136.7104  190.5842 C   0  0  0  0  0  0  0  0  0  0  0  0
  155.0534  136.5054  191.5825 C   0  0  0  0  0  0  0  0  0  0  0  0
  156.2659  137.1181  191.5696 C   0  0  0  0  0  0  0  0  0  0  0  0
  156.6170  137.9856  190.5577 C   0  0  0  0  0  0  0  0  0  0  0  0
  155.6841  138.2028  189.5657 C   0  0  0  0  0  0  0  0  0  0  0  0
  154.4517  137.6025  189.5494 C   0  0  0  0  0  0  0  0  0  0  0  0
  152.3485  135.5875  190.9594 H   0  0  0  0  0  0  0  0  0  0  0  0
  153.2164  140.7109  182.8031 C   0  0  0  0  0  0  0  0  0  0  0  0
  153.8540  141.9465  182.2637 C   0  0  0  0  0  0  0  0  0  0  0  0
  154.6091  142.7809  183.2629 C   0  0  0  0  0  0  0  0  0  0  0  0
  155.9788  142.2582  183.3550 N   0  0  0  0  0  0  0  0  0  0  0  0
  156.3416  141.9455  184.2941 H   0  0  0  0  0  0  0  0  0  0  0  0
  156.7841  142.1882  182.2133 C   0  0  0  0  0  0  0  0  0  0  0  0
  157.1663  140.9429  181.6521 N   0  0  0  0  0  0  0  0  0  0  0  0
  157.1376  143.3161  181.6606 N   0  0  0  0  0  0  0  0  0  0  0  0
  158.0416  140.7594  181.1264 H   0  0  0  0  0  0  0  0  0  0  0  0
  156.4720  140.1523  181.7976 H   0  0  0  0  0  0  0  0  0  0  0  0
  156.8355  144.2333  182.0489 H   0  0  0  0  0  0  0  0  0  0  0  0
 24 25  1  0  0  0
 25 26  1  0  0  0
 25 23  1  0  0  0
 23  6  1  0  0  0
  6  7  1  0  0  0
  7  8  1  0  0  0
  8  9  2  0  0  0
  8 11  1  0  0  0
 11 12  1  0  0  0
 12 13  1  0  0  0
 13 14  1  0  0  0
 14 15  1  0  0  0
 15 16  1  0  0  0
 16 17  2  0  0  0
 16 18  1  0  0  0
 18 19  1  0  0  0
 18 20  1  0  0  0
  6  2  1  0  0  0
  2  3  2  0  0  0
  2  4  1  0  0  0
  4  1  1  0  0  0
  1 55  1  0  0  0
 55 56  1  0  0  0
 56 57  1  0  0  0
 57 58  1  0  0  0
 58 60  1  0  0  0
 60 61  1  0  0  0
 60 62  2  0  0  0
  1 27  1  0  0  0
 27 28  2  0  0  0
 27 29  1  0  0  0
 29 31  1  0  0  0
 31 44  1  0  0  0
 44 45  1  0  0  0
 45 46  2  0  0  0
 46 47  1  0  0  0
 47 48  1  0  0  0
 48 49  2  0  0  0
 49 50  1  0  0  0
 50 51  2  0  0  0
 51 52  1  0  0  0
 52 53  2  0  0  0
 31 32  1  0  0  0
 32 33  2  0  0  0
 32 34  1  0  0  0
 34 36  1  0  0  0
 36 41  1  0  0  0
 41 42  1  0  0  0
 41 43  1  0  0  0
 36 37  1  0  0  0
 37 38  1  0  0  0
 37 39  2  0  0  0
 15 11  1  0  0  0
 53 45  1  0  0  0
 53 48  1  0  0  0
  7 10  1  0  0  0
 20 21  1  0  0  0
 20 22  1  0  0  0
  4  5  1  0  0  0
 58 59  1  0  0  0
 61 63  1  0  0  0
 61 64  1  0  0  0
 62 65  1  0  0  0
 29 30  1  0  0  0
 47 54  1  0  0  0
 34 35  1  0  0  0
 38 40  1  0  0  0
M  END
> <minimizedAffinity>
-6.52758

> <CNNscore>
0.1365231574

> <CNNaffinity>
6.7080969810

> <CNN_VS>
0.9158105850

> <CNNaffinity_variance>
0.4632695615

$$$$
[H]c1c([H])c([H])c([C@@]([H])(N([H])[H])C([H])([H])n2c(=O)c(-c3c([H])c([H])c(C(=O)N([H])c4c([H])c(C([H])([H])[H])nn4[H])c([H])c3F)c([H])c3c([H])nc(N([H])C([H])([H])[H])nc32)c([H])c1[H]


 43 47  0  0  0  0  0  0  0  0999 V2000
  150.4651  138.2568  181.4995 C   0  0  0  0  0  0  0  0  0  0  0  0
  150.6445  139.0830  180.4338 N   0  0  0  0  0  0  0  0  0  0  0  0
  151.6975  139.8951  180.4111 C   0  0  0  0  0  0  0  0  0  0  0  0
  152.5844  139.8794  181.4722 C   0  0  0  0  0  0  0  0  0  0  0  0
  153.6801  140.7120  181.4428 C   0  0  0  0  0  0  0  0  0  0  0  0
  154.5959  140.7188  182.4773 C   0  0  0  0  0  0  0  0  0  0  0  0
  154.3538  139.8526  183.5339 C   0  0  0  0  0  0  0  0  0  0  0  0
  155.1991  139.8770  184.4518 O   0  0  0  0  0  0  0  0  0  0  0  0
  153.3014  139.0271  183.6054 N   0  0  0  0  0  0  0  0  0  0  0  0
  152.4238  139.0543  182.5593 C   0  0  0  0  0  0  0  0  0  0  0  0
  151.3361  138.2514  182.5268 N   0  0  0  0  0  0  0  0  0  0  0  0
  155.7269  141.6097  182.4045 C   0  0  0  0  0  0  0  0  0  0  0  0
  156.9429  141.1758  181.9309 C   0  0  0  0  0  0  0  0  0  0  0  0
  157.9846  142.0574  181.8910 C   0  0  0  0  0  0  0  0  0  0  0  0
  157.8313  143.3805  182.3208 C   0  0  0  0  0  0  0  0  0  0  0  0
  156.5991  143.8389  182.8060 C   0  0  0  0  0  0  0  0  0  0  0  0
  155.5723  142.9195  182.8306 C   0  0  0  0  0  0  0  0  0  0  0  0
  154.3776  143.4100  183.3077 F   0  0  0  0  0  0  0  0  0  0  0  0
  158.9158  144.3268  182.3244 C   0  0  0  0  0  0  0  0  0  0  0  0
  158.8416  145.1759  181.3269 O   0  0  0  0  0  0  0  0  0  0  0  0
  159.9862  144.4514  183.2105 N   0  0  0  0  0  0  0  0  0  0  0  0
  160.6707  145.2547  182.9863 H   0  0  0  0  0  0  0  0  0  0  0  0
  160.2549  143.6569  184.3419 C   0  0  0  0  0  0  0  0  0  0  0  0
  161.4279  143.8301  185.1108 C   0  0  0  0  0  0  0  0  0  0  0  0
  161.3766  142.9146  186.1219 C   0  0  0  0  0  0  0  0  0  0  0  0
  162.3934  142.7038  187.2018 C   0  0  0  0  0  0  0  0  0  0  0  0
  160.2515  142.2213  185.9909 N   0  0  0  0  0  0  0  0  0  0  0  0
  159.5988  142.6702  184.9362 N   0  0  0  0  0  0  0  0  0  0  0  0
  158.6895  142.2728  184.6442 H   0  0  0  0  0  0  0  0  0  0  0  0
  149.5372  135.9762  181.4295 C   0  0  0  0  0  0  0  0  0  0  0  0
  149.3254  137.4123  181.4691 N   0  0  0  0  0  0  0  0  0  0  0  0
  148.3653  137.8079  181.4749 H   0  0  0  0  0  0  0  0  0  0  0  0
  153.1151  138.1773  184.7179 C   0  0  0  0  0  0  0  0  0  0  0  0
  154.2833  137.4646  185.2880 C   0  0  0  0  0  0  0  0  0  0  0  0
  154.2566  136.0188  185.0382 N   0  0  0  0  0  0  0  0  0  0  0  0
  154.7169  135.5621  185.8534 H   0  0  0  0  0  0  0  0  0  0  0  0
  154.7115  135.7483  184.1537 H   0  0  0  0  0  0  0  0  0  0  0  0
  154.6228  137.7405  186.6906 C   0  0  0  0  0  0  0  0  0  0  0  0
  155.8740  137.4634  187.1928 C   0  0  0  0  0  0  0  0  0  0  0  0
  156.1658  137.7376  188.5199 C   0  0  0  0  0  0  0  0  0  0  0  0
  155.2286  138.2866  189.3637 C   0  0  0  0  0  0  0  0  0  0  0  0
  153.9740  138.5663  188.8657 C   0  0  0  0  0  0  0  0  0  0  0  0
  153.7016  138.2886  187.5497 C   0  0  0  0  0  0  0  0  0  0  0  0
 30 31  1  0  0  0
 31  1  1  0  0  0
  1  2  2  0  0  0
  2  3  1  0  0  0
  3  4  2  0  0  0
  4  5  1  0  0  0
  5  6  2  0  0  0
  6 12  1  0  0  0
 12 13  2  0  0  0
 13 14  1  0  0  0
 14 15  2  0  0  0
 15 16  1  0  0  0
 16 17  2  0  0  0
 17 18  1  0  0  0
 15 19  1  0  0  0
 19 20  2  0  0  0
 19 21  1  0  0  0
 21 23  1  0  0  0
 23 24  2  0  0  0
 24 25  1  0  0  0
 25 26  1  0  0  0
 25 27  2  0  0  0
 27 28  1  0  0  0
  6  7  1  0  0  0
  7  8  2  0  0  0
  7  9  1  0  0  0
  9 33  1  0  0  0
 33 34  1  0  0  0
 34 35  1  0  0  0
 34 38  1  0  0  0
 38 39  2  0  0  0
 39 40  1  0  0  0
 40 41  2  0  0  0
 41 42  1  0  0  0
 42 43  2  0  0  0
  9 10  1  0  0  0
 10 11  2  0  0  0
 11  1  1  0  0  0
 10  4  1  0  0  0
 17 12  1  0  0  0
 28 23  1  0  0  0
 43 38  1  0  0  0
 31 32  1  0  0  0
 21 22  1  0  0  0
 28 29  1  0  0  0
 35 36  1  0  0  0
 35 37  1  0  0  0
M  END
> <minimizedAffinity>
-10.24126

> <CNNscore>
0.3362415433

> <CNNaffinity>
7.0050597191

> <CNN_VS>
2.3553919792

> <CNNaffinity_variance>
0.2395017594

$$$$
[H]c1c([H])c([H])c([C@@]([H])(N([H])[H])C([H])([H])n2c(=O)c(-c3c([H])c([H])c(C(=O)N([H])c4c([H])c(C([H])([H])[H])nn4[H])c([H])c3F)c([H])c3c([H])nc(N([H])C([H])([H])[H])nc32)c([H])c1[H]


 43 47  0  0  0  0  0  0  0  0999 V2000
  150.9403  136.9801  183.5494 C   0  0  0  0  0  0  0  0  0  0  0  0
  150.8609  137.7921  182.4609 N   0  0  0  0  0  0  0  0  0  0  0  0
  151.8376  138.6642  182.2281 C   0  0  0  0  0  0  0  0  0  0  0  0
  152.9103  138.7240  183.0990 C   0  0  0  0  0  0  0  0  0  0  0  0
  153.9263  139.6190  182.8513 C   0  0  0  0  0  0  0  0  0  0  0  0
  155.0208  139.7023  183.6903 C   0  0  0  0  0  0  0  0  0  0  0  0
  155.0395  138.8465  184.7823 C   0  0  0  0  0  0  0  0  0  0  0  0
  156.0415  138.9407  185.5203 O   0  0  0  0  0  0  0  0  0  0  0  0
  154.0736  137.9620  185.0630 N   0  0  0  0  0  0  0  0  0  0  0  0
  153.0121  137.9146  184.2049 C   0  0  0  0  0  0  0  0  0  0  0  0
  151.9903  137.0484  184.3902 N   0  0  0  0  0  0  0  0  0  0  0  0
  156.0594  140.6567  183.3927 C   0  0  0  0  0  0  0  0  0  0  0  0
  157.2893  140.2471  182.9336 C   0  0  0  0  0  0  0  0  0  0  0  0
  158.2415  141.1909  182.6752 C   0  0  0  0  0  0  0  0  0  0  0  0
  157.9835  142.5528  182.8692 C   0  0  0  0  0  0  0  0  0  0  0  0
  156.7357  142.9871  183.3361 C   0  0  0  0  0  0  0  0  0  0  0  0
  155.8013  142.0048  183.5855 C   0  0  0  0  0  0  0  0  0  0  0  0
  154.5874  142.4722  184.0365 F   0  0  0  0  0  0  0  0  0  0  0  0
  158.9740  143.5714  182.6393 C   0  0  0  0  0  0  0  0  0  0  0  0
  158.7947  144.1946  181.4987 O   0  0  0  0  0  0  0  0  0  0  0  0
  160.0503  143.9632  183.4360 N   0  0  0  0  0  0  0  0  0  0  0  0
  160.6503  144.7620  183.0285 H   0  0  0  0  0  0  0  0  0  0  0  0
  160.4214  143.4370  184.6885 C   0  0  0  0  0  0  0  0  0  0  0  0
  161.7717  143.3833  185.1021 C   0  0  0  0  0  0  0  0  0  0  0  0
  161.7814  142.8275  186.3488 C   0  0  0  0  0  0  0  0  0  0  0  0
  162.9786  142.5587  187.2084 C   0  0  0  0  0  0  0  0  0  0  0  0
  160.5262  142.5551  186.6864 N   0  0  0  0  0  0  0  0  0  0  0  0
  159.7338  142.9203  185.6971 N   0  0  0  0  0  0  0  0  0  0  0  0
  158.7074  142.8005  185.7442 H   0  0  0  0  0  0  0  0  0  0  0  0
  148.5476  136.6107  184.0031 C   0  0  0  0  0  0  0  0  0  0  0  0
  149.8706  136.0692  183.7471 N   0  0  0  0  0  0  0  0  0  0  0  0
  150.0268  135.0433  183.7101 H   0  0  0  0  0  0  0  0  0  0  0  0
  154.1566  137.1271  186.1990 C   0  0  0  0  0  0  0  0  0  0  0  0
  153.6305  137.6153  187.4962 C   0  0  0  0  0  0  0  0  0  0  0  0
  152.7873  138.8092  187.3655 N   0  0  0  0  0  0  0  0  0  0  0  0
  152.9215  139.3711  188.2322 H   0  0  0  0  0  0  0  0  0  0  0  0
  151.7914  138.5916  187.2130 H   0  0  0  0  0  0  0  0  0  0  0  0
  154.5919  137.7793  188.5950 C   0  0  0  0  0  0  0  0  0  0  0  0
  155.8591  137.2470  188.5238 C   0  0  0  0  0  0  0  0  0  0  0  0
  156.7454  137.4209  189.5754 C   0  0  0  0  0  0  0  0  0  0  0  0
  156.3916  138.1200  190.7059 C   0  0  0  0  0  0  0  0  0  0  0  0
  155.1236  138.6553  190.7822 C   0  0  0  0  0  0  0  0  0  0  0  0
  154.2587  138.4740  189.7324 C   0  0  0  0  0  0  0  0  0  0  0  0
 30 31  1  0  0  0
 31  1  1  0  0  0
  1  2  2  0  0  0
  2  3  1  0  0  0
  3  4  2  0  0  0
  4  5  1  0  0  0
  5  6  2  0  0  0
  6 12  1  0  0  0
 12 13  2  0  0  0
 13 14  1  0  0  0
 14 15  2  0  0  0
 15 16  1  0  0  0
 16 17  2  0  0  0
 17 18  1  0  0  0
 15 19  1  0  0  0
 19 20  2  0  0  0
 19 21  1  0  0  0
 21 23  1  0  0  0
 23 24  2  0  0  0
 24 25  1  0  0  0
 25 26  1  0  0  0
 25 27  2  0  0  0
 27 28  1  0  0  0
  6  7  1  0  0  0
  7  8  2  0  0  0
  7  9  1  0  0  0
  9 33  1  0  0  0
 33 34  1  0  0  0
 34 35  1  0  0  0
 34 38  1  0  0  0
 38 39  2  0  0  0
 39 40  1  0  0  0
 40 41  2  0  0  0
 41 42  1  0  0  0
 42 43  2  0  0  0
  9 10  1  0  0  0
 10 11  2  0  0  0
 11  1  1  0  0  0
 10  4  1  0  0  0
 17 12  1  0  0  0
 28 23  1  0  0  0
 43 38  1  0  0  0
 31 32  1  0  0  0
 21 22  1  0  0  0
 28 29  1  0  0  0
 35 36  1  0  0  0
 35 37  1  0  0  0
M  END
> <minimizedAffinity>
-10.23837

> <CNNscore>
0.3357555568

> <CNNaffinity>
7.1224927902

> <CNN_VS>
2.3914165497

> <CNNaffinity_variance>
0.1267501861

$$$$
[H]c1c([H])c([H])c([C@@]([H])(N([H])[H])C([H])([H])n2c(=O)c(-c3c([H])c([H])c(C(=O)N([H])c4c([H])c(C([H])([H])[H])nn4[H])c([H])c3F)c([H])c3c([H])nc(N([H])C([H])([H])[H])nc32)c([H])c1[H]


 43 47  0  0  0  0  0  0  0  0999 V2000
  156.8192  143.4166  182.3465 C   0  0  0  0  0  0  0  0  0  0  0  0
  155.4860  143.5848  182.1349 N   0  0  0  0  0  0  0  0  0  0  0  0
  154.6298  142.7112  182.6572 C   0  0  0  0  0  0  0  0  0  0  0  0
  155.1165  141.6529  183.4026 C   0  0  0  0  0  0  0  0  0  0  0  0
  154.2292  140.7555  183.9522 C   0  0  0  0  0  0  0  0  0  0  0  0
  154.6738  139.6911  184.7127 C   0  0  0  0  0  0  0  0  0  0  0  0
  156.0453  139.5771  184.8894 C   0  0  0  0  0  0  0  0  0  0  0  0
  156.4179  138.6093  185.5837 O   0  0  0  0  0  0  0  0  0  0  0  0
  156.9446  140.4247  184.3727 N   0  0  0  0  0  0  0  0  0  0  0  0
  156.4585  141.4621  183.6292 C   0  0  0  0  0  0  0  0  0  0  0  0
  157.2804  142.3813  183.0742 N   0  0  0  0  0  0  0  0  0  0  0  0
  153.7080  138.7751  185.2660 C   0  0  0  0  0  0  0  0  0  0  0  0
  153.3432  138.8426  186.5902 C   0  0  0  0  0  0  0  0  0  0  0  0
  152.4307  137.9456  187.0667 C   0  0  0  0  0  0  0  0  0  0  0  0
  151.8694  136.9709  186.2336 C   0  0  0  0  0  0  0  0  0  0  0  0
  152.2299  136.8884  184.8820 C   0  0  0  0  0  0  0  0  0  0  0  0
  153.1534  137.8110  184.4389 C   0  0  0  0  0  0  0  0  0  0  0  0
  153.4764  137.7007  183.1051 F   0  0  0  0  0  0  0  0  0  0  0  0
  150.9310  135.9890  186.7098 C   0  0  0  0  0  0  0  0  0  0  0  0
  151.5247  134.9282  187.2033 O   0  0  0  0  0  0  0  0  0  0  0  0
  149.5361  136.0185  186.7137 N   0  0  0  0  0  0  0  0  0  0  0  0
  149.0642  135.1432  187.1323 H   0  0  0  0  0  0  0  0  0  0  0  0
  148.7026  137.0508  186.2415 C   0  0  0  0  0  0  0  0  0  0  0  0
  148.4954  137.2666  184.8604 C   0  0  0  0  0  0  0  0  0  0  0  0
  147.6445  138.3281  184.7493 C   0  0  0  0  0  0  0  0  0  0  0  0
  147.1247  138.9404  183.4846 C   0  0  0  0  0  0  0  0  0  0  0  0
  147.3439  138.7429  185.9746 N   0  0  0  0  0  0  0  0  0  0  0  0
  147.9752  137.9798  186.8459 N   0  0  0  0  0  0  0  0  0  0  0  0
  147.8854  138.1232  187.8664 H   0  0  0  0  0  0  0  0  0  0  0  0
  159.0054  144.5514  182.3460 C   0  0  0  0  0  0  0  0  0  0  0  0
  157.6851  144.3792  181.7664 N   0  0  0  0  0  0  0  0  0  0  0  0
  157.3852  144.9463  180.9498 H   0  0  0  0  0  0  0  0  0  0  0  0
  158.3281  140.2409  184.5881 C   0  0  0  0  0  0  0  0  0  0  0  0
  159.2823  141.2467  184.0631 C   0  0  0  0  0  0  0  0  0  0  0  0
  159.9997  140.7932  182.8660 N   0  0  0  0  0  0  0  0  0  0  0  0
  160.9437  141.2325  182.8939 H   0  0  0  0  0  0  0  0  0  0  0  0
  159.5104  141.0172  181.9868 H   0  0  0  0  0  0  0  0  0  0  0  0
  160.2122  141.8589  185.0218 C   0  0  0  0  0  0  0  0  0  0  0  0
  161.5417  142.0396  184.7151 C   0  0  0  0  0  0  0  0  0  0  0  0
  162.3945  142.6229  185.6392 C   0  0  0  0  0  0  0  0  0  0  0  0
  161.9458  143.0331  186.8730 C   0  0  0  0  0  0  0  0  0  0  0  0
  160.6151  142.8546  187.1852 C   0  0  0  0  0  0  0  0  0  0  0  0
  159.7845  142.2755  186.2590 C   0  0  0  0  0  0  0  0  0  0  0  0
 30 31  1  0  0  0
 31  1  1  0  0  0
  1  2  2  0  0  0
  2  3  1  0  0  0
  3  4  2  0  0  0
  4  5  1  0  0  0
  5  6  2  0  0  0
  6 12  1  0  0  0
 12 13  2  0  0  0
 13 14  1  0  0  0
 14 15  2  0  0  0
 15 16  1  0  0  0
 16 17  2  0  0  0
 17 18  1  0  0  0
 15 19  1  0  0  0
 19 20  2  0  0  0
 19 21  1  0  0  0
 21 23  1  0  0  0
 23 24  2  0  0  0
 24 25  1  0  0  0
 25 26  1  0  0  0
 25 27  2  0  0  0
 27 28  1  0  0  0
  6  7  1  0  0  0
  7  8  2  0  0  0
  7  9  1  0  0  0
  9 33  1  0  0  0
 33 34  1  0  0  0
 34 35  1  0  0  0
 34 38  1  0  0  0
 38 39  2  0  0  0
 39 40  1  0  0  0
 40 41  2  0  0  0
 41 42  1  0  0  0
 42 43  2  0  0  0
  9 10  1  0  0  0
 10 11  2  0  0  0
 11  1  1  0  0  0
 10  4  1  0  0  0
 17 12  1  0  0  0
 28 23  1  0  0  0
 43 38  1  0  0  0
 31 32  1  0  0  0
 21 22  1  0  0  0
 28 29  1  0  0  0
 35 36  1  0  0  0
 35 37  1  0  0  0
M  END
> <minimizedAffinity>
-10.40449

> <CNNscore>
0.3339978158

> <CNNaffinity>
7.0405035019

> <CNN_VS>
2.3515129089

> <CNNaffinity_variance>
0.0807734057

$$$$
[H]c1c([H])c([H])c([C@@]([H])(N([H])[H])C([H])([H])n2c(=O)c(-c3c([H])c([H])c(C(=O)N([H])c4c([H])c(C([H])([H])[H])nn4[H])c([H])c3F)c([H])c3c([H])nc(N([H])C([H])([H])[H])nc32)c([H])c1[H]


 43 47  0  0  0  0  0  0  0  0999 V2000
  157.8170  133.5473  188.9423 C   0  0  0  0  0  0  0  0  0  0  0  0
  158.3479  133.2241  187.7323 N   0  0  0  0  0  0  0  0  0  0  0  0
  157.5654  133.2296  186.6569 C   0  0  0  0  0  0  0  0  0  0  0  0
  156.2306  133.5638  186.7956 C   0  0  0  0  0  0  0  0  0  0  0  0
  155.4239  133.5803  185.6805 C   0  0  0  0  0  0  0  0  0  0  0  0
  154.0879  133.9196  185.7744 C   0  0  0  0  0  0  0  0  0  0  0  0
  153.6097  134.2380  187.0374 C   0  0  0  0  0  0  0  0  0  0  0  0
  152.4011  134.5445  187.0917 O   0  0  0  0  0  0  0  0  0  0  0  0
  154.3569  134.2337  188.1491 N   0  0  0  0  0  0  0  0  0  0  0  0
  155.6719  133.8932  188.0072 C   0  0  0  0  0  0  0  0  0  0  0  0
  156.5152  133.8707  189.0641 N   0  0  0  0  0  0  0  0  0  0  0  0
  153.2807  133.9205  184.5800 C   0  0  0  0  0  0  0  0  0  0  0  0
  152.4360  132.8738  184.2934 C   0  0  0  0  0  0  0  0  0  0  0  0
  151.6998  132.9197  183.1445 C   0  0  0  0  0  0  0  0  0  0  0  0
  151.7936  134.0056  182.2664 C   0  0  0  0  0  0  0  0  0  0  0  0
  152.6491  135.0803  182.5434 C   0  0  0  0  0  0  0  0  0  0  0  0
  153.3752  134.9972  183.7122 C   0  0  0  0  0  0  0  0  0  0  0  0
  154.1986  136.0745  183.9511 F   0  0  0  0  0  0  0  0  0  0  0  0
  151.0582  134.0712  181.0309 C   0  0  0  0  0  0  0  0  0  0  0  0
  151.5192  133.2361  180.1299 O   0  0  0  0  0  0  0  0  0  0  0  0
  149.9692  134.8713  180.6840 N   0  0  0  0  0  0  0  0  0  0  0  0
  149.5990  134.7252  179.6811 H   0  0  0  0  0  0  0  0  0  0  0  0
  149.3181  135.8240  181.4913 C   0  0  0  0  0  0  0  0  0  0  0  0
  149.2781  137.1926  181.1416 C   0  0  0  0  0  0  0  0  0  0  0  0
  148.5772  137.8313  182.1233 C   0  0  0  0  0  0  0  0  0  0  0  0
  148.2647  139.2943  182.2040 C   0  0  0  0  0  0  0  0  0  0  0  0
  148.2075  136.9241  183.0199 N   0  0  0  0  0  0  0  0  0  0  0  0
  148.6514  135.7433  182.6342 N   0  0  0  0  0  0  0  0  0  0  0  0
  148.4776  134.8855  183.1856 H   0  0  0  0  0  0  0  0  0  0  0  0
  158.4244  132.5878  191.1281 C   0  0  0  0  0  0  0  0  0  0  0  0
  158.6986  133.5256  190.0537 N   0  0  0  0  0  0  0  0  0  0  0  0
  159.5180  134.1617  190.0999 H   0  0  0  0  0  0  0  0  0  0  0  0
  153.7991  134.5618  189.4043 C   0  0  0  0  0  0  0  0  0  0  0  0
  153.7008  135.9863  189.8027 C   0  0  0  0  0  0  0  0  0  0  0  0
  155.0060  136.6058  190.0604 N   0  0  0  0  0  0  0  0  0  0  0  0
  154.8606  137.3198  190.8047 H   0  0  0  0  0  0  0  0  0  0  0  0
  155.4326  137.0245  189.2207 H   0  0  0  0  0  0  0  0  0  0  0  0
  152.7489  136.3240  190.8697 C   0  0  0  0  0  0  0  0  0  0  0  0
  151.4151  135.9992  190.7692 C   0  0  0  0  0  0  0  0  0  0  0  0
  150.5413  136.3283  191.7937 C   0  0  0  0  0  0  0  0  0  0  0  0
  150.9729  136.9799  192.9255 C   0  0  0  0  0  0  0  0  0  0  0  0
  152.3077  137.3073  193.0313 C   0  0  0  0  0  0  0  0  0  0  0  0
  153.1593  136.9743  192.0080 C   0  0  0  0  0  0  0  0  0  0  0  0
 30 31  1  0  0  0
 31  1  1  0  0  0
  1  2  2  0  0  0
  2  3  1  0  0  0
  3  4  2  0  0  0
  4  5  1  0  0  0
  5  6  2  0  0  0
  6 12  1  0  0  0
 12 13  2  0  0  0
 13 14  1  0  0  0
 14 15  2  0  0  0
 15 16  1  0  0  0
 16 17  2  0  0  0
 17 18  1  0  0  0
 15 19  1  0  0  0
 19 20  2  0  0  0
 19 21  1  0  0  0
 21 23  1  0  0  0
 23 24  2  0  0  0
 24 25  1  0  0  0
 25 26  1  0  0  0
 25 27  2  0  0  0
 27 28  1  0  0  0
  6  7  1  0  0  0
  7  8  2  0  0  0
  7  9  1  0  0  0
  9 33  1  0  0  0
 33 34  1  0  0  0
 34 35  1  0  0  0
 34 38  1  0  0  0
 38 39  2  0  0  0
 39 40  1  0  0  0
 40 41  2  0  0  0
 41 42  1  0  0  0
 42 43  2  0  0  0
  9 10  1  0  0  0
 10 11  2  0  0  0
 11  1  1  0  0  0
 10  4  1  0  0  0
 17 12  1  0  0  0
 28 23  1  0  0  0
 43 38  1  0  0  0
 31 32  1  0  0  0
 21 22  1  0  0  0
 28 29  1  0  0  0
 35 36  1  0  0  0
 35 37  1  0  0  0
M  END
> <minimizedAffinity>
-5.13297

> <CNNscore>
0.3206175864

> <CNNaffinity>
6.3831148148

> <CNN_VS>
2.0465388298

> <CNNaffinity_variance>
0.9859889746

$$$$
[H]c1c([H])c([H])c([C@@]([H])(N([H])[H])C([H])([H])n2c(=O)c(-c3c([H])c([H])c(C(=O)N([H])c4c([H])c(C([H])([H])[H])nn4[H])c([H])c3F)c([H])c3c([H])nc(N([H])C([H])([H])[H])nc32)c([H])c1[H]


 43 47  0  0  0  0  0  0  0  0999 V2000
  149.7761  138.5377  180.1823 C   0  0  0  0  0  0  0  0  0  0  0  0
  150.4532  139.4895  179.4851 N   0  0  0  0  0  0  0  0  0  0  0  0
  151.5904  139.9710  179.9789 C   0  0  0  0  0  0  0  0  0  0  0  0
  152.0564  139.4919  181.1896 C   0  0  0  0  0  0  0  0  0  0  0  0
  153.2392  139.9824  181.6946 C   0  0  0  0  0  0  0  0  0  0  0  0
  153.7451  139.5221  182.8950 C   0  0  0  0  0  0  0  0  0  0  0  0
  153.0053  138.5517  183.5556 C   0  0  0  0  0  0  0  0  0  0  0  0
  153.4879  138.1516  184.6348 O   0  0  0  0  0  0  0  0  0  0  0  0
  151.8500  138.0470  183.1030 N   0  0  0  0  0  0  0  0  0  0  0  0
  151.3898  138.5314  181.9118 C   0  0  0  0  0  0  0  0  0  0  0  0
  150.2406  138.0796  181.3606 N   0  0  0  0  0  0  0  0  0  0  0  0
  154.9860  140.0670  183.3862 C   0  0  0  0  0  0  0  0  0  0  0  0
  156.0744  139.2586  183.6164 C   0  0  0  0  0  0  0  0  0  0  0  0
  157.2235  139.8234  184.0903 C   0  0  0  0  0  0  0  0  0  0  0  0
  157.3056  141.1980  184.3411 C   0  0  0  0  0  0  0  0  0  0  0  0
  156.2061  142.0359  184.1118 C   0  0  0  0  0  0  0  0  0  0  0  0
  155.0647  141.4286  183.6335 C   0  0  0  0  0  0  0  0  0  0  0  0
  154.0098  142.2859  183.4157 F   0  0  0  0  0  0  0  0  0  0  0  0
  158.4892  141.8213  184.8723 C   0  0  0  0  0  0  0  0  0  0  0  0
  158.7689  141.4098  186.0863 O   0  0  0  0  0  0  0  0  0  0  0  0
  159.3377  142.7632  184.2897 N   0  0  0  0  0  0  0  0  0  0  0  0
  160.1654  143.0734  184.9084 H   0  0  0  0  0  0  0  0  0  0  0  0
  159.2280  143.3329  183.0064 C   0  0  0  0  0  0  0  0  0  0  0  0
  159.1492  142.5351  181.8426 C   0  0  0  0  0  0  0  0  0  0  0  0
  159.0498  143.3900  180.7832 C   0  0  0  0  0  0  0  0  0  0  0  0
  158.9417  143.0241  179.3345 C   0  0  0  0  0  0  0  0  0  0  0  0
  159.0657  144.6314  181.2549 N   0  0  0  0  0  0  0  0  0  0  0  0
  159.1710  144.5829  182.5689 N   0  0  0  0  0  0  0  0  0  0  0  0
  159.2016  145.4393  183.1483 H   0  0  0  0  0  0  0  0  0  0  0  0
  147.3190  138.6492  180.0506 C   0  0  0  0  0  0  0  0  0  0  0  0
  148.5702  138.0604  179.6070 N   0  0  0  0  0  0  0  0  0  0  0  0
  148.5794  137.3109  178.8884 H   0  0  0  0  0  0  0  0  0  0  0  0
  151.1465  137.0651  183.8347 C   0  0  0  0  0  0  0  0  0  0  0  0
  151.1600  135.6607  183.3601 C   0  0  0  0  0  0  0  0  0  0  0  0
  150.4653  134.7380  184.2653 N   0  0  0  0  0  0  0  0  0  0  0  0
  150.9536  133.8205  184.1958 H   0  0  0  0  0  0  0  0  0  0  0  0
  149.4601  134.6416  184.0583 H   0  0  0  0  0  0  0  0  0  0  0  0
  152.4537  135.1015  182.9452 C   0  0  0  0  0  0  0  0  0  0  0  0
  153.4306  134.7962  183.8655 C   0  0  0  0  0  0  0  0  0  0  0  0
  154.6405  134.2669  183.4441 C   0  0  0  0  0  0  0  0  0  0  0  0
  154.8989  134.0338  182.1134 C   0  0  0  0  0  0  0  0  0  0  0  0
  153.9239  134.3376  181.1876 C   0  0  0  0  0  0  0  0  0  0  0  0
  152.7319  134.8610  181.6216 C   0  0  0  0  0  0  0  0  0  0  0  0
 30 31  1  0  0  0
 31  1  1  0  0  0
  1  2  2  0  0  0
  2  3  1  0  0  0
  3  4  2  0  0  0
  4  5  1  0  0  0
  5  6  2  0  0  0
  6 12  1  0  0  0
 12 13  2  0  0  0
 13 14  1  0  0  0
 14 15  2  0  0  0
 15 16  1  0  0  0
 16 17  2  0  0  0
 17 18  1  0  0  0
 15 19  1  0  0  0
 19 20  2  0  0  0
 19 21  1  0  0  0
 21 23  1  0  0  0
 23 24  2  0  0  0
 24 25  1  0  0  0
 25 26  1  0  0  0
 25 27  2  0  0  0
 27 28  1  0  0  0
  6  7  1  0  0  0
  7  8  2  0  0  0
  7  9  1  0  0  0
  9 33  1  0  0  0
 33 34  1  0  0  0
 34 35  1  0  0  0
 34 38  1  0  0  0
 38 39  2  0  0  0
 39 40  1  0  0  0
 40 41  2  0  0  0
 41 42  1  0  0  0
 42 43  2  0  0  0
  9 10  1  0  0  0
 10 11  2  0  0  0
 11  1  1  0  0  0
 10  4  1  0  0  0
 17 12  1  0  0  0
 28 23  1  0  0  0
 43 38  1  0  0  0
 31 32  1  0  0  0
 21 22  1  0  0  0
 28 29  1  0  0  0
 35 36  1  0  0  0
 35 37  1  0  0  0
M  END
> <minimizedAffinity>
-8.77127

> <CNNscore>
0.3163926601

> <CNNaffinity>
6.8580040932

> <CNN_VS>
2.1698222160

> <CNNaffinity_variance>
0.1782736927

$$$$
[H]c1c([H])c([H])c([C@@]([H])(N([H])[H])C([H])([H])n2c(=O)c(-c3c([H])c([H])c(C(=O)N([H])c4c([H])c(C([H])([H])[H])nn4[H])c([H])c3F)c([H])c3c([H])nc(N([H])C([H])([H])[H])nc32)c([H])c1[H]


 43 47  0  0  0  0  0  0  0  0999 V2000
  151.6405  136.6795  186.9333 C   0  0  0  0  0  0  0  0  0  0  0  0
  152.5301  137.2116  187.8142 N   0  0  0  0  0  0  0  0  0  0  0  0
  153.4909  138.0131  187.3632 C   0  0  0  0  0  0  0  0  0  0  0  0
  153.5618  138.2856  186.0092 C   0  0  0  0  0  0  0  0  0  0  0  0
  154.5495  139.1242  185.5447 C   0  0  0  0  0  0  0  0  0  0  0  0
  154.6480  139.4309  184.2011 C   0  0  0  0  0  0  0  0  0  0  0  0
  153.7099  138.8547  183.3566 C   0  0  0  0  0  0  0  0  0  0  0  0
  153.8204  139.1525  182.1497 O   0  0  0  0  0  0  0  0  0  0  0  0
  152.7337  138.0328  183.7638 N   0  0  0  0  0  0  0  0  0  0  0  0
  152.6750  137.7595  185.1007 C   0  0  0  0  0  0  0  0  0  0  0  0
  151.7205  136.9526  185.6169 N   0  0  0  0  0  0  0  0  0  0  0  0
  155.7006  140.3116  183.7600 C   0  0  0  0  0  0  0  0  0  0  0  0
  156.9528  139.8276  183.4622 C   0  0  0  0  0  0  0  0  0  0  0  0
  157.9170  140.7053  183.0571 C   0  0  0  0  0  0  0  0  0  0  0  0
  157.6490  142.0743  182.9427 C   0  0  0  0  0  0  0  0  0  0  0  0
  156.3785  142.5840  183.2420 C   0  0  0  0  0  0  0  0  0  0  0  0
  155.4325  141.6669  183.6473 C   0  0  0  0  0  0  0  0  0  0  0  0
  154.1967  142.2059  183.9258 F   0  0  0  0  0  0  0  0  0  0  0  0
  158.6500  143.0317  182.5515 C   0  0  0  0  0  0  0  0  0  0  0  0
  158.4397  143.5114  181.3485 O   0  0  0  0  0  0  0  0  0  0  0  0
  159.7634  143.4937  183.2539 N   0  0  0  0  0  0  0  0  0  0  0  0
  160.3631  144.2204  182.7282 H   0  0  0  0  0  0  0  0  0  0  0  0
  160.1715  143.1195  184.5489 C   0  0  0  0  0  0  0  0  0  0  0  0
  161.5217  143.2057  184.9571 C   0  0  0  0  0  0  0  0  0  0  0  0
  161.5717  142.7749  186.2514 C   0  0  0  0  0  0  0  0  0  0  0  0
  162.7849  142.6792  187.1251 C   0  0  0  0  0  0  0  0  0  0  0  0
  160.3398  142.4444  186.6216 N   0  0  0  0  0  0  0  0  0  0  0  0
  159.5233  142.6531  185.6068 N   0  0  0  0  0  0  0  0  0  0  0  0
  158.5085  142.4630  185.6718 H   0  0  0  0  0  0  0  0  0  0  0  0
  149.2944  135.9291  186.9258 C   0  0  0  0  0  0  0  0  0  0  0  0
  150.6369  135.8328  187.4709 N   0  0  0  0  0  0  0  0  0  0  0  0
  150.8541  135.1619  188.2332 H   0  0  0  0  0  0  0  0  0  0  0  0
  151.8178  137.4763  182.8443 C   0  0  0  0  0  0  0  0  0  0  0  0
  150.5340  138.1726  182.5899 C   0  0  0  0  0  0  0  0  0  0  0  0
  149.4029  137.5828  183.3152 N   0  0  0  0  0  0  0  0  0  0  0  0
  148.5587  137.7160  182.7198 H   0  0  0  0  0  0  0  0  0  0  0  0
  149.2642  137.9859  184.2538 H   0  0  0  0  0  0  0  0  0  0  0  0
  150.1722  138.4296  181.1893 C   0  0  0  0  0  0  0  0  0  0  0  0
  149.1896  137.7015  180.5578 C   0  0  0  0  0  0  0  0  0  0  0  0
  148.8682  137.9689  179.2362 C   0  0  0  0  0  0  0  0  0  0  0  0
  149.5112  138.9552  178.5252 C   0  0  0  0  0  0  0  0  0  0  0  0
  150.4960  139.6875  179.1530 C   0  0  0  0  0  0  0  0  0  0  0  0
  150.8020  139.4099  180.4615 C   0  0  0  0  0  0  0  0  0  0  0  0
 30 31  1  0  0  0
 31  1  1  0  0  0
  1  2  2  0  0  0
  2  3  1  0  0  0
  3  4  2  0  0  0
  4  5  1  0  0  0
  5  6  2  0  0  0
  6 12  1  0  0  0
 12 13  2  0  0  0
 13 14  1  0  0  0
 14 15  2  0  0  0
 15 16  1  0  0  0
 16 17  2  0  0  0
 17 18  1  0  0  0
 15 19  1  0  0  0
 19 20  2  0  0  0
 19 21  1  0  0  0
 21 23  1  0  0  0
 23 24  2  0  0  0
 24 25  1  0  0  0
 25 26  1  0  0  0
 25 27  2  0  0  0
 27 28  1  0  0  0
  6  7  1  0  0  0
  7  8  2  0  0  0
  7  9  1  0  0  0
  9 33  1  0  0  0
 33 34  1  0  0  0
 34 35  1  0  0  0
 34 38  1  0  0  0
 38 39  2  0  0  0
 39 40  1  0  0  0
 40 41  2  0  0  0
 41 42  1  0  0  0
 42 43  2  0  0  0
  9 10  1  0  0  0
 10 11  2  0  0  0
 11  1  1  0  0  0
 10  4  1  0  0  0
 17 12  1  0  0  0
 28 23  1  0  0  0
 43 38  1  0  0  0
 31 32  1  0  0  0
 21 22  1  0  0  0
 28 29  1  0  0  0
 35 36  1  0  0  0
 35 37  1  0  0  0
M  END
> <minimizedAffinity>
-9.75443

> <CNNscore>
0.2514477670

> <CNNaffinity>
6.7757177353

> <CNN_VS>
1.7037390471

> <CNNaffinity_variance>
0.1620062888

$$$$
[H]c1c([H])c([H])c([C@@]([H])(N([H])[H])C([H])([H])n2c(=O)c(-c3c([H])c([H])c(C(=O)N([H])c4c([H])c(C([H])([H])[H])nn4[H])c([H])c3F)c([H])c3c([H])nc(N([H])C([H])([H])[H])nc32)c([H])c1[H]


 43 47  0  0  0  0  0  0  0  0999 V2000
  153.3266  136.1639  191.0109 C   0  0  0  0  0  0  0  0  0  0  0  0
  153.6255  137.4747  191.2180 N   0  0  0  0  0  0  0  0  0  0  0  0
  154.0837  138.2046  190.2050 C   0  0  0  0  0  0  0  0  0  0  0  0
  154.2452  137.6125  188.9657 C   0  0  0  0  0  0  0  0  0  0  0  0
  154.7088  138.3713  187.9151 C   0  0  0  0  0  0  0  0  0  0  0  0
  154.8734  137.8208  186.6586 C   0  0  0  0  0  0  0  0  0  0  0  0
  154.5508  136.4789  186.5155 C   0  0  0  0  0  0  0  0  0  0  0  0
  154.7052  136.0096  185.3694 O   0  0  0  0  0  0  0  0  0  0  0  0
  154.0985  135.7026  187.5089 N   0  0  0  0  0  0  0  0  0  0  0  0
  153.9506  136.2905  188.7328 C   0  0  0  0  0  0  0  0  0  0  0  0
  153.4886  135.5990  189.7990 N   0  0  0  0  0  0  0  0  0  0  0  0
  155.3644  138.6533  185.5890 C   0  0  0  0  0  0  0  0  0  0  0  0
  156.6894  139.0154  185.5226 C   0  0  0  0  0  0  0  0  0  0  0  0
  157.1014  139.8128  184.4937 C   0  0  0  0  0  0  0  0  0  0  0  0
  156.2026  140.2599  183.5184 C   0  0  0  0  0  0  0  0  0  0  0  0
  154.8493  139.8999  183.5710 C   0  0  0  0  0  0  0  0  0  0  0  0
  154.4723  139.0944  184.6242 C   0  0  0  0  0  0  0  0  0  0  0  0
  153.1373  138.7584  184.6370 F   0  0  0  0  0  0  0  0  0  0  0  0
  156.5954  141.1283  182.4398 C   0  0  0  0  0  0  0  0  0  0  0  0
  155.6304  141.3133  181.5703 O   0  0  0  0  0  0  0  0  0  0  0  0
  157.8134  141.7688  182.2105 N   0  0  0  0  0  0  0  0  0  0  0  0
  157.8488  142.3711  181.3160 H   0  0  0  0  0  0  0  0  0  0  0  0
  158.9713  141.7130  183.0102 C   0  0  0  0  0  0  0  0  0  0  0  0
  159.1763  142.6065  184.0857 C   0  0  0  0  0  0  0  0  0  0  0  0
  160.3783  142.2825  184.6453 C   0  0  0  0  0  0  0  0  0  0  0  0
  161.0367  142.9443  185.8171 C   0  0  0  0  0  0  0  0  0  0  0  0
  160.8848  141.2599  183.9660 N   0  0  0  0  0  0  0  0  0  0  0  0
  160.0437  140.9337  183.0037 N   0  0  0  0  0  0  0  0  0  0  0  0
  160.2363  140.1580  182.3469 H   0  0  0  0  0  0  0  0  0  0  0  0
  151.9497  134.3152  191.8793 C   0  0  0  0  0  0  0  0  0  0  0  0
  152.8409  135.4348  192.1269 N   0  0  0  0  0  0  0  0  0  0  0  0
  153.1137  135.6927  193.0951 H   0  0  0  0  0  0  0  0  0  0  0  0
  153.7976  134.3402  187.2909 C   0  0  0  0  0  0  0  0  0  0  0  0
  154.9049  133.3830  187.0552 C   0  0  0  0  0  0  0  0  0  0  0  0
  154.4945  131.9804  187.1874 N   0  0  0  0  0  0  0  0  0  0  0  0
  155.3184  131.4567  187.5505 H   0  0  0  0  0  0  0  0  0  0  0  0
  154.1510  131.5701  186.3063 H   0  0  0  0  0  0  0  0  0  0  0  0
  156.1663  133.6219  187.7696 C   0  0  0  0  0  0  0  0  0  0  0  0
  157.2651  134.1465  187.1279 C   0  0  0  0  0  0  0  0  0  0  0  0
  158.4408  134.3636  187.8293 C   0  0  0  0  0  0  0  0  0  0  0  0
  158.5449  134.0661  189.1681 C   0  0  0  0  0  0  0  0  0  0  0  0
  157.4473  133.5407  189.8157 C   0  0  0  0  0  0  0  0  0  0  0  0
  156.2911  133.3319  189.1066 C   0  0  0  0  0  0  0  0  0  0  0  0
 30 31  1  0  0  0
 31  1  1  0  0  0
  1  2  2  0  0  0
  2  3  1  0  0  0
  3  4  2  0  0  0
  4  5  1  0  0  0
  5  6  2  0  0  0
  6 12  1  0  0  0
 12 13  2  0  0  0
 13 14  1  0  0  0
 14 15  2  0  0  0
 15 16  1  0  0  0
 16 17  2  0  0  0
 17 18  1  0  0  0
 15 19  1  0  0  0
 19 20  2  0  0  0
 19 21  1  0  0  0
 21 23  1  0  0  0
 23 24  2  0  0  0
 24 25  1  0  0  0
 25 26  1  0  0  0
 25 27  2  0  0  0
 27 28  1  0  0  0
  6  7  1  0  0  0
  7  8  2  0  0  0
  7  9  1  0  0  0
  9 33  1  0  0  0
 33 34  1  0  0  0
 34 35  1  0  0  0
 34 38  1  0  0  0
 38 39  2  0  0  0
 39 40  1  0  0  0
 40 41  2  0  0  0
 41 42  1  0  0  0
 42 43  2  0  0  0
  9 10  1  0  0  0
 10 11  2  0  0  0
 11  1  1  0  0  0
 10  4  1  0  0  0
 17 12  1  0  0  0
 28 23  1  0  0  0
 43 38  1  0  0  0
 31 32  1  0  0  0
 21 22  1  0  0  0
 28 29  1  0  0  0
 35 36  1  0  0  0
 35 37  1  0  0  0
M  END
> <minimizedAffinity>
-8.00025

> <CNNscore>
0.2320775241

> <CNNaffinity>
6.5743789673

> <CNN_VS>
1.5257655382

> <CNNaffinity_variance>
0.1707533002

$$$$
[H]c1c([H])c([H])c([C@@]([H])(N([H])[H])C([H])([H])n2c(=O)c(-c3c([H])c([H])c(C(=O)N([H])c4c([H])c(C([H])([H])[H])nn4[H])c([H])c3F)c([H])c3c([H])nc(N([H])C([H])([H])[H])nc32)c([H])c1[H]


 43 47  0  0  0  0  0  0  0  0999 V2000
  150.4113  138.1912  181.8831 C   0  0  0  0  0  0  0  0  0  0  0  0
  150.4598  139.1458  180.9152 N   0  0  0  0  0  0  0  0  0  0  0  0
  151.5029  139.9695  180.8665 C   0  0  0  0  0  0  0  0  0  0  0  0
  152.5128  139.8350  181.8017 C   0  0  0  0  0  0  0  0  0  0  0  0
  153.5975  140.6804  181.7438 C   0  0  0  0  0  0  0  0  0  0  0  0
  154.6329  140.5718  182.6521 C   0  0  0  0  0  0  0  0  0  0  0  0
  154.5210  139.5778  183.6137 C   0  0  0  0  0  0  0  0  0  0  0  0
  155.4721  139.5002  184.4180 O   0  0  0  0  0  0  0  0  0  0  0  0
  153.4845  138.7347  183.7087 N   0  0  0  0  0  0  0  0  0  0  0  0
  152.4856  138.8790  182.7885 C   0  0  0  0  0  0  0  0  0  0  0  0
  151.4014  138.0708  182.7883 N   0  0  0  0  0  0  0  0  0  0  0  0
  155.7473  141.4811  182.5546 C   0  0  0  0  0  0  0  0  0  0  0  0
  156.9502  141.0753  182.0258 C   0  0  0  0  0  0  0  0  0  0  0  0
  157.9769  141.9732  181.9644 C   0  0  0  0  0  0  0  0  0  0  0  0
  157.8212  143.2849  182.4270 C   0  0  0  0  0  0  0  0  0  0  0  0
  156.6022  143.7148  182.9684 C   0  0  0  0  0  0  0  0  0  0  0  0
  155.5904  142.7796  183.0132 C   0  0  0  0  0  0  0  0  0  0  0  0
  154.4082  143.2422  183.5458 F   0  0  0  0  0  0  0  0  0  0  0  0
  158.8914  144.2473  182.4086 C   0  0  0  0  0  0  0  0  0  0  0  0
  158.7829  145.0965  181.4144 O   0  0  0  0  0  0  0  0  0  0  0  0
  159.9788  144.3866  183.2715 N   0  0  0  0  0  0  0  0  0  0  0  0
  160.6463  145.2003  183.0338 H   0  0  0  0  0  0  0  0  0  0  0  0
  160.2838  143.5947  184.3955 C   0  0  0  0  0  0  0  0  0  0  0  0
  161.4474  143.8147  185.1667 C   0  0  0  0  0  0  0  0  0  0  0  0
  161.4384  142.8882  186.1690 C   0  0  0  0  0  0  0  0  0  0  0  0
  162.4637  142.7146  187.2475 C   0  0  0  0  0  0  0  0  0  0  0  0
  160.3466  142.1449  186.0308 N   0  0  0  0  0  0  0  0  0  0  0  0
  159.6741  142.5731  184.9799 N   0  0  0  0  0  0  0  0  0  0  0  0
  158.7842  142.1367  184.6836 H   0  0  0  0  0  0  0  0  0  0  0  0
  148.7578  136.8927  183.1666 C   0  0  0  0  0  0  0  0  0  0  0  0
  149.2757  137.3407  181.8859 N   0  0  0  0  0  0  0  0  0  0  0  0
  148.8255  137.0453  180.9980 H   0  0  0  0  0  0  0  0  0  0  0  0
  153.4348  137.7508  184.7206 C   0  0  0  0  0  0  0  0  0  0  0  0
  153.0766  138.1510  186.1024 C   0  0  0  0  0  0  0  0  0  0  0  0
  154.2459  138.3884  186.9567 N   0  0  0  0  0  0  0  0  0  0  0  0
  153.9731  138.1189  187.9252 H   0  0  0  0  0  0  0  0  0  0  0  0
  154.5864  139.3608  186.9226 H   0  0  0  0  0  0  0  0  0  0  0  0
  152.0810  137.3305  186.8053 C   0  0  0  0  0  0  0  0  0  0  0  0
  152.3766  136.7106  187.9981 C   0  0  0  0  0  0  0  0  0  0  0  0
  151.4155  135.9451  188.6397 C   0  0  0  0  0  0  0  0  0  0  0  0
  150.1554  135.7833  188.1126 C   0  0  0  0  0  0  0  0  0  0  0  0
  149.8540  136.4022  186.9183 C   0  0  0  0  0  0  0  0  0  0  0  0
  150.8170  137.1563  186.2962 C   0  0  0  0  0  0  0  0  0  0  0  0
 30 31  1  0  0  0
 31  1  1  0  0  0
  1  2  2  0  0  0
  2  3  1  0  0  0
  3  4  2  0  0  0
  4  5  1  0  0  0
  5  6  2  0  0  0
  6 12  1  0  0  0
 12 13  2  0  0  0
 13 14  1  0  0  0
 14 15  2  0  0  0
 15 16  1  0  0  0
 16 17  2  0  0  0
 17 18  1  0  0  0
 15 19  1  0  0  0
 19 20  2  0  0  0
 19 21  1  0  0  0
 21 23  1  0  0  0
 23 24  2  0  0  0
 24 25  1  0  0  0
 25 26  1  0  0  0
 25 27  2  0  0  0
 27 28  1  0  0  0
  6  7  1  0  0  0
  7  8  2  0  0  0
  7  9  1  0  0  0
  9 33  1  0  0  0
 33 34  1  0  0  0
 34 35  1  0  0  0
 34 38  1  0  0  0
 38 39  2  0  0  0
 39 40  1  0  0  0
 40 41  2  0  0  0
 41 42  1  0  0  0
 42 43  2  0  0  0
  9 10  1  0  0  0
 10 11  2  0  0  0
 11  1  1  0  0  0
 10  4  1  0  0  0
 17 12  1  0  0  0
 28 23  1  0  0  0
 43 38  1  0  0  0
 31 32  1  0  0  0
 21 22  1  0  0  0
 28 29  1  0  0  0
 35 36  1  0  0  0
 35 37  1  0  0  0
M  END
> <minimizedAffinity>
-9.36449

> <CNNscore>
0.2243585140

> <CNNaffinity>
6.7568793297

> <CNN_VS>
1.5159634352

> <CNNaffinity_variance>
0.1453174353

$$$$
[H]c1c([H])c([H])c([C@@]([H])(N([H])[H])C([H])([H])n2c(=O)c(-c3c([H])c([H])c(C(=O)N([H])c4c([H])c(C([H])([H])[H])nn4[H])c([H])c3F)c([H])c3c([H])nc(N([H])C([H])([H])[H])nc32)c([H])c1[H]


 43 47  0  0  0  0  0  0  0  0999 V2000
  150.3929  138.3109  181.5657 C   0  0  0  0  0  0  0  0  0  0  0  0
  150.4648  139.2796  180.6133 N   0  0  0  0  0  0  0  0  0  0  0  0
  151.5129  140.0982  180.5968 C   0  0  0  0  0  0  0  0  0  0  0  0
  152.5040  139.9443  181.5490 C   0  0  0  0  0  0  0  0  0  0  0  0
  153.5939  140.7846  181.5245 C   0  0  0  0  0  0  0  0  0  0  0  0
  154.6111  140.6570  182.4507 C   0  0  0  0  0  0  0  0  0  0  0  0
  154.4757  139.6494  183.3950 C   0  0  0  0  0  0  0  0  0  0  0  0
  155.4109  139.5546  184.2160 O   0  0  0  0  0  0  0  0  0  0  0  0
  153.4332  138.8106  183.4576 N   0  0  0  0  0  0  0  0  0  0  0  0
  152.4529  138.9739  182.5208 C   0  0  0  0  0  0  0  0  0  0  0  0
  151.3648  138.1717  182.4877 N   0  0  0  0  0  0  0  0  0  0  0  0
  155.7319  141.5615  182.3881 C   0  0  0  0  0  0  0  0  0  0  0  0
  156.9498  141.1497  181.9001 C   0  0  0  0  0  0  0  0  0  0  0  0
  157.9816  142.0434  181.8706 C   0  0  0  0  0  0  0  0  0  0  0  0
  157.8162  143.3568  182.3252 C   0  0  0  0  0  0  0  0  0  0  0  0
  156.5818  143.7927  182.8252 C   0  0  0  0  0  0  0  0  0  0  0  0
  155.5652  142.8617  182.8387 C   0  0  0  0  0  0  0  0  0  0  0  0
  154.3680  143.3302  183.3311 F   0  0  0  0  0  0  0  0  0  0  0  0
  158.8903  144.3147  182.3401 C   0  0  0  0  0  0  0  0  0  0  0  0
  158.8084  145.1729  181.3510 O   0  0  0  0  0  0  0  0  0  0  0  0
  159.9578  144.4422  183.2293 N   0  0  0  0  0  0  0  0  0  0  0  0
  160.6339  145.2551  183.0143 H   0  0  0  0  0  0  0  0  0  0  0  0
  160.2333  143.6395  184.3532 C   0  0  0  0  0  0  0  0  0  0  0  0
  161.4057  143.8141  185.1226 C   0  0  0  0  0  0  0  0  0  0  0  0
  161.3621  142.8891  186.1253 C   0  0  0  0  0  0  0  0  0  0  0  0
  162.3814  142.6760  187.2024 C   0  0  0  0  0  0  0  0  0  0  0  0
  160.2419  142.1889  185.9891 N   0  0  0  0  0  0  0  0  0  0  0  0
  159.5850  142.6426  184.9390 N   0  0  0  0  0  0  0  0  0  0  0  0
  158.6783  142.2412  184.6442 H   0  0  0  0  0  0  0  0  0  0  0  0
  149.4280  136.0657  181.8741 C   0  0  0  0  0  0  0  0  0  0  0  0
  149.2531  137.4666  181.5341 N   0  0  0  0  0  0  0  0  0  0  0  0
  148.3185  137.8379  181.2753 H   0  0  0  0  0  0  0  0  0  0  0  0
  153.3591  137.8120  184.4534 C   0  0  0  0  0  0  0  0  0  0  0  0
  152.8305  136.4733  184.0983 C   0  0  0  0  0  0  0  0  0  0  0  0
  151.6113  136.1195  184.8344 N   0  0  0  0  0  0  0  0  0  0  0  0
  151.6264  135.0864  184.9666 H   0  0  0  0  0  0  0  0  0  0  0  0
  150.7464  136.4219  184.3622 H   0  0  0  0  0  0  0  0  0  0  0  0
  153.7791  135.3515  184.1001 C   0  0  0  0  0  0  0  0  0  0  0  0
  154.2198  134.7876  185.2758 C   0  0  0  0  0  0  0  0  0  0  0  0
  155.1130  133.7279  185.2456 C   0  0  0  0  0  0  0  0  0  0  0  0
  155.5799  133.2146  184.0581 C   0  0  0  0  0  0  0  0  0  0  0  0
  155.1416  133.7756  182.8777 C   0  0  0  0  0  0  0  0  0  0  0  0
  154.2574  134.8240  182.9253 C   0  0  0  0  0  0  0  0  0  0  0  0
 30 31  1  0  0  0
 31  1  1  0  0  0
  1  2  2  0  0  0
  2  3  1  0  0  0
  3  4  2  0  0  0
  4  5  1  0  0  0
  5  6  2  0  0  0
  6 12  1  0  0  0
 12 13  2  0  0  0
 13 14  1  0  0  0
 14 15  2  0  0  0
 15 16  1  0  0  0
 16 17  2  0  0  0
 17 18  1  0  0  0
 15 19  1  0  0  0
 19 20  2  0  0  0
 19 21  1  0  0  0
 21 23  1  0  0  0
 23 24  2  0  0  0
 24 25  1  0  0  0
 25 26  1  0  0  0
 25 27  2  0  0  0
 27 28  1  0  0  0
  6  7  1  0  0  0
  7  8  2  0  0  0
  7  9  1  0  0  0
  9 33  1  0  0  0
 33 34  1  0  0  0
 34 35  1  0  0  0
 34 38  1  0  0  0
 38 39  2  0  0  0
 39 40  1  0  0  0
 40 41  2  0  0  0
 41 42  1  0  0  0
 42 43  2  0  0  0
  9 10  1  0  0  0
 10 11  2  0  0  0
 11  1  1  0  0  0
 10  4  1  0  0  0
 17 12  1  0  0  0
 28 23  1  0  0  0
 43 38  1  0  0  0
 31 32  1  0  0  0
 21 22  1  0  0  0
 28 29  1  0  0  0
 35 36  1  0  0  0
 35 37  1  0  0  0
M  END
> <minimizedAffinity>
-9.22385

> <CNNscore>
0.2105505913

> <CNNaffinity>
6.7942743301

> <CNN_VS>
1.4305385351

> <CNNaffinity_variance>
0.0977070108

$$$$
[H]c1c([H])c(N([H])C(=O)N2C([H])([H])C([H])([H])OC([H])([H])C2([H])[H])c([H])c([H])c1Oc1c([H])c(F)c(S(=O)(=O)N([H])[H])c([H])c1F


 31 33  0  0  0  0  0  0  0  0999 V2000
  153.5759  138.1140  185.4603 C   0  0  0  0  0  0  0  0  0  0  0  0
  153.8514  138.3356  184.1299 C   0  0  0  0  0  0  0  0  0  0  0  0
  152.9510  137.9946  183.1478 C   0  0  0  0  0  0  0  0  0  0  0  0
  151.7049  137.4050  183.4142 C   0  0  0  0  0  0  0  0  0  0  0  0
  151.4517  137.1922  184.7467 C   0  0  0  0  0  0  0  0  0  0  0  0
  152.3595  137.5353  185.7568 C   0  0  0  0  0  0  0  0  0  0  0  0
  150.8669  137.0826  182.3356 N   0  0  0  0  0  0  0  0  0  0  0  0
  150.3366  137.9346  181.3732 C   0  0  0  0  0  0  0  0  0  0  0  0
  150.5924  139.1877  181.3889 O   0  0  0  0  0  0  0  0  0  0  0  0
  149.4954  137.5352  180.3192 N   0  0  0  0  0  0  0  0  0  0  0  0
  148.9553  138.4828  179.3382 C   0  0  0  0  0  0  0  0  0  0  0  0
  147.5506  137.9809  179.0395 C   0  0  0  0  0  0  0  0  0  0  0  0
  146.9918  137.3181  180.1290 O   0  0  0  0  0  0  0  0  0  0  0  0
  147.6069  136.1079  180.4237 C   0  0  0  0  0  0  0  0  0  0  0  0
  149.1053  136.1689  180.1302 C   0  0  0  0  0  0  0  0  0  0  0  0
  150.5972  136.0543  182.2491 H   0  0  0  0  0  0  0  0  0  0  0  0
  154.4767  138.4577  186.4579 O   0  0  0  0  0  0  0  0  0  0  0  0
  155.3707  136.5428  190.0130 C   0  0  0  0  0  0  0  0  0  0  0  0
  155.5854  135.8860  188.8321 C   0  0  0  0  0  0  0  0  0  0  0  0
  155.2836  136.5314  187.6209 C   0  0  0  0  0  0  0  0  0  0  0  0
  155.5075  135.8597  186.4670 F   0  0  0  0  0  0  0  0  0  0  0  0
  154.7813  137.7974  187.5901 C   0  0  0  0  0  0  0  0  0  0  0  0
  154.5737  138.4394  188.8017 C   0  0  0  0  0  0  0  0  0  0  0  0
  154.8612  137.8284  189.9924 C   0  0  0  0  0  0  0  0  0  0  0  0
  154.6416  138.4955  191.1498 F   0  0  0  0  0  0  0  0  0  0  0  0
  154.2467  135.6967  192.4690 N   0  0  0  0  0  0  0  0  0  0  0  0
  155.7198  135.8098  191.5528 S   0  0  0  0  0  0  0  0  0  0  0  0
  156.2741  134.4206  191.3410 O   0  0  0  0  0  0  0  0  0  0  0  0
  156.7105  136.6029  192.3394 O   0  0  0  0  0  0  0  0  0  0  0  0
  154.1806  136.5922  193.0335 H   0  0  0  0  0  0  0  0  0  0  0  0
  153.4527  135.6462  191.7953 H   0  0  0  0  0  0  0  0  0  0  0  0
 26 27  1  0  0  0
 27 28  2  0  0  0
 27 29  2  0  0  0
 27 18  1  0  0  0
 18 19  2  0  0  0
 19 20  1  0  0  0
 20 21  1  0  0  0
 20 22  2  0  0  0
 22 17  1  0  0  0
 17  1  1  0  0  0
  1  2  2  0  0  0
  2  3  1  0  0  0
  3  4  2  0  0  0
  4  7  1  0  0  0
  7  8  1  0  0  0
  8  9  2  0  0  0
  8 10  1  0  0  0
 10 11  1  0  0  0
 11 12  1  0  0  0
 12 13  1  0  0  0
 13 14  1  0  0  0
 14 15  1  0  0  0
  4  5  1  0  0  0
  5  6  2  0  0  0
 22 23  1  0  0  0
 23 24  2  0  0  0
 24 25  1  0  0  0
 24 18  1  0  0  0
  6  1  1  0  0  0
 15 10  1  0  0  0
 26 30  1  0  0  0
 26 31  1  0  0  0
  7 16  1  0  0  0
M  END
> <minimizedAffinity>
-5.76145

> <CNNscore>
0.3115189373

> <CNNaffinity>
5.1270599365

> <CNN_VS>
1.5971763134

> <CNNaffinity_variance>
0.1142850369

$$$$
[H]c1c([H])c(N([H])C(=O)N2C([H])([H])C([H])([H])OC([H])([H])C2([H])[H])c([H])c([H])c1Oc1c([H])c(F)c(S(=O)(=O)N([H])[H])c([H])c1F


 31 33  0  0  0  0  0  0  0  0999 V2000
  155.4574  138.4898  185.6167 C   0  0  0  0  0  0  0  0  0  0  0  0
  154.6048  138.1996  184.5756 C   0  0  0  0  0  0  0  0  0  0  0  0
  153.5296  137.3591  184.7463 C   0  0  0  0  0  0  0  0  0  0  0  0
  153.2198  136.7408  185.9682 C   0  0  0  0  0  0  0  0  0  0  0  0
  154.0835  137.0432  186.9917 C   0  0  0  0  0  0  0  0  0  0  0  0
  155.1815  137.8979  186.8316 C   0  0  0  0  0  0  0  0  0  0  0  0
  152.1067  135.8881  186.0295 N   0  0  0  0  0  0  0  0  0  0  0  0
  150.7868  136.2154  186.3189 C   0  0  0  0  0  0  0  0  0  0  0  0
  150.4467  137.4224  186.5708 O   0  0  0  0  0  0  0  0  0  0  0  0
  149.7212  135.2986  186.3664 N   0  0  0  0  0  0  0  0  0  0  0  0
  148.3479  135.7009  186.6896 C   0  0  0  0  0  0  0  0  0  0  0  0
  147.7833  134.5486  187.5067 C   0  0  0  0  0  0  0  0  0  0  0  0
  148.7741  133.8853  188.2256 O   0  0  0  0  0  0  0  0  0  0  0  0
  149.6678  133.1813  187.4286 C   0  0  0  0  0  0  0  0  0  0  0  0
  149.9043  133.9017  186.1020 C   0  0  0  0  0  0  0  0  0  0  0  0
  152.3013  134.8572  185.8370 H   0  0  0  0  0  0  0  0  0  0  0  0
  156.5425  139.3390  185.4545 O   0  0  0  0  0  0  0  0  0  0  0  0
  157.7119  141.3464  182.0330 C   0  0  0  0  0  0  0  0  0  0  0  0
  158.6143  140.5404  182.6718 C   0  0  0  0  0  0  0  0  0  0  0  0
  158.2229  139.8557  183.8348 C   0  0  0  0  0  0  0  0  0  0  0  0
  159.1345  139.0632  184.4458 F   0  0  0  0  0  0  0  0  0  0  0  0
  156.9653  139.9729  184.3455 C   0  0  0  0  0  0  0  0  0  0  0  0
  156.0714  140.7965  183.6777 C   0  0  0  0  0  0  0  0  0  0  0  0
  156.4328  141.4721  182.5434 C   0  0  0  0  0  0  0  0  0  0  0  0
  155.5251  142.2645  181.9263 F   0  0  0  0  0  0  0  0  0  0  0  0
  157.3905  141.4379  179.2223 N   0  0  0  0  0  0  0  0  0  0  0  0
  158.1223  142.2263  180.5880 S   0  0  0  0  0  0  0  0  0  0  0  0
  157.5909  143.6371  180.6833 O   0  0  0  0  0  0  0  0  0  0  0  0
  159.5979  142.2869  180.3689 O   0  0  0  0  0  0  0  0  0  0  0  0
  158.1045  140.7382  178.8678 H   0  0  0  0  0  0  0  0  0  0  0  0
  156.5419  140.9344  179.5590 H   0  0  0  0  0  0  0  0  0  0  0  0
 26 27  1  0  0  0
 27 28  2  0  0  0
 27 29  2  0  0  0
 27 18  1  0  0  0
 18 19  2  0  0  0
 19 20  1  0  0  0
 20 21  1  0  0  0
 20 22  2  0  0  0
 22 17  1  0  0  0
 17  1  1  0  0  0
  1  2  2  0  0  0
  2  3  1  0  0  0
  3  4  2  0  0  0
  4  7  1  0  0  0
  7  8  1  0  0  0
  8  9  2  0  0  0
  8 10  1  0  0  0
 10 11  1  0  0  0
 11 12  1  0  0  0
 12 13  1  0  0  0
 13 14  1  0  0  0
 14 15  1  0  0  0
  4  5  1  0  0  0
  5  6  2  0  0  0
 22 23  1  0  0  0
 23 24  2  0  0  0
 24 25  1  0  0  0
 24 18  1  0  0  0
  6  1  1  0  0  0
 15 10  1  0  0  0
 26 30  1  0  0  0
 26 31  1  0  0  0
  7 16  1  0  0  0
M  END
> <minimizedAffinity>
-6.42586

> <CNNscore>
0.3104340434

> <CNNaffinity>
5.6413202286

> <CNN_VS>
1.7512578964

> <CNNaffinity_variance>
0.1648041457

$$$$
[H]c1c([H])c(N([H])C(=O)N2C([H])([H])C([H])([H])OC([H])([H])C2([H])[H])c([H])c([H])c1Oc1c([H])c(F)c(S(=O)(=O)N([H])[H])c([H])c1F


 31 33  0  0  0  0  0  0  0  0999 V2000
  153.8157  139.4358  184.0964 C   0  0  0  0  0  0  0  0  0  0  0  0
  153.6990  138.4698  185.0701 C   0  0  0  0  0  0  0  0  0  0  0  0
  152.9349  137.3437  184.8708 C   0  0  0  0  0  0  0  0  0  0  0  0
  152.2261  137.0919  183.6853 C   0  0  0  0  0  0  0  0  0  0  0  0
  152.3558  138.0684  182.7289 C   0  0  0  0  0  0  0  0  0  0  0  0
  153.1311  139.2194  182.9187 C   0  0  0  0  0  0  0  0  0  0  0  0
  151.4637  135.9173  183.5918 N   0  0  0  0  0  0  0  0  0  0  0  0
  150.2053  135.6634  184.1256 C   0  0  0  0  0  0  0  0  0  0  0  0
  149.5828  136.5546  184.7996 O   0  0  0  0  0  0  0  0  0  0  0  0
  149.5030  134.4520  183.9926 N   0  0  0  0  0  0  0  0  0  0  0  0
  148.1801  134.2372  184.5889 C   0  0  0  0  0  0  0  0  0  0  0  0
  148.1842  132.7844  185.0404 C   0  0  0  0  0  0  0  0  0  0  0  0
  149.4622  132.3478  185.3788 O   0  0  0  0  0  0  0  0  0  0  0  0
  150.3259  132.2508  184.2951 C   0  0  0  0  0  0  0  0  0  0  0  0
  150.0341  133.3386  183.2625 C   0  0  0  0  0  0  0  0  0  0  0  0
  151.9113  135.1160  183.0486 H   0  0  0  0  0  0  0  0  0  0  0  0
  154.5868  140.5732  184.2874 O   0  0  0  0  0  0  0  0  0  0  0  0
  157.4666  142.1297  181.7598 C   0  0  0  0  0  0  0  0  0  0  0  0
  156.5536  142.9757  182.3279 C   0  0  0  0  0  0  0  0  0  0  0  0
  155.5727  142.4527  183.1876 C   0  0  0  0  0  0  0  0  0  0  0  0
  154.6831  143.3120  183.7379 F   0  0  0  0  0  0  0  0  0  0  0  0
  155.5056  141.1221  183.4717 C   0  0  0  0  0  0  0  0  0  0  0  0
  156.4434  140.2878  182.8821 C   0  0  0  0  0  0  0  0  0  0  0  0
  157.4069  140.7771  182.0419 C   0  0  0  0  0  0  0  0  0  0  0  0
  158.3010  139.9234  181.4900 F   0  0  0  0  0  0  0  0  0  0  0  0
  158.3266  142.2053  179.0642 N   0  0  0  0  0  0  0  0  0  0  0  0
  158.7107  142.7023  180.6852 S   0  0  0  0  0  0  0  0  0  0  0  0
  158.7711  144.2109  180.7349 O   0  0  0  0  0  0  0  0  0  0  0  0
  160.0546  142.1598  181.0441 O   0  0  0  0  0  0  0  0  0  0  0  0
  158.7933  141.2629  178.9259 H   0  0  0  0  0  0  0  0  0  0  0  0
  157.2916  142.0983  178.9979 H   0  0  0  0  0  0  0  0  0  0  0  0
 26 27  1  0  0  0
 27 28  2  0  0  0
 27 29  2  0  0  0
 27 18  1  0  0  0
 18 19  2  0  0  0
 19 20  1  0  0  0
 20 21  1  0  0  0
 20 22  2  0  0  0
 22 17  1  0  0  0
 17  1  1  0  0  0
  1  2  2  0  0  0
  2  3  1  0  0  0
  3  4  2  0  0  0
  4  7  1  0  0  0
  7  8  1  0  0  0
  8  9  2  0  0  0
  8 10  1  0  0  0
 10 11  1  0  0  0
 11 12  1  0  0  0
 12 13  1  0  0  0
 13 14  1  0  0  0
 14 15  1  0  0  0
  4  5  1  0  0  0
  5  6  2  0  0  0
 22 23  1  0  0  0
 23 24  2  0  0  0
 24 25  1  0  0  0
 24 18  1  0  0  0
  6  1  1  0  0  0
 15 10  1  0  0  0
 26 30  1  0  0  0
 26 31  1  0  0  0
  7 16  1  0  0  0
M  END
> <minimizedAffinity>
-5.93941

> <CNNscore>
0.2968560755

> <CNNaffinity>
5.8014512062

> <CNN_VS>
1.7221959829

> <CNNaffinity_variance>
0.1608757079

$$$$
[H]c1c([H])c(N([H])C(=O)N2C([H])([H])C([H])([H])OC([H])([H])C2([H])[H])c([H])c([H])c1Oc1c([H])c(F)c(S(=O)(=O)N([H])[H])c([H])c1F


 31 33  0  0  0  0  0  0  0  0999 V2000
  154.8034  138.4392  185.6060 C   0  0  0  0  0  0  0  0  0  0  0  0
  154.1062  138.7875  186.7406 C   0  0  0  0  0  0  0  0  0  0  0  0
  152.8247  138.3380  186.9574 C   0  0  0  0  0  0  0  0  0  0  0  0
  152.1365  137.5061  186.0598 C   0  0  0  0  0  0  0  0  0  0  0  0
  152.8499  137.1724  184.9352 C   0  0  0  0  0  0  0  0  0  0  0  0
  154.1556  137.6227  184.7025 C   0  0  0  0  0  0  0  0  0  0  0  0
  150.8244  137.1171  186.3712 N   0  0  0  0  0  0  0  0  0  0  0  0
  150.4057  136.0158  187.1094 C   0  0  0  0  0  0  0  0  0  0  0  0
  151.2516  135.1985  187.6120 O   0  0  0  0  0  0  0  0  0  0  0  0
  149.0644  135.6875  187.3764 N   0  0  0  0  0  0  0  0  0  0  0  0
  148.6812  134.5035  188.1531 C   0  0  0  0  0  0  0  0  0  0  0  0
  147.4089  133.9951  187.4919 C   0  0  0  0  0  0  0  0  0  0  0  0
  147.3737  134.2929  186.1323 O   0  0  0  0  0  0  0  0  0  0  0  0
  147.2447  135.6488  185.8593 C   0  0  0  0  0  0  0  0  0  0  0  0
  147.9742  136.4904  186.9054 C   0  0  0  0  0  0  0  0  0  0  0  0
  150.0514  137.7424  185.9853 H   0  0  0  0  0  0  0  0  0  0  0  0
  156.0977  138.8853  185.3805 O   0  0  0  0  0  0  0  0  0  0  0  0
  157.4343  141.1744  182.2059 C   0  0  0  0  0  0  0  0  0  0  0  0
  158.3488  140.5166  182.9824 C   0  0  0  0  0  0  0  0  0  0  0  0
  157.9008  139.7373  184.0625 C   0  0  0  0  0  0  0  0  0  0  0  0
  158.8264  139.0953  184.8132 F   0  0  0  0  0  0  0  0  0  0  0  0
  156.5764  139.6184  184.3586 C   0  0  0  0  0  0  0  0  0  0  0  0
  155.6716  140.2958  183.5550 C   0  0  0  0  0  0  0  0  0  0  0  0
  156.0874  141.0600  182.4982 C   0  0  0  0  0  0  0  0  0  0  0  0
  155.1666  141.7028  181.7421 F   0  0  0  0  0  0  0  0  0  0  0  0
  157.3766  141.3943  179.3846 N   0  0  0  0  0  0  0  0  0  0  0  0
  157.9121  142.1582  180.8515 S   0  0  0  0  0  0  0  0  0  0  0  0
  157.2674  143.5201  180.9594 O   0  0  0  0  0  0  0  0  0  0  0  0
  159.3928  142.3363  180.7829 O   0  0  0  0  0  0  0  0  0  0  0  0
  158.1726  140.7678  179.0703 H   0  0  0  0  0  0  0  0  0  0  0  0
  156.5407  140.8138  179.6115 H   0  0  0  0  0  0  0  0  0  0  0  0
 26 27  1  0  0  0
 27 28  2  0  0  0
 27 29  2  0  0  0
 27 18  1  0  0  0
 18 19  2  0  0  0
 19 20  1  0  0  0
 20 21  1  0  0  0
 20 22  2  0  0  0
 22 17  1  0  0  0
 17  1  1  0  0  0
  1  2  2  0  0  0
  2  3  1  0  0  0
  3  4  2  0  0  0
  4  7  1  0  0  0
  7  8  1  0  0  0
  8  9  2  0  0  0
  8 10  1  0  0  0
 10 11  1  0  0  0
 11 12  1  0  0  0
 12 13  1  0  0  0
 13 14  1  0  0  0
 14 15  1  0  0  0
  4  5  1  0  0  0
  5  6  2  0  0  0
 22 23  1  0  0  0
 23 24  2  0  0  0
 24 25  1  0  0  0
 24 18  1  0  0  0
  6  1  1  0  0  0
 15 10  1  0  0  0
 26 30  1  0  0  0
 26 31  1  0  0  0
  7 16  1  0  0  0
M  END
> <minimizedAffinity>
-6.35492

> <CNNscore>
0.2310178578

> <CNNaffinity>
5.5327806473

> <CNN_VS>
1.2781711817

> <CNNaffinity_variance>
0.1365360618

$$$$
[H]c1c([H])c(N([H])C(=O)N2C([H])([H])C([H])([H])OC([H])([H])C2([H])[H])c([H])c([H])c1Oc1c([H])c(F)c(S(=O)(=O)N([H])[H])c([H])c1F


 31 33  0  0  0  0  0  0  0  0999 V2000
  153.3955  139.3833  183.2746 C   0  0  0  0  0  0  0  0  0  0  0  0
  153.4533  138.1931  183.9638 C   0  0  0  0  0  0  0  0  0  0  0  0
  152.9675  137.0278  183.4183 C   0  0  0  0  0  0  0  0  0  0  0  0
  152.3849  136.9570  182.1427 C   0  0  0  0  0  0  0  0  0  0  0  0
  152.3367  138.1551  181.4742 C   0  0  0  0  0  0  0  0  0  0  0  0
  152.8283  139.3487  182.0177 C   0  0  0  0  0  0  0  0  0  0  0  0
  151.9069  135.7184  181.6874 N   0  0  0  0  0  0  0  0  0  0  0  0
  152.6391  134.6303  181.2259 C   0  0  0  0  0  0  0  0  0  0  0  0
  153.9167  134.6682  181.1770 O   0  0  0  0  0  0  0  0  0  0  0  0
  152.0848  133.4173  180.7792 N   0  0  0  0  0  0  0  0  0  0  0  0
  152.9084  132.3057  180.2911 C   0  0  0  0  0  0  0  0  0  0  0  0
  152.1057  131.6925  179.1535 C   0  0  0  0  0  0  0  0  0  0  0  0
  151.3047  132.6349  178.5142 O   0  0  0  0  0  0  0  0  0  0  0  0
  150.2606  133.1071  179.2992 C   0  0  0  0  0  0  0  0  0  0  0  0
  150.6707  133.1826  180.7693 C   0  0  0  0  0  0  0  0  0  0  0  0
  150.8467  135.6016  181.6890 H   0  0  0  0  0  0  0  0  0  0  0  0
  153.8860  140.5630  183.8156 O   0  0  0  0  0  0  0  0  0  0  0  0
  157.2960  142.6410  182.7395 C   0  0  0  0  0  0  0  0  0  0  0  0
  156.0806  143.2616  182.6407 C   0  0  0  0  0  0  0  0  0  0  0  0
  154.9184  142.5607  183.0049 C   0  0  0  0  0  0  0  0  0  0  0  0
  153.7291  143.1989  182.8996 F   0  0  0  0  0  0  0  0  0  0  0  0
  154.9687  141.2759  183.4550 C   0  0  0  0  0  0  0  0  0  0  0  0
  156.2137  140.6716  183.5451 C   0  0  0  0  0  0  0  0  0  0  0  0
  157.3577  141.3368  183.1954 C   0  0  0  0  0  0  0  0  0  0  0  0
  158.5504  140.7050  183.3005 F   0  0  0  0  0  0  0  0  0  0  0  0
  159.8610  143.3967  183.6674 N   0  0  0  0  0  0  0  0  0  0  0  0
  158.7791  143.4435  182.3074 S   0  0  0  0  0  0  0  0  0  0  0  0
  159.4235  142.7292  181.1428 O   0  0  0  0  0  0  0  0  0  0  0  0
  158.5543  144.8694  181.9262 O   0  0  0  0  0  0  0  0  0  0  0  0
  159.6734  144.2797  184.2245 H   0  0  0  0  0  0  0  0  0  0  0  0
  159.6191  142.5607  184.2415 H   0  0  0  0  0  0  0  0  0  0  0  0
 26 27  1  0  0  0
 27 28  2  0  0  0
 27 29  2  0  0  0
 27 18  1  0  0  0
 18 19  2  0  0  0
 19 20  1  0  0  0
 20 21  1  0  0  0
 20 22  2  0  0  0
 22 17  1  0  0  0
 17  1  1  0  0  0
  1  2  2  0  0  0
  2  3  1  0  0  0
  3  4  2  0  0  0
  4  7  1  0  0  0
  7  8  1  0  0  0
  8  9  2  0  0  0
  8 10  1  0  0  0
 10 11  1  0  0  0
 11 12  1  0  0  0
 12 13  1  0  0  0
 13 14  1  0  0  0
 14 15  1  0  0  0
  4  5  1  0  0  0
  5  6  2  0  0  0
 22 23  1  0  0  0
 23 24  2  0  0  0
 24 25  1  0  0  0
 24 18  1  0  0  0
  6  1  1  0  0  0
 15 10  1  0  0  0
 26 30  1  0  0  0
 26 31  1  0  0  0
  7 16  1  0  0  0
M  END
> <minimizedAffinity>
-6.63007

> <CNNscore>
0.2052403688

> <CNNaffinity>
5.5399484634

> <CNN_VS>
1.1370210648

> <CNNaffinity_variance>
0.1413929164

$$$$
[H]c1c([H])c(N([H])C(=O)N2C([H])([H])C([H])([H])OC([H])([H])C2([H])[H])c([H])c([H])c1Oc1c([H])c(F)c(S(=O)(=O)N([H])[H])c([H])c1F


 31 33  0  0  0  0  0  0  0  0999 V2000
  154.1369  138.1527  185.6427 C   0  0  0  0  0  0  0  0  0  0  0  0
  153.3515  138.8846  186.5042 C   0  0  0  0  0  0  0  0  0  0  0  0
  153.1375  138.4737  187.7991 C   0  0  0  0  0  0  0  0  0  0  0  0
  153.6890  137.3000  188.3374 C   0  0  0  0  0  0  0  0  0  0  0  0
  154.4674  136.5855  187.4608 C   0  0  0  0  0  0  0  0  0  0  0  0
  154.6939  136.9930  186.1400 C   0  0  0  0  0  0  0  0  0  0  0  0
  153.3944  136.9650  189.6681 N   0  0  0  0  0  0  0  0  0  0  0  0
  152.4494  136.0602  190.1386 C   0  0  0  0  0  0  0  0  0  0  0  0
  151.7102  135.3989  189.3310 O   0  0  0  0  0  0  0  0  0  0  0  0
  152.2077  135.7803  191.4957 N   0  0  0  0  0  0  0  0  0  0  0  0
  151.1870  134.8221  191.9341 C   0  0  0  0  0  0  0  0  0  0  0  0
  150.6048  135.4228  193.2048 C   0  0  0  0  0  0  0  0  0  0  0  0
  150.6626  136.8138  193.1972 O   0  0  0  0  0  0  0  0  0  0  0  0
  151.9533  137.3210  193.2777 C   0  0  0  0  0  0  0  0  0  0  0  0
  152.9446  136.4152  192.5486 C   0  0  0  0  0  0  0  0  0  0  0  0
  153.9631  137.4760  190.4118 H   0  0  0  0  0  0  0  0  0  0  0  0
  154.3608  138.5612  184.3358 O   0  0  0  0  0  0  0  0  0  0  0  0
  151.5527  139.1201  181.3514 C   0  0  0  0  0  0  0  0  0  0  0  0
  152.5821  140.0136  181.4711 C   0  0  0  0  0  0  0  0  0  0  0  0
  153.5393  139.8289  182.4832 C   0  0  0  0  0  0  0  0  0  0  0  0
  154.5485  140.7262  182.5781 F   0  0  0  0  0  0  0  0  0  0  0  0
  153.4702  138.7813  183.3514 C   0  0  0  0  0  0  0  0  0  0  0  0
  152.4165  137.8914  183.2069 C   0  0  0  0  0  0  0  0  0  0  0  0
  151.4738  138.0533  182.2278 C   0  0  0  0  0  0  0  0  0  0  0  0
  150.4632  137.1582  182.1261 F   0  0  0  0  0  0  0  0  0  0  0  0
  150.9474  140.2799  178.8414 N   0  0  0  0  0  0  0  0  0  0  0  0
  150.3293  139.2819  180.1236 S   0  0  0  0  0  0  0  0  0  0  0  0
  149.9864  137.9210  179.5647 O   0  0  0  0  0  0  0  0  0  0  0  0
  149.0816  139.9068  180.6546 O   0  0  0  0  0  0  0  0  0  0  0  0
  150.6781  141.2760  179.0866 H   0  0  0  0  0  0  0  0  0  0  0  0
  151.9859  140.1878  178.8351 H   0  0  0  0  0  0  0  0  0  0  0  0
 26 27  1  0  0  0
 27 28  2  0  0  0
 27 29  2  0  0  0
 27 18  1  0  0  0
 18 19  2  0  0  0
 19 20  1  0  0  0
 20 21  1  0  0  0
 20 22  2  0  0  0
 22 17  1  0  0  0
 17  1  1  0  0  0
  1  2  2  0  0  0
  2  3  1  0  0  0
  3  4  2  0  0  0
  4  7  1  0  0  0
  7  8  1  0  0  0
  8  9  2  0  0  0
  8 10  1  0  0  0
 10 11  1  0  0  0
 11 12  1  0  0  0
 12 13  1  0  0  0
 13 14  1  0  0  0
 14 15  1  0  0  0
  4  5  1  0  0  0
  5  6  2  0  0  0
 22 23  1  0  0  0
 23 24  2  0  0  0
 24 25  1  0  0  0
 24 18  1  0  0  0
  6  1  1  0  0  0
 15 10  1  0  0  0
 26 30  1  0  0  0
 26 31  1  0  0  0
  7 16  1  0  0  0
M  END
> <minimizedAffinity>
-6.73434

> <CNNscore>
0.2050112337

> <CNNaffinity>
5.1120009422

> <CNN_VS>
1.0480176210

> <CNNaffinity_variance>
0.1365810931

$$$$
[H]c1c([H])c(N([H])C(=O)N2C([H])([H])C([H])([H])OC([H])([H])C2([H])[H])c([H])c([H])c1Oc1c([H])c(F)c(S(=O)(=O)N([H])[H])c([H])c1F


 31 33  0  0  0  0  0  0  0  0999 V2000
  154.7834  138.2494  186.6850 C   0  0  0  0  0  0  0  0  0  0  0  0
  155.5992  137.4009  187.3987 C   0  0  0  0  0  0  0  0  0  0  0  0
  155.2069  136.8860  188.6122 C   0  0  0  0  0  0  0  0  0  0  0  0
  153.9705  137.1769  189.2105 C   0  0  0  0  0  0  0  0  0  0  0  0
  153.1739  138.0255  188.4823 C   0  0  0  0  0  0  0  0  0  0  0  0
  153.5609  138.5563  187.2452 C   0  0  0  0  0  0  0  0  0  0  0  0
  153.6756  136.6094  190.4599 N   0  0  0  0  0  0  0  0  0  0  0  0
  152.9523  135.4534  190.7307 C   0  0  0  0  0  0  0  0  0  0  0  0
  152.4566  134.7489  189.7852 O   0  0  0  0  0  0  0  0  0  0  0  0
  152.6932  134.9480  192.0175 N   0  0  0  0  0  0  0  0  0  0  0  0
  151.9120  133.7270  192.2433 C   0  0  0  0  0  0  0  0  0  0  0  0
  151.1129  134.0005  193.5086 C   0  0  0  0  0  0  0  0  0  0  0  0
  150.8267  135.3545  193.6613 O   0  0  0  0  0  0  0  0  0  0  0  0
  151.9440  136.1366  193.9255 C   0  0  0  0  0  0  0  0  0  0  0  0
  153.1760  135.5943  193.2024 C   0  0  0  0  0  0  0  0  0  0  0  0
  154.0479  137.1375  191.3085 H   0  0  0  0  0  0  0  0  0  0  0  0
  155.1695  138.7710  185.4587 O   0  0  0  0  0  0  0  0  0  0  0  0
  152.8529  139.2646  182.0684 C   0  0  0  0  0  0  0  0  0  0  0  0
  153.5819  140.3242  182.5353 C   0  0  0  0  0  0  0  0  0  0  0  0
  154.3709  140.1626  183.6868 C   0  0  0  0  0  0  0  0  0  0  0  0
  155.0839  141.2263  184.1260 F   0  0  0  0  0  0  0  0  0  0  0  0
  154.4301  138.9760  184.3533 C   0  0  0  0  0  0  0  0  0  0  0  0
  153.6812  137.9191  183.8580 C   0  0  0  0  0  0  0  0  0  0  0  0
  152.9063  138.0557  182.7379 C   0  0  0  0  0  0  0  0  0  0  0  0
  152.1926  136.9951  182.2922 F   0  0  0  0  0  0  0  0  0  0  0  0
  150.6532  138.1297  180.6955 N   0  0  0  0  0  0  0  0  0  0  0  0
  151.8526  139.3873  180.6490 S   0  0  0  0  0  0  0  0  0  0  0  0
  151.1573  140.7283  180.6309 O   0  0  0  0  0  0  0  0  0  0  0  0
  152.6444  139.2444  179.3913 O   0  0  0  0  0  0  0  0  0  0  0  0
  151.0773  137.2985  180.1913 H   0  0  0  0  0  0  0  0  0  0  0  0
  150.4828  137.8853  181.6947 H   0  0  0  0  0  0  0  0  0  0  0  0
 26 27  1  0  0  0
 27 28  2  0  0  0
 27 29  2  0  0  0
 27 18  1  0  0  0
 18 19  2  0  0  0
 19 20  1  0  0  0
 20 21  1  0  0  0
 20 22  2  0  0  0
 22 17  1  0  0  0
 17  1  1  0  0  0
  1  2  2  0  0  0
  2  3  1  0  0  0
  3  4  2  0  0  0
  4  7  1  0  0  0
  7  8  1  0  0  0
  8  9  2  0  0  0
  8 10  1  0  0  0
 10 11  1  0  0  0
 11 12  1  0  0  0
 12 13  1  0  0  0
 13 14  1  0  0  0
 14 15  1  0  0  0
  4  5  1  0  0  0
  5  6  2  0  0  0
 22 23  1  0  0  0
 23 24  2  0  0  0
 24 25  1  0  0  0
 24 18  1  0  0  0
  6  1  1  0  0  0
 15 10  1  0  0  0
 26 30  1  0  0  0
 26 31  1  0  0  0
  7 16  1  0  0  0
M  END
> <minimizedAffinity>
-6.51101

> <CNNscore>
0.1929055005

> <CNNaffinity>
5.1788244247

> <CNN_VS>
0.9990237355

> <CNNaffinity_variance>
0.1843590736

$$$$
[H]c1c([H])c(N([H])C(=O)N2C([H])([H])C([H])([H])OC([H])([H])C2([H])[H])c([H])c([H])c1Oc1c([H])c(F)c(S(=O)(=O)N([H])[H])c([H])c1F


 31 33  0  0  0  0  0  0  0  0999 V2000
  153.3156  139.2283  183.3822 C   0  0  0  0  0  0  0  0  0  0  0  0
  153.0841  137.9530  183.8457 C   0  0  0  0  0  0  0  0  0  0  0  0
  152.3140  137.0634  183.1337 C   0  0  0  0  0  0  0  0  0  0  0  0
  151.7131  137.3750  181.9036 C   0  0  0  0  0  0  0  0  0  0  0  0
  151.9562  138.6517  181.4612 C   0  0  0  0  0  0  0  0  0  0  0  0
  152.7390  139.5673  182.1759 C   0  0  0  0  0  0  0  0  0  0  0  0
  150.9335  136.3969  181.2668 N   0  0  0  0  0  0  0  0  0  0  0  0
  149.5558  136.3816  181.0804 C   0  0  0  0  0  0  0  0  0  0  0  0
  148.8221  137.3391  181.5056 O   0  0  0  0  0  0  0  0  0  0  0  0
  148.8418  135.3575  180.4326 N   0  0  0  0  0  0  0  0  0  0  0  0
  147.3836  135.3898  180.2754 C   0  0  0  0  0  0  0  0  0  0  0  0
  146.9397  133.9431  180.4320 C   0  0  0  0  0  0  0  0  0  0  0  0
  147.7905  133.2250  181.2680 O   0  0  0  0  0  0  0  0  0  0  0  0
  149.0559  133.0171  180.7340 C   0  0  0  0  0  0  0  0  0  0  0  0
  149.4923  134.2062  179.8793 C   0  0  0  0  0  0  0  0  0  0  0  0
  151.4663  135.5556  180.8847 H   0  0  0  0  0  0  0  0  0  0  0  0
  154.0938  140.1313  184.0921 O   0  0  0  0  0  0  0  0  0  0  0  0
  157.3226  142.3629  182.7884 C   0  0  0  0  0  0  0  0  0  0  0  0
  156.0816  142.9388  182.8089 C   0  0  0  0  0  0  0  0  0  0  0  0
  154.9807  142.1856  183.2509 C   0  0  0  0  0  0  0  0  0  0  0  0
  153.7646  142.7802  183.2632 F   0  0  0  0  0  0  0  0  0  0  0  0
  155.1155  140.8934  183.6608 C   0  0  0  0  0  0  0  0  0  0  0  0
  156.3846  140.3351  183.6295 C   0  0  0  0  0  0  0  0  0  0  0  0
  157.4700  141.0516  183.2025 C   0  0  0  0  0  0  0  0  0  0  0  0
  158.6893  140.4635  183.1899 F   0  0  0  0  0  0  0  0  0  0  0  0
  159.3388  142.4851  180.8056 N   0  0  0  0  0  0  0  0  0  0  0  0
  158.7337  143.2314  182.2545 S   0  0  0  0  0  0  0  0  0  0  0  0
  158.3645  144.6644  181.9513 O   0  0  0  0  0  0  0  0  0  0  0  0
  159.8171  143.2257  183.2817 O   0  0  0  0  0  0  0  0  0  0  0  0
  160.0413  141.7555  181.1205 H   0  0  0  0  0  0  0  0  0  0  0  0
  158.5388  142.0190  180.3263 H   0  0  0  0  0  0  0  0  0  0  0  0
 26 27  1  0  0  0
 27 28  2  0  0  0
 27 29  2  0  0  0
 27 18  1  0  0  0
 18 19  2  0  0  0
 19 20  1  0  0  0
 20 21  1  0  0  0
 20 22  2  0  0  0
 22 17  1  0  0  0
 17  1  1  0  0  0
  1  2  2  0  0  0
  2  3  1  0  0  0
  3  4  2  0  0  0
  4  7  1  0  0  0
  7  8  1  0  0  0
  8  9  2  0  0  0
  8 10  1  0  0  0
 10 11  1  0  0  0
 11 12  1  0  0  0
 12 13  1  0  0  0
 13 14  1  0  0  0
 14 15  1  0  0  0
  4  5  1  0  0  0
  5  6  2  0  0  0
 22 23  1  0  0  0
 23 24  2  0  0  0
 24 25  1  0  0  0
 24 18  1  0  0  0
  6  1  1  0  0  0
 15 10  1  0  0  0
 26 30  1  0  0  0
 26 31  1  0  0  0
  7 16  1  0  0  0
M  END
> <minimizedAffinity>
-6.35282

> <CNNscore>
0.1924285740

> <CNNaffinity>
5.5069770813

> <CNN_VS>
1.0596997738

> <CNNaffinity_variance>
0.1337676644

$$$$
[H]c1c([H])c(N([H])C(=O)N2C([H])([H])C([H])([H])OC([H])([H])C2([H])[H])c([H])c([H])c1Oc1c([H])c(F)c(S(=O)(=O)N([H])[H])c([H])c1F


 31 33  0  0  0  0  0  0  0  0999 V2000
  154.7658  138.0147  186.7325 C   0  0  0  0  0  0  0  0  0  0  0  0
  153.6853  138.4630  187.4581 C   0  0  0  0  0  0  0  0  0  0  0  0
  153.3831  137.9324  188.6904 C   0  0  0  0  0  0  0  0  0  0  0  0
  154.1338  136.9124  189.2966 C   0  0  0  0  0  0  0  0  0  0  0  0
  155.2054  136.4801  188.5553 C   0  0  0  0  0  0  0  0  0  0  0  0
  155.5246  137.0121  187.2995 C   0  0  0  0  0  0  0  0  0  0  0  0
  153.7289  136.4319  190.5516 N   0  0  0  0  0  0  0  0  0  0  0  0
  152.8680  135.3768  190.8321 C   0  0  0  0  0  0  0  0  0  0  0  0
  152.3308  134.6961  189.8919 O   0  0  0  0  0  0  0  0  0  0  0  0
  152.5042  134.9553  192.1237 N   0  0  0  0  0  0  0  0  0  0  0  0
  151.5802  133.8405  192.3591 C   0  0  0  0  0  0  0  0  0  0  0  0
  150.7706  134.2525  193.5794 C   0  0  0  0  0  0  0  0  0  0  0  0
  150.6361  135.6352  193.6725 O   0  0  0  0  0  0  0  0  0  0  0  0
  151.8249  136.2955  193.9558 C   0  0  0  0  0  0  0  0  0  0  0  0
  153.0130  135.5891  193.3046 C   0  0  0  0  0  0  0  0  0  0  0  0
  154.1269  136.9476  191.3961 H   0  0  0  0  0  0  0  0  0  0  0  0
  155.0800  138.5462  185.4900 O   0  0  0  0  0  0  0  0  0  0  0  0
  152.7405  139.0231  182.1131 C   0  0  0  0  0  0  0  0  0  0  0  0
  152.7950  137.7961  182.7159 C   0  0  0  0  0  0  0  0  0  0  0  0
  153.5882  137.6279  183.8636 C   0  0  0  0  0  0  0  0  0  0  0  0
  153.6225  136.4041  184.4416 F   0  0  0  0  0  0  0  0  0  0  0  0
  154.3068  138.6564  184.3943 C   0  0  0  0  0  0  0  0  0  0  0  0
  154.2330  139.8890  183.7629 C   0  0  0  0  0  0  0  0  0  0  0  0
  153.4663  140.0738  182.6441 C   0  0  0  0  0  0  0  0  0  0  0  0
  153.4259  141.2957  182.0626 F   0  0  0  0  0  0  0  0  0  0  0  0
  150.7030  137.9651  180.4575 N   0  0  0  0  0  0  0  0  0  0  0  0
  151.7809  139.3093  180.6891 S   0  0  0  0  0  0  0  0  0  0  0  0
  150.9648  140.5675  180.8699 O   0  0  0  0  0  0  0  0  0  0  0  0
  152.6241  139.4602  179.4662 O   0  0  0  0  0  0  0  0  0  0  0  0
  151.2193  137.2760  179.8380 H   0  0  0  0  0  0  0  0  0  0  0  0
  150.5230  137.5337  181.3894 H   0  0  0  0  0  0  0  0  0  0  0  0
 26 27  1  0  0  0
 27 28  2  0  0  0
 27 29  2  0  0  0
 27 18  1  0  0  0
 18 19  2  0  0  0
 19 20  1  0  0  0
 20 21  1  0  0  0
 20 22  2  0  0  0
 22 17  1  0  0  0
 17  1  1  0  0  0
  1  2  2  0  0  0
  2  3  1  0  0  0
  3  4  2  0  0  0
  4  7  1  0  0  0
  7  8  1  0  0  0
  8  9  2  0  0  0
  8 10  1  0  0  0
 10 11  1  0  0  0
 11 12  1  0  0  0
 12 13  1  0  0  0
 13 14  1  0  0  0
 14 15  1  0  0  0
  4  5  1  0  0  0
  5  6  2  0  0  0
 22 23  1  0  0  0
 23 24  2  0  0  0
 24 25  1  0  0  0
 24 18  1  0  0  0
  6  1  1  0  0  0
 15 10  1  0  0  0
 26 30  1  0  0  0
 26 31  1  0  0  0
  7 16  1  0  0  0
M  END
> <minimizedAffinity>
-6.41608

> <CNNscore>
0.1730482429

> <CNNaffinity>
5.1558341980

> <CNN_VS>
0.8922080398

> <CNNaffinity_variance>
0.1510873735

$$$$
[H]c1c([H])c([H])c2c(c1[H])c1c3c(c4c5c([H])c([H])c([H])c([H])c5n5c4c1n2[C@@]1(C([H])([H])[H])O[C@]5([H])C([H])([H])[C@@]([H])(N([H])C([H])([H])[H])[C@]1([H])OC([H])([H])[H])C(=O)N([H])C3([H])[H]


 37 44  0  0  0  0  0  0  0  0999 V2000
  153.4361  136.9457  190.7961 C   0  0  0  0  0  0  0  0  0  0  0  0
  152.5750  136.5358  189.6440 C   0  0  0  0  0  0  0  0  0  0  0  0
  153.0044  137.3810  188.4671 C   0  0  0  0  0  0  0  0  0  0  0  0
  154.2801  137.7515  188.4530 O   0  0  0  0  0  0  0  0  0  0  0  0
  155.2416  136.9176  189.0603 C   0  0  0  0  0  0  0  0  0  0  0  0
  156.4478  137.8753  189.1312 C   0  0  0  0  0  0  0  0  0  0  0  0
  154.8767  136.5232  190.4348 C   0  0  0  0  0  0  0  0  0  0  0  0
  155.5889  135.8320  188.1628 N   0  0  0  0  0  0  0  0  0  0  0  0
  156.7681  135.1464  188.1419 C   0  0  0  0  0  0  0  0  0  0  0  0
  157.8701  135.1918  188.9334 C   0  0  0  0  0  0  0  0  0  0  0  0
  158.9408  134.3562  188.6925 C   0  0  0  0  0  0  0  0  0  0  0  0
  158.9479  133.4500  187.6581 C   0  0  0  0  0  0  0  0  0  0  0  0
  157.8007  133.4209  186.8574 C   0  0  0  0  0  0  0  0  0  0  0  0
  156.7530  134.2496  187.1060 C   0  0  0  0  0  0  0  0  0  0  0  0
  155.5510  134.3708  186.4751 C   0  0  0  0  0  0  0  0  0  0  0  0
  154.9554  133.7442  185.3793 C   0  0  0  0  0  0  0  0  0  0  0  0
  155.5154  132.6801  184.5153 C   0  0  0  0  0  0  0  0  0  0  0  0
  154.5051  132.3971  183.5424 N   0  0  0  0  0  0  0  0  0  0  0  0
  153.3765  133.2467  183.8028 C   0  0  0  0  0  0  0  0  0  0  0  0
  152.3664  133.1853  183.0893 O   0  0  0  0  0  0  0  0  0  0  0  0
  153.6776  134.0772  184.9503 C   0  0  0  0  0  0  0  0  0  0  0  0
  153.0036  135.0548  185.6463 C   0  0  0  0  0  0  0  0  0  0  0  0
  151.7394  135.6165  185.5374 C   0  0  0  0  0  0  0  0  0  0  0  0
  150.7109  135.4111  184.6694 C   0  0  0  0  0  0  0  0  0  0  0  0
  149.5376  136.1649  184.8447 C   0  0  0  0  0  0  0  0  0  0  0  0
  149.4381  137.0774  185.8598 C   0  0  0  0  0  0  0  0  0  0  0  0
  150.4825  137.2809  186.7351 C   0  0  0  0  0  0  0  0  0  0  0  0
  151.6239  136.5521  186.5702 C   0  0  0  0  0  0  0  0  0  0  0  0
  152.7402  136.5731  187.2739 N   0  0  0  0  0  0  0  0  0  0  0  0
  153.5946  135.6878  186.7451 C   0  0  0  0  0  0  0  0  0  0  0  0
  154.8568  135.3250  187.1225 C   0  0  0  0  0  0  0  0  0  0  0  0
  154.6079  131.6871  182.7883 H   0  0  0  0  0  0  0  0  0  0  0  0
  152.2825  137.2453  192.8251 C   0  0  0  0  0  0  0  0  0  0  0  0
  153.0554  136.3037  192.0367 N   0  0  0  0  0  0  0  0  0  0  0  0
  152.4190  135.4901  191.8521 H   0  0  0  0  0  0  0  0  0  0  0  0
  155.6556  137.0617  191.4532 O   0  0  0  0  0  0  0  0  0  0  0  0
  156.4647  136.1634  192.1030 C   0  0  0  0  0  0  0  0  0  0  0  0
 33 34  1  0  0  0
 34  1  1  0  0  0
  1  2  1  0  0  0
  2  3  1  0  0  0
  3  4  1  0  0  0
  4  5  1  0  0  0
  5  6  1  0  0  0
  5  7  1  0  0  0
  7 36  1  0  0  0
 36 37  1  0  0  0
  5  8  1  0  0  0
  8  9  1  0  0  0
  9 10  2  0  0  0
 10 11  1  0  0  0
 11 12  2  0  0  0
 12 13  1  0  0  0
 13 14  2  0  0  0
 14 15  1  0  0  0
 15 16  2  0  0  0
 16 17  1  0  0  0
 17 18  1  0  0  0
 18 19  1  0  0  0
 19 20  2  0  0  0
 19 21  1  0  0  0
 21 22  2  0  0  0
 22 23  1  0  0  0
 23 24  2  0  0  0
 24 25  1  0  0  0
 25 26  2  0  0  0
 26 27  1  0  0  0
 27 28  2  0  0  0
 28 29  1  0  0  0
 29 30  1  0  0  0
 30 31  2  0  0  0
  7  1  1  0  0  0
 31  8  1  0  0  0
 29  3  1  0  0  0
 14  9  1  0  0  0
 31 15  1  0  0  0
 21 16  1  0  0  0
 30 22  1  0  0  0
 28 23  1  0  0  0
 34 35  1  0  0  0
 18 32  1  0  0  0
M  END
> <minimizedAffinity>
-6.49115

> <CNNscore>
0.4578180015

> <CNNaffinity>
5.6464262009

> <CNN_VS>
2.5850355625

> <CNNaffinity_variance>
0.3477676511

$$$$
[H]c1c([H])c([H])c2c(c1[H])c1c3c(c4c5c([H])c([H])c([H])c([H])c5n5c4c1n2[C@@]1(C([H])([H])[H])O[C@]5([H])C([H])([H])[C@@]([H])(N([H])C([H])([H])[H])[C@]1([H])OC([H])([H])[H])C(=O)N([H])C3([H])[H]


 37 44  0  0  0  0  0  0  0  0999 V2000
  155.8229  135.4315  191.3246 C   0  0  0  0  0  0  0  0  0  0  0  0
  154.5007  134.9296  191.8112 C   0  0  0  0  0  0  0  0  0  0  0  0
  153.6655  136.1514  192.1167 C   0  0  0  0  0  0  0  0  0  0  0  0
  153.9193  137.2274  191.3800 O   0  0  0  0  0  0  0  0  0  0  0  0
  154.3959  137.0584  190.0635 C   0  0  0  0  0  0  0  0  0  0  0  0
  154.8819  138.4874  189.7490 C   0  0  0  0  0  0  0  0  0  0  0  0
  155.5509  136.1433  189.9816 C   0  0  0  0  0  0  0  0  0  0  0  0
  153.2894  136.7601  189.1739 N   0  0  0  0  0  0  0  0  0  0  0  0
  153.2359  137.0184  187.8355 C   0  0  0  0  0  0  0  0  0  0  0  0
  154.1464  137.5160  186.9600 C   0  0  0  0  0  0  0  0  0  0  0  0
  153.8281  137.6624  185.6258 C   0  0  0  0  0  0  0  0  0  0  0  0
  152.5959  137.3179  185.1219 C   0  0  0  0  0  0  0  0  0  0  0  0
  151.6753  136.8063  186.0431 C   0  0  0  0  0  0  0  0  0  0  0  0
  152.0019  136.6672  187.3547 C   0  0  0  0  0  0  0  0  0  0  0  0
  151.2770  136.1793  188.4007 C   0  0  0  0  0  0  0  0  0  0  0  0
  149.9839  135.6730  188.5412 C   0  0  0  0  0  0  0  0  0  0  0  0
  148.9429  135.5146  187.5001 C   0  0  0  0  0  0  0  0  0  0  0  0
  147.8068  134.9572  188.1679 N   0  0  0  0  0  0  0  0  0  0  0  0
  148.1398  134.7787  189.5537 C   0  0  0  0  0  0  0  0  0  0  0  0
  147.3114  134.3049  190.3427 O   0  0  0  0  0  0  0  0  0  0  0  0
  149.4994  135.2304  189.7647 C   0  0  0  0  0  0  0  0  0  0  0  0
  150.3418  135.3037  190.8507 C   0  0  0  0  0  0  0  0  0  0  0  0
  150.2266  134.9405  192.1850 C   0  0  0  0  0  0  0  0  0  0  0  0
  149.2093  134.3968  192.9080 C   0  0  0  0  0  0  0  0  0  0  0  0
  149.4292  134.1460  194.2734 C   0  0  0  0  0  0  0  0  0  0  0  0
  150.6329  134.4421  194.8535 C   0  0  0  0  0  0  0  0  0  0  0  0
  151.6588  134.9924  194.1165 C   0  0  0  0  0  0  0  0  0  0  0  0
  151.4514  135.2380  192.7907 C   0  0  0  0  0  0  0  0  0  0  0  0
  152.2733  135.7527  191.8956 N   0  0  0  0  0  0  0  0  0  0  0  0
  151.6389  135.8107  190.7176 C   0  0  0  0  0  0  0  0  0  0  0  0
  152.0641  136.2372  189.4910 C   0  0  0  0  0  0  0  0  0  0  0  0
  146.9076  134.7323  187.6943 H   0  0  0  0  0  0  0  0  0  0  0  0
  156.0831  133.2272  190.5432 C   0  0  0  0  0  0  0  0  0  0  0  0
  156.7807  134.3678  191.1070 N   0  0  0  0  0  0  0  0  0  0  0  0
  157.4940  134.6528  190.3922 H   0  0  0  0  0  0  0  0  0  0  0  0
  156.7701  136.7248  189.6507 O   0  0  0  0  0  0  0  0  0  0  0  0
  157.3453  136.2524  188.4976 C   0  0  0  0  0  0  0  0  0  0  0  0
 33 34  1  0  0  0
 34  1  1  0  0  0
  1  2  1  0  0  0
  2  3  1  0  0  0
  3  4  1  0  0  0
  4  5  1  0  0  0
  5  6  1  0  0  0
  5  7  1  0  0  0
  7 36  1  0  0  0
 36 37  1  0  0  0
  5  8  1  0  0  0
  8  9  1  0  0  0
  9 10  2  0  0  0
 10 11  1  0  0  0
 11 12  2  0  0  0
 12 13  1  0  0  0
 13 14  2  0  0  0
 14 15  1  0  0  0
 15 16  2  0  0  0
 16 17  1  0  0  0
 17 18  1  0  0  0
 18 19  1  0  0  0
 19 20  2  0  0  0
 19 21  1  0  0  0
 21 22  2  0  0  0
 22 23  1  0  0  0
 23 24  2  0  0  0
 24 25  1  0  0  0
 25 26  2  0  0  0
 26 27  1  0  0  0
 27 28  2  0  0  0
 28 29  1  0  0  0
 29 30  1  0  0  0
 30 31  2  0  0  0
  7  1  1  0  0  0
 31  8  1  0  0  0
 29  3  1  0  0  0
 14  9  1  0  0  0
 31 15  1  0  0  0
 21 16  1  0  0  0
 30 22  1  0  0  0
 28 23  1  0  0  0
 34 35  1  0  0  0
 18 32  1  0  0  0
M  END
> <minimizedAffinity>
-6.93815

> <CNNscore>
0.4246922135

> <CNNaffinity>
5.4773077965

> <CNN_VS>
2.3261699677

> <CNNaffinity_variance>
0.6976819038

$$$$
[H]c1c([H])c([H])c2c(c1[H])c1c3c(c4c5c([H])c([H])c([H])c([H])c5n5c4c1n2[C@@]1(C([H])([H])[H])O[C@]5([H])C([H])([H])[C@@]([H])(N([H])C([H])([H])[H])[C@]1([H])OC([H])([H])[H])C(=O)N([H])C3([H])[H]


 37 44  0  0  0  0  0  0  0  0999 V2000
  154.5160  134.9686  190.4902 C   0  0  0  0  0  0  0  0  0  0  0  0
  153.1035  134.6006  190.1643 C   0  0  0  0  0  0  0  0  0  0  0  0
  152.2742  135.8431  190.3924 C   0  0  0  0  0  0  0  0  0  0  0  0
  152.8936  137.0004  190.1877 O   0  0  0  0  0  0  0  0  0  0  0  0
  153.9362  137.0601  189.2400 C   0  0  0  0  0  0  0  0  0  0  0  0
  154.5708  138.4191  189.5973 C   0  0  0  0  0  0  0  0  0  0  0  0
  154.9509  136.0057  189.4321 C   0  0  0  0  0  0  0  0  0  0  0  0
  153.3814  137.1669  187.9038 N   0  0  0  0  0  0  0  0  0  0  0  0
  153.9874  137.7313  186.8197 C   0  0  0  0  0  0  0  0  0  0  0  0
  155.2255  138.2546  186.6295 C   0  0  0  0  0  0  0  0  0  0  0  0
  155.5929  138.7558  185.3980 C   0  0  0  0  0  0  0  0  0  0  0  0
  154.7408  138.7511  184.3186 C   0  0  0  0  0  0  0  0  0  0  0  0
  153.4713  138.2055  184.5389 C   0  0  0  0  0  0  0  0  0  0  0  0
  153.1225  137.7151  185.7571 C   0  0  0  0  0  0  0  0  0  0  0  0
  151.9655  137.1304  186.1779 C   0  0  0  0  0  0  0  0  0  0  0  0
  150.7444  136.8328  185.5709 C   0  0  0  0  0  0  0  0  0  0  0  0
  150.3253  137.0974  184.1756 C   0  0  0  0  0  0  0  0  0  0  0  0
  148.9867  136.6029  184.0712 N   0  0  0  0  0  0  0  0  0  0  0  0
  148.6063  136.0566  185.3439 C   0  0  0  0  0  0  0  0  0  0  0  0
  147.4825  135.5621  185.5046 O   0  0  0  0  0  0  0  0  0  0  0  0
  149.7147  136.2097  186.2632 C   0  0  0  0  0  0  0  0  0  0  0  0
  149.9348  135.8870  187.5830 C   0  0  0  0  0  0  0  0  0  0  0  0
  149.1788  135.2518  188.5579 C   0  0  0  0  0  0  0  0  0  0  0  0
  147.9183  134.7375  188.5577 C   0  0  0  0  0  0  0  0  0  0  0  0
  147.4456  134.1460  189.7418 C   0  0  0  0  0  0  0  0  0  0  0  0
  148.2340  134.0916  190.8591 C   0  0  0  0  0  0  0  0  0  0  0  0
  149.5090  134.6140  190.8532 C   0  0  0  0  0  0  0  0  0  0  0  0
  149.9734  135.1894  189.7068 C   0  0  0  0  0  0  0  0  0  0  0  0
  151.1441  135.7486  189.4650 N   0  0  0  0  0  0  0  0  0  0  0  0
  151.1558  136.1830  188.1982 C   0  0  0  0  0  0  0  0  0  0  0  0
  152.1344  136.8014  187.4721 C   0  0  0  0  0  0  0  0  0  0  0  0
  148.4169  136.6492  183.2013 H   0  0  0  0  0  0  0  0  0  0  0  0
  155.0594  133.0164  189.2940 C   0  0  0  0  0  0  0  0  0  0  0  0
  155.4169  133.8365  190.4364 N   0  0  0  0  0  0  0  0  0  0  0  0
  156.4020  134.1554  190.2665 H   0  0  0  0  0  0  0  0  0  0  0  0
  156.2016  136.4317  189.8659 O   0  0  0  0  0  0  0  0  0  0  0  0
  157.2347  136.1789  188.9984 C   0  0  0  0  0  0  0  0  0  0  0  0
 33 34  1  0  0  0
 34  1  1  0  0  0
  1  2  1  0  0  0
  2  3  1  0  0  0
  3  4  1  0  0  0
  4  5  1  0  0  0
  5  6  1  0  0  0
  5  7  1  0  0  0
  7 36  1  0  0  0
 36 37  1  0  0  0
  5  8  1  0  0  0
  8  9  1  0  0  0
  9 10  2  0  0  0
 10 11  1  0  0  0
 11 12  2  0  0  0
 12 13  1  0  0  0
 13 14  2  0  0  0
 14 15  1  0  0  0
 15 16  2  0  0  0
 16 17  1  0  0  0
 17 18  1  0  0  0
 18 19  1  0  0  0
 19 20  2  0  0  0
 19 21  1  0  0  0
 21 22  2  0  0  0
 22 23  1  0  0  0
 23 24  2  0  0  0
 24 25  1  0  0  0
 25 26  2  0  0  0
 26 27  1  0  0  0
 27 28  2  0  0  0
 28 29  1  0  0  0
 29 30  1  0  0  0
 30 31  2  0  0  0
  7  1  1  0  0  0
 31  8  1  0  0  0
 29  3  1  0  0  0
 14  9  1  0  0  0
 31 15  1  0  0  0
 21 16  1  0  0  0
 30 22  1  0  0  0
 28 23  1  0  0  0
 34 35  1  0  0  0
 18 32  1  0  0  0
M  END
> <minimizedAffinity>
-6.51303

> <CNNscore>
0.3870558739

> <CNNaffinity>
5.5184888840

> <CNN_VS>
2.1359634399

> <CNNaffinity_variance>
0.4148636758

$$$$
[H]c1c([H])c([H])c2c(c1[H])c1c3c(c4c5c([H])c([H])c([H])c([H])c5n5c4c1n2[C@@]1(C([H])([H])[H])O[C@]5([H])C([H])([H])[C@@]([H])(N([H])C([H])([H])[H])[C@]1([H])OC([H])([H])[H])C(=O)N([H])C3([H])[H]


 37 44  0  0  0  0  0  0  0  0999 V2000
  152.9535  136.9420  189.6335 C   0  0  0  0  0  0  0  0  0  0  0  0
  152.6701  136.5507  188.2180 C   0  0  0  0  0  0  0  0  0  0  0  0
  153.7055  137.2478  187.3661 C   0  0  0  0  0  0  0  0  0  0  0  0
  154.8828  137.4631  187.9428 O   0  0  0  0  0  0  0  0  0  0  0  0
  155.3307  136.5697  188.9379 C   0  0  0  0  0  0  0  0  0  0  0  0
  156.4900  137.3809  189.5504 C   0  0  0  0  0  0  0  0  0  0  0  0
  154.3241  136.3262  189.9893 C   0  0  0  0  0  0  0  0  0  0  0  0
  155.8961  135.3860  188.3183 N   0  0  0  0  0  0  0  0  0  0  0  0
  156.8442  134.5663  188.8568 C   0  0  0  0  0  0  0  0  0  0  0  0
  157.4536  134.5410  190.0697 C   0  0  0  0  0  0  0  0  0  0  0  0
  158.3868  133.5689  190.3649 C   0  0  0  0  0  0  0  0  0  0  0  0
  158.7415  132.5927  189.4637 C   0  0  0  0  0  0  0  0  0  0  0  0
  158.0990  132.6389  188.2215 C   0  0  0  0  0  0  0  0  0  0  0  0
  157.1815  133.6018  187.9439 C   0  0  0  0  0  0  0  0  0  0  0  0
  156.4340  133.8161  186.8246 C   0  0  0  0  0  0  0  0  0  0  0  0
  156.3273  133.1832  185.5852 C   0  0  0  0  0  0  0  0  0  0  0  0
  157.0668  131.9981  185.0940 C   0  0  0  0  0  0  0  0  0  0  0  0
  156.5879  131.7637  183.7662 N   0  0  0  0  0  0  0  0  0  0  0  0
  155.5971  132.7579  183.4612 C   0  0  0  0  0  0  0  0  0  0  0  0
  155.0302  132.7625  182.3604 O   0  0  0  0  0  0  0  0  0  0  0  0
  155.4501  133.6314  184.6068 C   0  0  0  0  0  0  0  0  0  0  0  0
  154.6757  134.7316  184.8973 C   0  0  0  0  0  0  0  0  0  0  0  0
  153.6953  135.4288  184.2058 C   0  0  0  0  0  0  0  0  0  0  0  0
  153.1631  135.2812  182.9615 C   0  0  0  0  0  0  0  0  0  0  0  0
  152.1587  136.1794  182.5614 C   0  0  0  0  0  0  0  0  0  0  0  0
  151.7325  137.1713  183.4025 C   0  0  0  0  0  0  0  0  0  0  0  0
  152.2751  137.3157  184.6608 C   0  0  0  0  0  0  0  0  0  0  0  0
  153.2502  136.4468  185.0548 C   0  0  0  0  0  0  0  0  0  0  0  0
  153.9090  136.3890  186.1969 N   0  0  0  0  0  0  0  0  0  0  0  0
  154.7777  135.3715  186.1372 C   0  0  0  0  0  0  0  0  0  0  0  0
  155.6609  134.8918  187.0630 C   0  0  0  0  0  0  0  0  0  0  0  0
  156.9254  130.9916  183.1552 H   0  0  0  0  0  0  0  0  0  0  0  0
  151.6007  135.0939  190.1739 C   0  0  0  0  0  0  0  0  0  0  0  0
  151.9599  136.4451  190.5620 N   0  0  0  0  0  0  0  0  0  0  0  0
  152.3612  136.3714  191.5287 H   0  0  0  0  0  0  0  0  0  0  0  0
  154.6148  136.8444  191.2466 O   0  0  0  0  0  0  0  0  0  0  0  0
  154.7745  135.9088  192.2381 C   0  0  0  0  0  0  0  0  0  0  0  0
 33 34  1  0  0  0
 34  1  1  0  0  0
  1  2  1  0  0  0
  2  3  1  0  0  0
  3  4  1  0  0  0
  4  5  1  0  0  0
  5  6  1  0  0  0
  5  7  1  0  0  0
  7 36  1  0  0  0
 36 37  1  0  0  0
  5  8  1  0  0  0
  8  9  1  0  0  0
  9 10  2  0  0  0
 10 11  1  0  0  0
 11 12  2  0  0  0
 12 13  1  0  0  0
 13 14  2  0  0  0
 14 15  1  0  0  0
 15 16  2  0  0  0
 16 17  1  0  0  0
 17 18  1  0  0  0
 18 19  1  0  0  0
 19 20  2  0  0  0
 19 21  1  0  0  0
 21 22  2  0  0  0
 22 23  1  0  0  0
 23 24  2  0  0  0
 24 25  1  0  0  0
 25 26  2  0  0  0
 26 27  1  0  0  0
 27 28  2  0  0  0
 28 29  1  0  0  0
 29 30  1  0  0  0
 30 31  2  0  0  0
  7  1  1  0  0  0
 31  8  1  0  0  0
 29  3  1  0  0  0
 14  9  1  0  0  0
 31 15  1  0  0  0
 21 16  1  0  0  0
 30 22  1  0  0  0
 28 23  1  0  0  0
 34 35  1  0  0  0
 18 32  1  0  0  0
M  END
> <minimizedAffinity>
-6.24942

> <CNNscore>
0.3641989827

> <CNNaffinity>
5.4732141495

> <CNN_VS>
1.9933390617

> <CNNaffinity_variance>
0.4338884950

$$$$
[H]c1c([H])c([H])c2c(c1[H])c1c3c(c4c5c([H])c([H])c([H])c([H])c5n5c4c1n2[C@@]1(C([H])([H])[H])O[C@]5([H])C([H])([H])[C@@]([H])(N([H])C([H])([H])[H])[C@]1([H])OC([H])([H])[H])C(=O)N([H])C3([H])[H]


 37 44  0  0  0  0  0  0  0  0999 V2000
  158.4377  132.8540  188.4370 C   0  0  0  0  0  0  0  0  0  0  0  0
  157.8287  133.0354  187.0830 C   0  0  0  0  0  0  0  0  0  0  0  0
  156.3716  132.6572  187.2153 C   0  0  0  0  0  0  0  0  0  0  0  0
  155.8204  132.8761  188.4040 O   0  0  0  0  0  0  0  0  0  0  0  0
  156.3096  133.9315  189.2012 C   0  0  0  0  0  0  0  0  0  0  0  0
  155.6692  133.5849  190.5602 C   0  0  0  0  0  0  0  0  0  0  0  0
  157.7771  133.9048  189.3557 C   0  0  0  0  0  0  0  0  0  0  0  0
  155.7446  135.1901  188.7524 N   0  0  0  0  0  0  0  0  0  0  0  0
  155.5566  136.3080  189.5112 C   0  0  0  0  0  0  0  0  0  0  0  0
  155.8823  136.6120  190.7937 C   0  0  0  0  0  0  0  0  0  0  0  0
  155.5825  137.8523  191.3176 C   0  0  0  0  0  0  0  0  0  0  0  0
  154.9507  138.8277  190.5824 C   0  0  0  0  0  0  0  0  0  0  0  0
  154.6265  138.4913  189.2635 C   0  0  0  0  0  0  0  0  0  0  0  0
  154.9278  137.2659  188.7599 C   0  0  0  0  0  0  0  0  0  0  0  0
  154.7244  136.7450  187.5169 C   0  0  0  0  0  0  0  0  0  0  0  0
  154.1473  137.2237  186.3396 C   0  0  0  0  0  0  0  0  0  0  0  0
  153.5351  138.5489  186.0913 C   0  0  0  0  0  0  0  0  0  0  0  0
  153.0941  138.5246  184.7303 N   0  0  0  0  0  0  0  0  0  0  0  0
  153.4258  137.2440  184.1706 C   0  0  0  0  0  0  0  0  0  0  0  0
  153.1443  136.9809  182.9939 O   0  0  0  0  0  0  0  0  0  0  0  0
  154.0807  136.4495  185.1890 C   0  0  0  0  0  0  0  0  0  0  0  0
  154.6088  135.1796  185.2409 C   0  0  0  0  0  0  0  0  0  0  0  0
  154.7491  134.1564  184.3141 C   0  0  0  0  0  0  0  0  0  0  0  0
  154.3824  134.0385  183.0084 C   0  0  0  0  0  0  0  0  0  0  0  0
  154.6837  132.8376  182.3431 C   0  0  0  0  0  0  0  0  0  0  0  0
  155.3270  131.8201  182.9943 C   0  0  0  0  0  0  0  0  0  0  0  0
  155.6955  131.9453  184.3160 C   0  0  0  0  0  0  0  0  0  0  0  0
  155.4058  133.1087  184.9670 C   0  0  0  0  0  0  0  0  0  0  0  0
  155.6566  133.4546  186.2158 N   0  0  0  0  0  0  0  0  0  0  0  0
  155.1882  134.6928  186.4176 C   0  0  0  0  0  0  0  0  0  0  0  0
  155.2235  135.4950  187.5233 C   0  0  0  0  0  0  0  0  0  0  0  0
  152.6170  139.3214  184.2603 H   0  0  0  0  0  0  0  0  0  0  0  0
  160.1508  134.3489  187.8304 C   0  0  0  0  0  0  0  0  0  0  0  0
  159.8705  133.0622  188.4396 N   0  0  0  0  0  0  0  0  0  0  0  0
  160.2337  133.1220  189.4222 H   0  0  0  0  0  0  0  0  0  0  0  0
  158.2533  133.5953  190.6252 O   0  0  0  0  0  0  0  0  0  0  0  0
  158.4338  132.2565  190.8677 C   0  0  0  0  0  0  0  0  0  0  0  0
 33 34  1  0  0  0
 34  1  1  0  0  0
  1  2  1  0  0  0
  2  3  1  0  0  0
  3  4  1  0  0  0
  4  5  1  0  0  0
  5  6  1  0  0  0
  5  7  1  0  0  0
  7 36  1  0  0  0
 36 37  1  0  0  0
  5  8  1  0  0  0
  8  9  1  0  0  0
  9 10  2  0  0  0
 10 11  1  0  0  0
 11 12  2  0  0  0
 12 13  1  0  0  0
 13 14  2  0  0  0
 14 15  1  0  0  0
 15 16  2  0  0  0
 16 17  1  0  0  0
 17 18  1  0  0  0
 18 19  1  0  0  0
 19 20  2  0  0  0
 19 21  1  0  0  0
 21 22  2  0  0  0
 22 23  1  0  0  0
 23 24  2  0  0  0
 24 25  1  0  0  0
 25 26  2  0  0  0
 26 27  1  0  0  0
 27 28  2  0  0  0
 28 29  1  0  0  0
 29 30  1  0  0  0
 30 31  2  0  0  0
  7  1  1  0  0  0
 31  8  1  0  0  0
 29  3  1  0  0  0
 14  9  1  0  0  0
 31 15  1  0  0  0
 21 16  1  0  0  0
 30 22  1  0  0  0
 28 23  1  0  0  0
 34 35  1  0  0  0
 18 32  1  0  0  0
M  END
> <minimizedAffinity>
-6.83539

> <CNNscore>
0.3517456651

> <CNNaffinity>
5.6888570786

> <CNN_VS>
2.0010309219

> <CNNaffinity_variance>
0.3282870650

$$$$
[H]c1c([H])c([H])c2c(c1[H])c1c3c(c4c5c([H])c([H])c([H])c([H])c5n5c4c1n2[C@@]1(C([H])([H])[H])O[C@]5([H])C([H])([H])[C@@]([H])(N([H])C([H])([H])[H])[C@]1([H])OC([H])([H])[H])C(=O)N([H])C3([H])[H]


 37 44  0  0  0  0  0  0  0  0999 V2000
  149.3583  133.3454  183.7631 C   0  0  0  0  0  0  0  0  0  0  0  0
  149.2725  134.1725  182.5199 C   0  0  0  0  0  0  0  0  0  0  0  0
  148.5459  135.4418  182.8999 C   0  0  0  0  0  0  0  0  0  0  0  0
  148.7081  135.8508  184.1535 O   0  0  0  0  0  0  0  0  0  0  0  0
  149.9120  135.5467  184.8220 C   0  0  0  0  0  0  0  0  0  0  0  0
  149.5196  135.8660  186.2785 C   0  0  0  0  0  0  0  0  0  0  0  0
  150.2732  134.1183  184.7378 C   0  0  0  0  0  0  0  0  0  0  0  0
  150.9457  136.4841  184.4252 N   0  0  0  0  0  0  0  0  0  0  0  0
  152.0338  136.8477  185.1633 C   0  0  0  0  0  0  0  0  0  0  0  0
  152.5093  136.4295  186.3642 C   0  0  0  0  0  0  0  0  0  0  0  0
  153.6685  136.9666  186.8843 C   0  0  0  0  0  0  0  0  0  0  0  0
  154.3901  137.9347  186.2261 C   0  0  0  0  0  0  0  0  0  0  0  0
  153.8809  138.3482  184.9902 C   0  0  0  0  0  0  0  0  0  0  0  0
  152.7379  137.8107  184.4893 C   0  0  0  0  0  0  0  0  0  0  0  0
  152.0877  138.0491  183.3154 C   0  0  0  0  0  0  0  0  0  0  0  0
  152.3103  138.8985  182.2305 C   0  0  0  0  0  0  0  0  0  0  0  0
  153.4117  139.8690  182.0365 C   0  0  0  0  0  0  0  0  0  0  0  0
  153.1701  140.4826  180.7667 N   0  0  0  0  0  0  0  0  0  0  0  0
  151.9774  139.9098  180.2076 C   0  0  0  0  0  0  0  0  0  0  0  0
  151.5608  140.2812  179.1023 O   0  0  0  0  0  0  0  0  0  0  0  0
  151.4581  138.9260  181.1347 C   0  0  0  0  0  0  0  0  0  0  0  0
  150.3732  138.0791  181.1466 C   0  0  0  0  0  0  0  0  0  0  0  0
  149.3512  137.8106  180.2471 C   0  0  0  0  0  0  0  0  0  0  0  0
  149.0428  138.3205  179.0232 C   0  0  0  0  0  0  0  0  0  0  0  0
  147.9110  137.8132  178.3620 C   0  0  0  0  0  0  0  0  0  0  0  0
  147.1453  136.8354  178.9369 C   0  0  0  0  0  0  0  0  0  0  0  0
  147.4625  136.3233  180.1761 C   0  0  0  0  0  0  0  0  0  0  0  0
  148.5600  136.8117  180.8228 C   0  0  0  0  0  0  0  0  0  0  0  0
  149.0542  136.4810  182.0010 N   0  0  0  0  0  0  0  0  0  0  0  0
  150.1434  137.2254  182.2309 C   0  0  0  0  0  0  0  0  0  0  0  0
  151.0112  137.2417  183.2864 C   0  0  0  0  0  0  0  0  0  0  0  0
  153.7797  141.2171  180.3515 H   0  0  0  0  0  0  0  0  0  0  0  0
  151.0879  132.1823  182.6709 C   0  0  0  0  0  0  0  0  0  0  0  0
  149.9252  132.0345  183.5262 N   0  0  0  0  0  0  0  0  0  0  0  0
  150.2764  131.6160  184.4220 H   0  0  0  0  0  0  0  0  0  0  0  0
  150.1950  133.3963  185.9239 O   0  0  0  0  0  0  0  0  0  0  0  0
  151.3924  132.9146  186.3909 C   0  0  0  0  0  0  0  0  0  0  0  0
 33 34  1  0  0  0
 34  1  1  0  0  0
  1  2  1  0  0  0
  2  3  1  0  0  0
  3  4  1  0  0  0
  4  5  1  0  0  0
  5  6  1  0  0  0
  5  7  1  0  0  0
  7 36  1  0  0  0
 36 37  1  0  0  0
  5  8  1  0  0  0
  8  9  1  0  0  0
  9 10  2  0  0  0
 10 11  1  0  0  0
 11 12  2  0  0  0
 12 13  1  0  0  0
 13 14  2  0  0  0
 14 15  1  0  0  0
 15 16  2  0  0  0
 16 17  1  0  0  0
 17 18  1  0  0  0
 18 19  1  0  0  0
 19 20  2  0  0  0
 19 21  1  0  0  0
 21 22  2  0  0  0
 22 23  1  0  0  0
 23 24  2  0  0  0
 24 25  1  0  0  0
 25 26  2  0  0  0
 26 27  1  0  0  0
 27 28  2  0  0  0
 28 29  1  0  0  0
 29 30  1  0  0  0
 30 31  2  0  0  0
  7  1  1  0  0  0
 31  8  1  0  0  0
 29  3  1  0  0  0
 14  9  1  0  0  0
 31 15  1  0  0  0
 21 16  1  0  0  0
 30 22  1  0  0  0
 28 23  1  0  0  0
 34 35  1  0  0  0
 18 32  1  0  0  0
M  END
> <minimizedAffinity>
-6.42276

> <CNNscore>
0.3424393535

> <CNNaffinity>
5.4718027115

> <CNN_VS>
1.8737605810

> <CNNaffinity_variance>
0.4637592435

$$$$
[H]c1c([H])c([H])c2c(c1[H])c1c3c(c4c5c([H])c([H])c([H])c([H])c5n5c4c1n2[C@@]1(C([H])([H])[H])O[C@]5([H])C([H])([H])[C@@]([H])(N([H])C([H])([H])[H])[C@]1([H])OC([H])([H])[H])C(=O)N([H])C3([H])[H]


 37 44  0  0  0  0  0  0  0  0999 V2000
  151.9048  136.5154  185.1654 C   0  0  0  0  0  0  0  0  0  0  0  0
  150.8511  136.1595  186.1654 C   0  0  0  0  0  0  0  0  0  0  0  0
  151.2948  134.8683  186.8131 C   0  0  0  0  0  0  0  0  0  0  0  0
  152.6075  134.6810  186.8955 O   0  0  0  0  0  0  0  0  0  0  0  0
  153.4536  135.8042  187.0009 C   0  0  0  0  0  0  0  0  0  0  0  0
  154.8225  135.1610  186.7015 C   0  0  0  0  0  0  0  0  0  0  0  0
  153.1834  136.8280  185.9728 C   0  0  0  0  0  0  0  0  0  0  0  0
  153.4758  136.2768  188.3724 N   0  0  0  0  0  0  0  0  0  0  0  0
  154.4887  136.9643  188.9742 C   0  0  0  0  0  0  0  0  0  0  0  0
  155.6640  137.4602  188.5094 C   0  0  0  0  0  0  0  0  0  0  0  0
  156.5164  138.1459  189.3497 C   0  0  0  0  0  0  0  0  0  0  0  0
  156.2258  138.3598  190.6767 C   0  0  0  0  0  0  0  0  0  0  0  0
  155.0088  137.8405  191.1317 C   0  0  0  0  0  0  0  0  0  0  0  0
  154.1783  137.1672  190.2932 C   0  0  0  0  0  0  0  0  0  0  0  0
  152.9569  136.6060  190.5189 C   0  0  0  0  0  0  0  0  0  0  0  0
  152.1264  136.4898  191.6346 C   0  0  0  0  0  0  0  0  0  0  0  0
  152.3638  136.9841  193.0100 C   0  0  0  0  0  0  0  0  0  0  0  0
  151.2105  136.6012  193.7654 N   0  0  0  0  0  0  0  0  0  0  0  0
  150.3068  135.9081  192.8901 C   0  0  0  0  0  0  0  0  0  0  0  0
  149.2271  135.4766  193.3159 O   0  0  0  0  0  0  0  0  0  0  0  0
  150.8960  135.8498  191.5686 C   0  0  0  0  0  0  0  0  0  0  0  0
  150.5111  135.3273  190.3548 C   0  0  0  0  0  0  0  0  0  0  0  0
  149.3760  134.6664  189.9074 C   0  0  0  0  0  0  0  0  0  0  0  0
  148.2324  134.2721  190.5318 C   0  0  0  0  0  0  0  0  0  0  0  0
  147.2565  133.6097  189.7673 C   0  0  0  0  0  0  0  0  0  0  0  0
  147.4559  133.3708  188.4346 C   0  0  0  0  0  0  0  0  0  0  0  0
  148.6156  133.7723  187.8081 C   0  0  0  0  0  0  0  0  0  0  0  0
  149.5664  134.4158  188.5449 C   0  0  0  0  0  0  0  0  0  0  0  0
  150.7405  134.8871  188.1691 N   0  0  0  0  0  0  0  0  0  0  0  0
  151.3387  135.4394  189.2324 C   0  0  0  0  0  0  0  0  0  0  0  0
  152.5421  136.0753  189.3536 C   0  0  0  0  0  0  0  0  0  0  0  0
  151.0842  136.8087  194.7775 H   0  0  0  0  0  0  0  0  0  0  0  0
  151.2288  137.2326  183.0286 C   0  0  0  0  0  0  0  0  0  0  0  0
  151.5555  137.6746  184.3715 N   0  0  0  0  0  0  0  0  0  0  0  0
  150.6875  138.1308  184.7450 H   0  0  0  0  0  0  0  0  0  0  0  0
  154.1663  136.9961  185.0035 O   0  0  0  0  0  0  0  0  0  0  0  0
  154.7222  138.2499  184.9510 C   0  0  0  0  0  0  0  0  0  0  0  0
 33 34  1  0  0  0
 34  1  1  0  0  0
  1  2  1  0  0  0
  2  3  1  0  0  0
  3  4  1  0  0  0
  4  5  1  0  0  0
  5  6  1  0  0  0
  5  7  1  0  0  0
  7 36  1  0  0  0
 36 37  1  0  0  0
  5  8  1  0  0  0
  8  9  1  0  0  0
  9 10  2  0  0  0
 10 11  1  0  0  0
 11 12  2  0  0  0
 12 13  1  0  0  0
 13 14  2  0  0  0
 14 15  1  0  0  0
 15 16  2  0  0  0
 16 17  1  0  0  0
 17 18  1  0  0  0
 18 19  1  0  0  0
 19 20  2  0  0  0
 19 21  1  0  0  0
 21 22  2  0  0  0
 22 23  1  0  0  0
 23 24  2  0  0  0
 24 25  1  0  0  0
 25 26  2  0  0  0
 26 27  1  0  0  0
 27 28  2  0  0  0
 28 29  1  0  0  0
 29 30  1  0  0  0
 30 31  2  0  0  0
  7  1  1  0  0  0
 31  8  1  0  0  0
 29  3  1  0  0  0
 14  9  1  0  0  0
 31 15  1  0  0  0
 21 16  1  0  0  0
 30 22  1  0  0  0
 28 23  1  0  0  0
 34 35  1  0  0  0
 18 32  1  0  0  0
M  END
> <minimizedAffinity>
-7.06175

> <CNNscore>
0.3114189804

> <CNNaffinity>
5.5770826340

> <CNN_VS>
1.7368093729

> <CNNaffinity_variance>
0.2744138837

$$$$
[H]c1c([H])c([H])c2c(c1[H])c1c3c(c4c5c([H])c([H])c([H])c([H])c5n5c4c1n2[C@@]1(C([H])([H])[H])O[C@]5([H])C([H])([H])[C@@]([H])(N([H])C([H])([H])[H])[C@]1([H])OC([H])([H])[H])C(=O)N([H])C3([H])[H]


 37 44  0  0  0  0  0  0  0  0999 V2000
  153.3787  135.2265  185.0382 C   0  0  0  0  0  0  0  0  0  0  0  0
  153.9491  135.5714  186.3771 C   0  0  0  0  0  0  0  0  0  0  0  0
  153.4004  136.9324  186.7380 C   0  0  0  0  0  0  0  0  0  0  0  0
  152.1968  137.2202  186.2549 O   0  0  0  0  0  0  0  0  0  0  0  0
  151.2814  136.1714  186.0292 C   0  0  0  0  0  0  0  0  0  0  0  0
  150.2290  136.8910  185.1621 C   0  0  0  0  0  0  0  0  0  0  0  0
  151.8568  135.0634  185.2422 C   0  0  0  0  0  0  0  0  0  0  0  0
  150.6458  135.7956  187.2780 N   0  0  0  0  0  0  0  0  0  0  0  0
  149.4142  135.2261  187.4188 C   0  0  0  0  0  0  0  0  0  0  0  0
  148.4980  134.7869  186.5184 C   0  0  0  0  0  0  0  0  0  0  0  0
  147.3125  134.2237  186.9430 C   0  0  0  0  0  0  0  0  0  0  0  0
  147.0027  134.0795  188.2750 C   0  0  0  0  0  0  0  0  0  0  0  0
  147.9630  134.5382  189.1835 C   0  0  0  0  0  0  0  0  0  0  0  0
  149.1267  135.0908  188.7516 C   0  0  0  0  0  0  0  0  0  0  0  0
  150.1904  135.5754  189.4527 C   0  0  0  0  0  0  0  0  0  0  0  0
  150.4881  135.7060  190.8100 C   0  0  0  0  0  0  0  0  0  0  0  0
  149.6541  135.3245  191.9726 C   0  0  0  0  0  0  0  0  0  0  0  0
  150.4189  135.6725  193.1307 N   0  0  0  0  0  0  0  0  0  0  0  0
  151.6660  136.2369  192.6958 C   0  0  0  0  0  0  0  0  0  0  0  0
  152.5060  136.6164  193.5226 O   0  0  0  0  0  0  0  0  0  0  0  0
  151.6887  136.2485  191.2479 C   0  0  0  0  0  0  0  0  0  0  0  0
  152.5915  136.6582  190.2931 C   0  0  0  0  0  0  0  0  0  0  0  0
  153.8668  137.2028  190.3445 C   0  0  0  0  0  0  0  0  0  0  0  0
  154.6783  137.5539  191.3795 C   0  0  0  0  0  0  0  0  0  0  0  0
  155.9417  138.0901  191.0763 C   0  0  0  0  0  0  0  0  0  0  0  0
  156.3388  138.2521  189.7766 C   0  0  0  0  0  0  0  0  0  0  0  0
  155.5128  137.8949  188.7333 C   0  0  0  0  0  0  0  0  0  0  0  0
  154.2854  137.3738  189.0213 C   0  0  0  0  0  0  0  0  0  0  0  0
  153.3355  136.9651  188.2012 N   0  0  0  0  0  0  0  0  0  0  0  0
  152.2997  136.5311  188.9308 C   0  0  0  0  0  0  0  0  0  0  0  0
  151.1008  135.9943  188.5542 C   0  0  0  0  0  0  0  0  0  0  0  0
  150.0922  135.5253  194.1080 H   0  0  0  0  0  0  0  0  0  0  0  0
  154.7339  134.3118  183.3458 C   0  0  0  0  0  0  0  0  0  0  0  0
  153.9155  133.9938  184.5010 N   0  0  0  0  0  0  0  0  0  0  0  0
  154.5578  133.5371  185.1937 H   0  0  0  0  0  0  0  0  0  0  0  0
  151.3556  134.9022  183.9551 O   0  0  0  0  0  0  0  0  0  0  0  0
  150.6885  133.7231  183.7347 C   0  0  0  0  0  0  0  0  0  0  0  0
 33 34  1  0  0  0
 34  1  1  0  0  0
  1  2  1  0  0  0
  2  3  1  0  0  0
  3  4  1  0  0  0
  4  5  1  0  0  0
  5  6  1  0  0  0
  5  7  1  0  0  0
  7 36  1  0  0  0
 36 37  1  0  0  0
  5  8  1  0  0  0
  8  9  1  0  0  0
  9 10  2  0  0  0
 10 11  1  0  0  0
 11 12  2  0  0  0
 12 13  1  0  0  0
 13 14  2  0  0  0
 14 15  1  0  0  0
 15 16  2  0  0  0
 16 17  1  0  0  0
 17 18  1  0  0  0
 18 19  1  0  0  0
 19 20  2  0  0  0
 19 21  1  0  0  0
 21 22  2  0  0  0
 22 23  1  0  0  0
 23 24  2  0  0  0
 24 25  1  0  0  0
 25 26  2  0  0  0
 26 27  1  0  0  0
 27 28  2  0  0  0
 28 29  1  0  0  0
 29 30  1  0  0  0
 30 31  2  0  0  0
  7  1  1  0  0  0
 31  8  1  0  0  0
 29  3  1  0  0  0
 14  9  1  0  0  0
 31 15  1  0  0  0
 21 16  1  0  0  0
 30 22  1  0  0  0
 28 23  1  0  0  0
 34 35  1  0  0  0
 18 32  1  0  0  0
M  END
> <minimizedAffinity>
-6.82783

> <CNNscore>
0.3076386452

> <CNNaffinity>
5.4587354660

> <CNN_VS>
1.6793179512

> <CNNaffinity_variance>
0.1884628087

$$$$
[H]c1c([H])c([H])c2c(c1[H])c1c3c(c4c5c([H])c([H])c([H])c([H])c5n5c4c1n2[C@@]1(C([H])([H])[H])O[C@]5([H])C([H])([H])[C@@]([H])(N([H])C([H])([H])[H])[C@]1([H])OC([H])([H])[H])C(=O)N([H])C3([H])[H]


 37 44  0  0  0  0  0  0  0  0999 V2000
  149.5303  134.2164  186.1915 C   0  0  0  0  0  0  0  0  0  0  0  0
  150.8368  134.9133  185.9814 C   0  0  0  0  0  0  0  0  0  0  0  0
  150.6019  136.3700  186.3079 C   0  0  0  0  0  0  0  0  0  0  0  0
  149.6730  136.6172  187.2249 O   0  0  0  0  0  0  0  0  0  0  0  0
  149.4374  135.6618  188.2350 C   0  0  0  0  0  0  0  0  0  0  0  0
  148.0990  136.1720  188.8057 C   0  0  0  0  0  0  0  0  0  0  0  0
  149.2303  134.3005  187.7039 C   0  0  0  0  0  0  0  0  0  0  0  0
  150.4405  135.7880  189.2755 N   0  0  0  0  0  0  0  0  0  0  0  0
  150.2945  135.4375  190.5858 C   0  0  0  0  0  0  0  0  0  0  0  0
  149.2875  134.8341  191.2675 C   0  0  0  0  0  0  0  0  0  0  0  0
  149.4106  134.5769  192.6172 C   0  0  0  0  0  0  0  0  0  0  0  0
  150.5386  134.9112  193.3293 C   0  0  0  0  0  0  0  0  0  0  0  0
  151.5628  135.5306  192.6047 C   0  0  0  0  0  0  0  0  0  0  0  0
  151.4285  135.7779  191.2754 C   0  0  0  0  0  0  0  0  0  0  0  0
  152.2953  136.3424  190.3878 C   0  0  0  0  0  0  0  0  0  0  0  0
  153.5820  136.8747  190.4830 C   0  0  0  0  0  0  0  0  0  0  0  0
  154.4404  136.9898  191.6840 C   0  0  0  0  0  0  0  0  0  0  0  0
  155.6512  137.6087  191.2388 N   0  0  0  0  0  0  0  0  0  0  0  0
  155.5397  137.8567  189.8284 C   0  0  0  0  0  0  0  0  0  0  0  0
  156.4705  138.3887  189.2087 O   0  0  0  0  0  0  0  0  0  0  0  0
  154.2442  137.3924  189.3778 C   0  0  0  0  0  0  0  0  0  0  0  0
  153.5885  137.3640  188.1680 C   0  0  0  0  0  0  0  0  0  0  0  0
  153.9290  137.7489  186.8790 C   0  0  0  0  0  0  0  0  0  0  0  0
  155.0445  138.3255  186.3533 C   0  0  0  0  0  0  0  0  0  0  0  0
  155.0647  138.5881  184.9726 C   0  0  0  0  0  0  0  0  0  0  0  0
  153.9912  138.2713  184.1850 C   0  0  0  0  0  0  0  0  0  0  0  0
  152.8648  137.6880  184.7230 C   0  0  0  0  0  0  0  0  0  0  0  0
  152.8394  137.4305  186.0625 C   0  0  0  0  0  0  0  0  0  0  0  0
  151.8846  136.8856  186.7927 N   0  0  0  0  0  0  0  0  0  0  0  0
  152.2985  136.8326  188.0652 C   0  0  0  0  0  0  0  0  0  0  0  0
  151.6903  136.3402  189.1855 C   0  0  0  0  0  0  0  0  0  0  0  0
  156.4555  137.8262  191.8626 H   0  0  0  0  0  0  0  0  0  0  0  0
  150.9153  132.3240  185.9965 C   0  0  0  0  0  0  0  0  0  0  0  0
  149.5679  132.8239  185.7968 N   0  0  0  0  0  0  0  0  0  0  0  0
  148.9501  132.2465  186.4180 H   0  0  0  0  0  0  0  0  0  0  0  0
  147.9444  133.7851  187.8258 O   0  0  0  0  0  0  0  0  0  0  0  0
  147.8338  132.6855  188.6396 C   0  0  0  0  0  0  0  0  0  0  0  0
 33 34  1  0  0  0
 34  1  1  0  0  0
  1  2  1  0  0  0
  2  3  1  0  0  0
  3  4  1  0  0  0
  4  5  1  0  0  0
  5  6  1  0  0  0
  5  7  1  0  0  0
  7 36  1  0  0  0
 36 37  1  0  0  0
  5  8  1  0  0  0
  8  9  1  0  0  0
  9 10  2  0  0  0
 10 11  1  0  0  0
 11 12  2  0  0  0
 12 13  1  0  0  0
 13 14  2  0  0  0
 14 15  1  0  0  0
 15 16  2  0  0  0
 16 17  1  0  0  0
 17 18  1  0  0  0
 18 19  1  0  0  0
 19 20  2  0  0  0
 19 21  1  0  0  0
 21 22  2  0  0  0
 22 23  1  0  0  0
 23 24  2  0  0  0
 24 25  1  0  0  0
 25 26  2  0  0  0
 26 27  1  0  0  0
 27 28  2  0  0  0
 28 29  1  0  0  0
 29 30  1  0  0  0
 30 31  2  0  0  0
  7  1  1  0  0  0
 31  8  1  0  0  0
 29  3  1  0  0  0
 14  9  1  0  0  0
 31 15  1  0  0  0
 21 16  1  0  0  0
 30 22  1  0  0  0
 28 23  1  0  0  0
 34 35  1  0  0  0
 18 32  1  0  0  0
M  END
> <minimizedAffinity>
-6.63968

> <CNNscore>
0.2926853299

> <CNNaffinity>
5.3536181450

> <CNN_VS>
1.5669255257

> <CNNaffinity_variance>
0.4391621649

$$$$
[H]c1c(Cl)c([H])c(C([H])([H])[H])c(OC([H])([H])C([H])([H])C([H])([H])c2c([H])c(C([H])([H])[H])n(C([H])([H])[H])c2[H])c1C(=O)N([H])C(C([H])([H])[H])(C([H])([H])[H])C([H])([H])[H]


 27 28  0  0  0  0  0  0  0  0999 V2000
  154.7991  141.9530  182.6679 C   0  0  0  0  0  0  0  0  0  0  0  0
  153.8510  140.7979  182.4805 C   0  0  0  0  0  0  0  0  0  0  0  0
  152.9939  140.7602  181.4202 C   0  0  0  0  0  0  0  0  0  0  0  0
  152.1713  139.6633  181.2306 C   0  0  0  0  0  0  0  0  0  0  0  0
  151.0547  139.6123  179.8581 Cl  0  0  0  0  0  0  0  0  0  0  0  0
  152.2051  138.6147  182.0867 C   0  0  0  0  0  0  0  0  0  0  0  0
  153.0753  138.6111  183.1920 C   0  0  0  0  0  0  0  0  0  0  0  0
  153.8868  139.7092  183.3802 C   0  0  0  0  0  0  0  0  0  0  0  0
  153.1967  137.3987  183.9686 C   0  0  0  0  0  0  0  0  0  0  0  0
  152.4311  137.3482  185.0313 O   0  0  0  0  0  0  0  0  0  0  0  0
  153.9763  136.2631  183.8189 N   0  0  0  0  0  0  0  0  0  0  0  0
  154.5920  136.1163  183.0150 H   0  0  0  0  0  0  0  0  0  0  0  0
  153.9550  135.1443  184.7658 C   0  0  0  0  0  0  0  0  0  0  0  0
  154.4994  135.5604  186.1103 C   0  0  0  0  0  0  0  0  0  0  0  0
  154.8129  134.0111  184.2478 C   0  0  0  0  0  0  0  0  0  0  0  0
  152.5780  134.5850  184.9732 C   0  0  0  0  0  0  0  0  0  0  0  0
  154.7532  139.8545  184.4118 O   0  0  0  0  0  0  0  0  0  0  0  0
  155.9645  139.3015  184.6989 C   0  0  0  0  0  0  0  0  0  0  0  0
  157.2409  140.0079  184.7774 C   0  0  0  0  0  0  0  0  0  0  0  0
  158.3445  139.6512  183.8472 C   0  0  0  0  0  0  0  0  0  0  0  0
  158.3952  140.7644  182.8155 C   0  0  0  0  0  0  0  0  0  0  0  0
  158.6456  142.0918  183.0162 C   0  0  0  0  0  0  0  0  0  0  0  0
  158.6009  142.7677  181.8178 C   0  0  0  0  0  0  0  0  0  0  0  0
  158.8186  144.2394  181.5889 C   0  0  0  0  0  0  0  0  0  0  0  0
  158.3212  141.8452  180.8804 N   0  0  0  0  0  0  0  0  0  0  0  0
  158.1805  142.1208  179.4676 C   0  0  0  0  0  0  0  0  0  0  0  0
  158.1909  140.6182  181.4595 C   0  0  0  0  0  0  0  0  0  0  0  0
  1  2  1  0  0  0
  2  3  2  0  0  0
  3  4  1  0  0  0
  4  5  1  0  0  0
  4  6  2  0  0  0
  6  7  1  0  0  0
  7  9  1  0  0  0
  9 10  2  0  0  0
  9 11  1  0  0  0
 11 13  1  0  0  0
 13 14  1  0  0  0
 13 15  1  0  0  0
 13 16  1  0  0  0
  7  8  2  0  0  0
  8 17  1  0  0  0
 17 18  1  0  0  0
 18 19  1  0  0  0
 19 20  1  0  0  0
 20 21  1  0  0  0
 21 22  1  0  0  0
 22 23  2  0  0  0
 23 24  1  0  0  0
 23 25  1  0  0  0
 25 26  1  0  0  0
 25 27  1  0  0  0
  8  2  1  0  0  0
 27 21  2  0  0  0
 11 12  1  0  0  0
M  END
> <minimizedAffinity>
-7.06701

> <CNNscore>
0.6765999198

> <CNNaffinity>
6.2731447220

> <CNN_VS>
4.2444090843

> <CNNaffinity_variance>
0.0971897393

$$$$
[H]c1c(Cl)c([H])c(C([H])([H])[H])c(OC([H])([H])C([H])([H])C([H])([H])c2c([H])c(C([H])([H])[H])n(C([H])([H])[H])c2[H])c1C(=O)N([H])C(C([H])([H])[H])(C([H])([H])[H])C([H])([H])[H]


 27 28  0  0  0  0  0  0  0  0999 V2000
  152.3703  136.8900  183.8779 C   0  0  0  0  0  0  0  0  0  0  0  0
  152.4432  138.1010  182.9854 C   0  0  0  0  0  0  0  0  0  0  0  0
  151.4180  138.4115  182.1411 C   0  0  0  0  0  0  0  0  0  0  0  0
  151.4759  139.5603  181.3712 C   0  0  0  0  0  0  0  0  0  0  0  0
  150.1493  139.9649  180.2713 Cl  0  0  0  0  0  0  0  0  0  0  0  0
  152.5423  140.3915  181.4446 C   0  0  0  0  0  0  0  0  0  0  0  0
  153.6206  140.1107  182.3034 C   0  0  0  0  0  0  0  0  0  0  0  0
  153.5611  138.9615  183.0621 C   0  0  0  0  0  0  0  0  0  0  0  0
  154.6456  141.1149  182.4726 C   0  0  0  0  0  0  0  0  0  0  0  0
  154.4492  141.9366  183.4747 O   0  0  0  0  0  0  0  0  0  0  0  0
  155.8094  141.3941  181.7745 N   0  0  0  0  0  0  0  0  0  0  0  0
  156.1398  140.8181  180.9961 H   0  0  0  0  0  0  0  0  0  0  0  0
  156.7030  142.5050  182.1154 C   0  0  0  0  0  0  0  0  0  0  0  0
  157.3789  142.2702  183.4440 C   0  0  0  0  0  0  0  0  0  0  0  0
  155.9140  143.7917  182.2166 C   0  0  0  0  0  0  0  0  0  0  0  0
  157.7689  142.7307  181.0835 C   0  0  0  0  0  0  0  0  0  0  0  0
  154.5345  138.5520  183.9110 O   0  0  0  0  0  0  0  0  0  0  0  0
  154.9733  139.0068  185.1178 C   0  0  0  0  0  0  0  0  0  0  0  0
  154.8853  138.2990  186.3928 C   0  0  0  0  0  0  0  0  0  0  0  0
  153.6555  138.4123  187.2206 C   0  0  0  0  0  0  0  0  0  0  0  0
  154.0424  137.9313  188.6081 C   0  0  0  0  0  0  0  0  0  0  0  0
  155.2704  137.9704  189.2042 C   0  0  0  0  0  0  0  0  0  0  0  0
  155.1987  137.4339  190.4700 C   0  0  0  0  0  0  0  0  0  0  0  0
  156.3184  137.2840  191.4647 C   0  0  0  0  0  0  0  0  0  0  0  0
  153.9176  137.0655  190.6460 N   0  0  0  0  0  0  0  0  0  0  0  0
  153.3931  136.4512  191.8458 C   0  0  0  0  0  0  0  0  0  0  0  0
  153.1922  137.3564  189.5293 C   0  0  0  0  0  0  0  0  0  0  0  0
  1  2  1  0  0  0
  2  3  2  0  0  0
  3  4  1  0  0  0
  4  5  1  0  0  0
  4  6  2  0  0  0
  6  7  1  0  0  0
  7  9  1  0  0  0
  9 10  2  0  0  0
  9 11  1  0  0  0
 11 13  1  0  0  0
 13 14  1  0  0  0
 13 15  1  0  0  0
 13 16  1  0  0  0
  7  8  2  0  0  0
  8 17  1  0  0  0
 17 18  1  0  0  0
 18 19  1  0  0  0
 19 20  1  0  0  0
 20 21  1  0  0  0
 21 22  1  0  0  0
 22 23  2  0  0  0
 23 24  1  0  0  0
 23 25  1  0  0  0
 25 26  1  0  0  0
 25 27  1  0  0  0
  8  2  1  0  0  0
 27 21  2  0  0  0
 11 12  1  0  0  0
M  END
> <minimizedAffinity>
-7.35250

> <CNNscore>
0.5760207772

> <CNNaffinity>
5.8427505493

> <CNN_VS>
3.3655457497

> <CNNaffinity_variance>
0.0773692057

$$$$
[H]c1c(Cl)c([H])c(C([H])([H])[H])c(OC([H])([H])C([H])([H])C([H])([H])c2c([H])c(C([H])([H])[H])n(C([H])([H])[H])c2[H])c1C(=O)N([H])C(C([H])([H])[H])(C([H])([H])[H])C([H])([H])[H]


 27 28  0  0  0  0  0  0  0  0999 V2000
  155.1732  143.1713  182.5066 C   0  0  0  0  0  0  0  0  0  0  0  0
  155.7061  141.9806  183.2595 C   0  0  0  0  0  0  0  0  0  0  0  0
  156.9639  141.9910  183.7869 C   0  0  0  0  0  0  0  0  0  0  0  0
  157.4159  140.9119  184.5265 C   0  0  0  0  0  0  0  0  0  0  0  0
  159.0490  140.9198  185.2093 Cl  0  0  0  0  0  0  0  0  0  0  0  0
  156.6219  139.8361  184.7403 C   0  0  0  0  0  0  0  0  0  0  0  0
  155.3172  139.7845  184.2166 C   0  0  0  0  0  0  0  0  0  0  0  0
  154.8750  140.8585  183.4745 C   0  0  0  0  0  0  0  0  0  0  0  0
  154.4558  138.6970  184.6205 C   0  0  0  0  0  0  0  0  0  0  0  0
  154.2859  137.7653  183.7144 O   0  0  0  0  0  0  0  0  0  0  0  0
  153.7559  138.4389  185.7881 N   0  0  0  0  0  0  0  0  0  0  0  0
  153.8190  139.0379  186.6152 H   0  0  0  0  0  0  0  0  0  0  0  0
  152.9032  137.2604  185.9690 C   0  0  0  0  0  0  0  0  0  0  0  0
  151.8681  137.1660  184.8750 C   0  0  0  0  0  0  0  0  0  0  0  0
  152.1745  137.3466  187.2918 C   0  0  0  0  0  0  0  0  0  0  0  0
  153.6816  135.9774  185.9863 C   0  0  0  0  0  0  0  0  0  0  0  0
  153.6553  140.9360  182.8896 O   0  0  0  0  0  0  0  0  0  0  0  0
  153.2047  140.6741  181.6310 C   0  0  0  0  0  0  0  0  0  0  0  0
  152.0540  139.8455  181.2794 C   0  0  0  0  0  0  0  0  0  0  0  0
  151.6765  139.6676  179.8524 C   0  0  0  0  0  0  0  0  0  0  0  0
  150.2144  139.2575  179.8569 C   0  0  0  0  0  0  0  0  0  0  0  0
  149.3057  139.3790  180.8690 C   0  0  0  0  0  0  0  0  0  0  0  0
  148.0840  138.8866  180.4692 C   0  0  0  0  0  0  0  0  0  0  0  0
  146.8132  138.8287  181.2738 C   0  0  0  0  0  0  0  0  0  0  0  0
  148.2499  138.4619  179.2042 N   0  0  0  0  0  0  0  0  0  0  0  0
  147.2124  137.8669  178.3908 C   0  0  0  0  0  0  0  0  0  0  0  0
  149.5360  138.6755  178.8067 C   0  0  0  0  0  0  0  0  0  0  0  0
  1  2  1  0  0  0
  2  3  2  0  0  0
  3  4  1  0  0  0
  4  5  1  0  0  0
  4  6  2  0  0  0
  6  7  1  0  0  0
  7  9  1  0  0  0
  9 10  2  0  0  0
  9 11  1  0  0  0
 11 13  1  0  0  0
 13 14  1  0  0  0
 13 15  1  0  0  0
 13 16  1  0  0  0
  7  8  2  0  0  0
  8 17  1  0  0  0
 17 18  1  0  0  0
 18 19  1  0  0  0
 19 20  1  0  0  0
 20 21  1  0  0  0
 21 22  1  0  0  0
 22 23  2  0  0  0
 23 24  1  0  0  0
 23 25  1  0  0  0
 25 26  1  0  0  0
 25 27  1  0  0  0
  8  2  1  0  0  0
 27 21  2  0  0  0
 11 12  1  0  0  0
M  END
> <minimizedAffinity>
-6.86934

> <CNNscore>
0.5336838961

> <CNNaffinity>
5.7069444656

> <CNN_VS>
3.0457043648

> <CNNaffinity_variance>
0.0827489570

$$$$
[H]c1c(Cl)c([H])c(C([H])([H])[H])c(OC([H])([H])C([H])([H])C([H])([H])c2c([H])c(C([H])([H])[H])n(C([H])([H])[H])c2[H])c1C(=O)N([H])C(C([H])([H])[H])(C([H])([H])[H])C([H])([H])[H]


 27 28  0  0  0  0  0  0  0  0999 V2000
  155.3828  142.1544  182.0819 C   0  0  0  0  0  0  0  0  0  0  0  0
  154.4398  141.0440  182.4645 C   0  0  0  0  0  0  0  0  0  0  0  0
  153.4024  140.6946  181.6508 C   0  0  0  0  0  0  0  0  0  0  0  0
  152.5812  139.6331  181.9893 C   0  0  0  0  0  0  0  0  0  0  0  0
  151.2314  139.1790  180.9380 Cl  0  0  0  0  0  0  0  0  0  0  0  0
  152.7938  138.9262  183.1244 C   0  0  0  0  0  0  0  0  0  0  0  0
  153.8532  139.2509  183.9911 C   0  0  0  0  0  0  0  0  0  0  0  0
  154.6632  140.3136  183.6530 C   0  0  0  0  0  0  0  0  0  0  0  0
  154.1405  138.3594  185.0914 C   0  0  0  0  0  0  0  0  0  0  0  0
  154.3963  137.1220  184.7431 O   0  0  0  0  0  0  0  0  0  0  0  0
  154.1944  138.5492  186.4628 N   0  0  0  0  0  0  0  0  0  0  0  0
  154.0713  139.4660  186.9001 H   0  0  0  0  0  0  0  0  0  0  0  0
  154.4839  137.4700  187.4117 C   0  0  0  0  0  0  0  0  0  0  0  0
  153.5949  136.2761  187.1640 C   0  0  0  0  0  0  0  0  0  0  0  0
  154.2397  137.9455  188.8268 C   0  0  0  0  0  0  0  0  0  0  0  0
  155.9109  137.0096  187.3499 C   0  0  0  0  0  0  0  0  0  0  0  0
  155.7022  140.7545  184.4026 O   0  0  0  0  0  0  0  0  0  0  0  0
  156.8968  140.2048  184.7582 C   0  0  0  0  0  0  0  0  0  0  0  0
  157.8575  139.5685  183.8602 C   0  0  0  0  0  0  0  0  0  0  0  0
  159.2372  140.1105  183.7454 C   0  0  0  0  0  0  0  0  0  0  0  0
  159.1406  141.2977  182.8034 C   0  0  0  0  0  0  0  0  0  0  0  0
  159.0102  141.2895  181.4441 C   0  0  0  0  0  0  0  0  0  0  0  0
  158.9572  142.5795  180.9665 C   0  0  0  0  0  0  0  0  0  0  0  0
  158.8174  143.0195  179.5338 C   0  0  0  0  0  0  0  0  0  0  0  0
  159.0561  143.3792  182.0428 N   0  0  0  0  0  0  0  0  0  0  0  0
  159.0443  144.8249  182.0006 C   0  0  0  0  0  0  0  0  0  0  0  0
  159.1688  142.6260  183.1732 C   0  0  0  0  0  0  0  0  0  0  0  0
  1  2  1  0  0  0
  2  3  2  0  0  0
  3  4  1  0  0  0
  4  5  1  0  0  0
  4  6  2  0  0  0
  6  7  1  0  0  0
  7  9  1  0  0  0
  9 10  2  0  0  0
  9 11  1  0  0  0
 11 13  1  0  0  0
 13 14  1  0  0  0
 13 15  1  0  0  0
 13 16  1  0  0  0
  7  8  2  0  0  0
  8 17  1  0  0  0
 17 18  1  0  0  0
 18 19  1  0  0  0
 19 20  1  0  0  0
 20 21  1  0  0  0
 21 22  1  0  0  0
 22 23  2  0  0  0
 23 24  1  0  0  0
 23 25  1  0  0  0
 25 26  1  0  0  0
 25 27  1  0  0  0
  8  2  1  0  0  0
 27 21  2  0  0  0
 11 12  1  0  0  0
M  END
> <minimizedAffinity>
-7.29941

> <CNNscore>
0.4793565869

> <CNNaffinity>
6.3252906799

> <CNN_VS>
3.0320696831

> <CNNaffinity_variance>
0.1121258736

$$$$
[H]c1c(Cl)c([H])c(C([H])([H])[H])c(OC([H])([H])C([H])([H])C([H])([H])c2c([H])c(C([H])([H])[H])n(C([H])([H])[H])c2[H])c1C(=O)N([H])C(C([H])([H])[H])(C([H])([H])[H])C([H])([H])[H]


 27 28  0  0  0  0  0  0  0  0999 V2000
  152.5713  137.7664  183.3364 C   0  0  0  0  0  0  0  0  0  0  0  0
  153.7849  138.3731  183.9902 C   0  0  0  0  0  0  0  0  0  0  0  0
  154.2249  137.9264  185.2015 C   0  0  0  0  0  0  0  0  0  0  0  0
  155.3759  138.4544  185.7603 C   0  0  0  0  0  0  0  0  0  0  0  0
  155.9480  137.8803  187.3340 Cl  0  0  0  0  0  0  0  0  0  0  0  0
  156.0817  139.4145  185.1173 C   0  0  0  0  0  0  0  0  0  0  0  0
  155.6651  139.9026  183.8654 C   0  0  0  0  0  0  0  0  0  0  0  0
  154.5142  139.3787  183.3172 C   0  0  0  0  0  0  0  0  0  0  0  0
  156.5456  140.7947  183.1466 C   0  0  0  0  0  0  0  0  0  0  0  0
  157.1159  141.7158  183.8845 O   0  0  0  0  0  0  0  0  0  0  0  0
  156.9097  140.8796  181.8124 N   0  0  0  0  0  0  0  0  0  0  0  0
  156.5965  140.2056  181.1092 H   0  0  0  0  0  0  0  0  0  0  0  0
  157.8165  141.9068  181.2916 C   0  0  0  0  0  0  0  0  0  0  0  0
  157.2859  143.2916  181.5710 C   0  0  0  0  0  0  0  0  0  0  0  0
  157.9610  141.7583  179.7932 C   0  0  0  0  0  0  0  0  0  0  0  0
  159.1973  141.8108  181.8715 C   0  0  0  0  0  0  0  0  0  0  0  0
  153.9816  139.7696  182.1342 O   0  0  0  0  0  0  0  0  0  0  0  0
  153.1028  140.7498  181.7841 C   0  0  0  0  0  0  0  0  0  0  0  0
  151.9239  140.5918  180.9358 C   0  0  0  0  0  0  0  0  0  0  0  0
  151.7925  139.3946  180.0641 C   0  0  0  0  0  0  0  0  0  0  0  0
  150.3110  139.0626  180.0338 C   0  0  0  0  0  0  0  0  0  0  0  0
  149.5646  138.6241  178.9777 C   0  0  0  0  0  0  0  0  0  0  0  0
  148.2573  138.4390  179.3672 C   0  0  0  0  0  0  0  0  0  0  0  0
  147.1079  137.9663  178.5180 C   0  0  0  0  0  0  0  0  0  0  0  0
  148.2072  138.7672  180.6701 N   0  0  0  0  0  0  0  0  0  0  0  0
  147.0152  138.7191  181.4879 C   0  0  0  0  0  0  0  0  0  0  0  0
  149.4422  139.1501  181.1013 C   0  0  0  0  0  0  0  0  0  0  0  0
  1  2  1  0  0  0
  2  3  2  0  0  0
  3  4  1  0  0  0
  4  5  1  0  0  0
  4  6  2  0  0  0
  6  7  1  0  0  0
  7  9  1  0  0  0
  9 10  2  0  0  0
  9 11  1  0  0  0
 11 13  1  0  0  0
 13 14  1  0  0  0
 13 15  1  0  0  0
 13 16  1  0  0  0
  7  8  2  0  0  0
  8 17  1  0  0  0
 17 18  1  0  0  0
 18 19  1  0  0  0
 19 20  1  0  0  0
 20 21  1  0  0  0
 21 22  1  0  0  0
 22 23  2  0  0  0
 23 24  1  0  0  0
 23 25  1  0  0  0
 25 26  1  0  0  0
 25 27  1  0  0  0
  8  2  1  0  0  0
 27 21  2  0  0  0
 11 12  1  0  0  0
M  END
> <minimizedAffinity>
-7.57147

> <CNNscore>
0.4204536676

> <CNNaffinity>
5.7900805473

> <CNN_VS>
2.4344606400

> <CNNaffinity_variance>
0.0887858793

$$$$
[H]c1c(Cl)c([H])c(C([H])([H])[H])c(OC([H])([H])C([H])([H])C([H])([H])c2c([H])c(C([H])([H])[H])n(C([H])([H])[H])c2[H])c1C(=O)N([H])C(C([H])([H])[H])(C([H])([H])[H])C([H])([H])[H]


 27 28  0  0  0  0  0  0  0  0999 V2000
  156.0429  139.2929  184.9389 C   0  0  0  0  0  0  0  0  0  0  0  0
  155.2125  140.1025  183.9781 C   0  0  0  0  0  0  0  0  0  0  0  0
  155.5651  141.3788  183.6509 C   0  0  0  0  0  0  0  0  0  0  0  0
  154.8240  142.0876  182.7212 C   0  0  0  0  0  0  0  0  0  0  0  0
  155.2759  143.7456  182.2969 Cl  0  0  0  0  0  0  0  0  0  0  0  0
  153.7456  141.5290  182.1223 C   0  0  0  0  0  0  0  0  0  0  0  0
  153.3479  140.2148  182.4285 C   0  0  0  0  0  0  0  0  0  0  0  0
  154.0850  139.5164  183.3606 C   0  0  0  0  0  0  0  0  0  0  0  0
  152.3025  139.6095  181.6358 C   0  0  0  0  0  0  0  0  0  0  0  0
  152.7201  138.9809  180.5641 O   0  0  0  0  0  0  0  0  0  0  0  0
  150.9250  139.5641  181.7775 N   0  0  0  0  0  0  0  0  0  0  0  0
  150.4383  139.9597  182.5859 H   0  0  0  0  0  0  0  0  0  0  0  0
  150.0403  138.9021  180.8143 C   0  0  0  0  0  0  0  0  0  0  0  0
  150.3537  139.3345  179.4029 C   0  0  0  0  0  0  0  0  0  0  0  0
  148.5997  139.2628  181.1016 C   0  0  0  0  0  0  0  0  0  0  0  0
  150.1322  137.4054  180.8746 C   0  0  0  0  0  0  0  0  0  0  0  0
  153.8050  138.2559  183.7712 O   0  0  0  0  0  0  0  0  0  0  0  0
  152.8144  137.7221  184.5389 C   0  0  0  0  0  0  0  0  0  0  0  0
  152.8892  137.4333  185.9691 C   0  0  0  0  0  0  0  0  0  0  0  0
  153.0254  138.5471  186.9445 C   0  0  0  0  0  0  0  0  0  0  0  0
  154.1052  138.1151  187.9211 C   0  0  0  0  0  0  0  0  0  0  0  0
  154.3809  138.6268  189.1568 C   0  0  0  0  0  0  0  0  0  0  0  0
  155.4406  137.9538  189.7215 C   0  0  0  0  0  0  0  0  0  0  0  0
  156.0655  138.1972  191.0690 C   0  0  0  0  0  0  0  0  0  0  0  0
  155.8131  137.0253  188.8231 N   0  0  0  0  0  0  0  0  0  0  0  0
  156.8986  136.0874  189.0074 C   0  0  0  0  0  0  0  0  0  0  0  0
  155.0178  137.1011  187.7187 C   0  0  0  0  0  0  0  0  0  0  0  0
  1  2  1  0  0  0
  2  3  2  0  0  0
  3  4  1  0  0  0
  4  5  1  0  0  0
  4  6  2  0  0  0
  6  7  1  0  0  0
  7  9  1  0  0  0
  9 10  2  0  0  0
  9 11  1  0  0  0
 11 13  1  0  0  0
 13 14  1  0  0  0
 13 15  1  0  0  0
 13 16  1  0  0  0
  7  8  2  0  0  0
  8 17  1  0  0  0
 17 18  1  0  0  0
 18 19  1  0  0  0
 19 20  1  0  0  0
 20 21  1  0  0  0
 21 22  1  0  0  0
 22 23  2  0  0  0
 23 24  1  0  0  0
 23 25  1  0  0  0
 25 26  1  0  0  0
 25 27  1  0  0  0
  8  2  1  0  0  0
 27 21  2  0  0  0
 11 12  1  0  0  0
M  END
> <minimizedAffinity>
-7.67368

> <CNNscore>
0.4171643555

> <CNNaffinity>
5.5004177094

> <CNN_VS>
2.2945783138

> <CNNaffinity_variance>
0.4458630085

$$$$
[H]c1c(Cl)c([H])c(C([H])([H])[H])c(OC([H])([H])C([H])([H])C([H])([H])c2c([H])c(C([H])([H])[H])n(C([H])([H])[H])c2[H])c1C(=O)N([H])C(C([H])([H])[H])(C([H])([H])[H])C([H])([H])[H]


 27 28  0  0  0  0  0  0  0  0999 V2000
  152.1545  139.7667  179.7467 C   0  0  0  0  0  0  0  0  0  0  0  0
  150.7921  139.2078  180.0632 C   0  0  0  0  0  0  0  0  0  0  0  0
  149.8914  138.9539  179.0710 C   0  0  0  0  0  0  0  0  0  0  0  0
  148.6665  138.3851  179.3737 C   0  0  0  0  0  0  0  0  0  0  0  0
  147.4931  138.0577  178.0894 Cl  0  0  0  0  0  0  0  0  0  0  0  0
  148.3445  138.0701  180.6507 C   0  0  0  0  0  0  0  0  0  0  0  0
  149.2443  138.3129  181.7044 C   0  0  0  0  0  0  0  0  0  0  0  0
  150.4597  138.8865  181.3982 C   0  0  0  0  0  0  0  0  0  0  0  0
  148.9233  137.7989  183.0161 C   0  0  0  0  0  0  0  0  0  0  0  0
  147.6424  137.7571  183.2911 O   0  0  0  0  0  0  0  0  0  0  0  0
  149.7082  137.3402  184.0617 N   0  0  0  0  0  0  0  0  0  0  0  0
  150.7257  137.2565  183.9947 H   0  0  0  0  0  0  0  0  0  0  0  0
  149.1551  136.8828  185.3399 C   0  0  0  0  0  0  0  0  0  0  0  0
  148.3215  137.9611  185.9877 C   0  0  0  0  0  0  0  0  0  0  0  0
  150.2760  136.5276  186.2915 C   0  0  0  0  0  0  0  0  0  0  0  0
  148.3024  135.6562  185.1981 C   0  0  0  0  0  0  0  0  0  0  0  0
  151.4112  139.1996  182.3105 O   0  0  0  0  0  0  0  0  0  0  0  0
  152.5429  138.5701  182.7332 C   0  0  0  0  0  0  0  0  0  0  0  0
  153.6996  139.2015  183.3638 C   0  0  0  0  0  0  0  0  0  0  0  0
  154.0448  140.6105  183.0382 C   0  0  0  0  0  0  0  0  0  0  0  0
  155.5616  140.6674  182.9929 C   0  0  0  0  0  0  0  0  0  0  0  0
  156.4571  139.8744  183.6518 C   0  0  0  0  0  0  0  0  0  0  0  0
  157.7431  140.2527  183.3389 C   0  0  0  0  0  0  0  0  0  0  0  0
  159.0240  139.6450  183.8446 C   0  0  0  0  0  0  0  0  0  0  0  0
  157.6301  141.2837  182.4832 N   0  0  0  0  0  0  0  0  0  0  0  0
  158.7444  141.9939  181.8951 C   0  0  0  0  0  0  0  0  0  0  0  0
  156.3143  141.5570  182.2554 C   0  0  0  0  0  0  0  0  0  0  0  0
  1  2  1  0  0  0
  2  3  2  0  0  0
  3  4  1  0  0  0
  4  5  1  0  0  0
  4  6  2  0  0  0
  6  7  1  0  0  0
  7  9  1  0  0  0
  9 10  2  0  0  0
  9 11  1  0  0  0
 11 13  1  0  0  0
 13 14  1  0  0  0
 13 15  1  0  0  0
 13 16  1  0  0  0
  7  8  2  0  0  0
  8 17  1  0  0  0
 17 18  1  0  0  0
 18 19  1  0  0  0
 19 20  1  0  0  0
 20 21  1  0  0  0
 21 22  1  0  0  0
 22 23  2  0  0  0
 23 24  1  0  0  0
 23 25  1  0  0  0
 25 26  1  0  0  0
 25 27  1  0  0  0
  8  2  1  0  0  0
 27 21  2  0  0  0
 11 12  1  0  0  0
M  END
> <minimizedAffinity>
-6.47771

> <CNNscore>
0.4113589525

> <CNNaffinity>
5.7211160660

> <CNN_VS>
2.3534324169

> <CNNaffinity_variance>
0.0683195516

$$$$
[H]c1c(Cl)c([H])c(C([H])([H])[H])c(OC([H])([H])C([H])([H])C([H])([H])c2c([H])c(C([H])([H])[H])n(C([H])([H])[H])c2[H])c1C(=O)N([H])C(C([H])([H])[H])(C([H])([H])[H])C([H])([H])[H]


 27 28  0  0  0  0  0  0  0  0999 V2000
  151.9181  139.9089  179.8272 C   0  0  0  0  0  0  0  0  0  0  0  0
  150.8212  139.3372  180.6864 C   0  0  0  0  0  0  0  0  0  0  0  0
  149.5093  139.5205  180.3613 C   0  0  0  0  0  0  0  0  0  0  0  0
  148.5155  138.9384  181.1289 C   0  0  0  0  0  0  0  0  0  0  0  0
  146.8116  139.1772  180.7127 Cl  0  0  0  0  0  0  0  0  0  0  0  0
  148.8263  138.1796  182.2065 C   0  0  0  0  0  0  0  0  0  0  0  0
  150.1661  137.9628  182.5764 C   0  0  0  0  0  0  0  0  0  0  0  0
  151.1514  138.5511  181.8130 C   0  0  0  0  0  0  0  0  0  0  0  0
  150.4453  137.0068  183.6233 C   0  0  0  0  0  0  0  0  0  0  0  0
  150.5582  135.7656  183.2177 O   0  0  0  0  0  0  0  0  0  0  0  0
  150.6136  137.1376  184.9924 N   0  0  0  0  0  0  0  0  0  0  0  0
  150.6086  138.0442  185.4667 H   0  0  0  0  0  0  0  0  0  0  0  0
  150.8665  136.0005  185.8822 C   0  0  0  0  0  0  0  0  0  0  0  0
  152.1253  135.2694  185.4846 C   0  0  0  0  0  0  0  0  0  0  0  0
  149.7170  135.0200  185.8089 C   0  0  0  0  0  0  0  0  0  0  0  0
  150.9980  136.4068  187.3209 C   0  0  0  0  0  0  0  0  0  0  0  0
  152.4790  138.4504  182.0645 O   0  0  0  0  0  0  0  0  0  0  0  0
  153.3087  139.0565  182.9588 C   0  0  0  0  0  0  0  0  0  0  0  0
  154.1262  140.2424  182.7140 C   0  0  0  0  0  0  0  0  0  0  0  0
  154.7070  140.9921  183.8589 C   0  0  0  0  0  0  0  0  0  0  0  0
  155.9793  141.6335  183.3336 C   0  0  0  0  0  0  0  0  0  0  0  0
  156.2061  142.1744  182.1004 C   0  0  0  0  0  0  0  0  0  0  0  0
  157.4943  142.6538  182.0241 C   0  0  0  0  0  0  0  0  0  0  0  0
  158.1528  143.3241  180.8482 C   0  0  0  0  0  0  0  0  0  0  0  0
  158.0561  142.4030  183.2197 N   0  0  0  0  0  0  0  0  0  0  0  0
  159.4148  142.7432  183.5806 C   0  0  0  0  0  0  0  0  0  0  0  0
  157.1571  141.7831  184.0353 C   0  0  0  0  0  0  0  0  0  0  0  0
  1  2  1  0  0  0
  2  3  2  0  0  0
  3  4  1  0  0  0
  4  5  1  0  0  0
  4  6  2  0  0  0
  6  7  1  0  0  0
  7  9  1  0  0  0
  9 10  2  0  0  0
  9 11  1  0  0  0
 11 13  1  0  0  0
 13 14  1  0  0  0
 13 15  1  0  0  0
 13 16  1  0  0  0
  7  8  2  0  0  0
  8 17  1  0  0  0
 17 18  1  0  0  0
 18 19  1  0  0  0
 19 20  1  0  0  0
 20 21  1  0  0  0
 21 22  1  0  0  0
 22 23  2  0  0  0
 23 24  1  0  0  0
 23 25  1  0  0  0
 25 26  1  0  0  0
 25 27  1  0  0  0
  8  2  1  0  0  0
 27 21  2  0  0  0
 11 12  1  0  0  0
M  END
> <minimizedAffinity>
-6.13005

> <CNNscore>
0.4111399055

> <CNNaffinity>
5.7822065353

> <CNN_VS>
2.3772957325

> <CNNaffinity_variance>
0.0800366700

$$$$
[H]c1c(Cl)c([H])c(C([H])([H])[H])c(OC([H])([H])C([H])([H])C([H])([H])c2c([H])c(C([H])([H])[H])n(C([H])([H])[H])c2[H])c1C(=O)N([H])C(C([H])([H])[H])(C([H])([H])[H])C([H])([H])[H]


 27 28  0  0  0  0  0  0  0  0999 V2000
  152.0766  139.6887  179.7256 C   0  0  0  0  0  0  0  0  0  0  0  0
  150.7151  139.1556  180.0870 C   0  0  0  0  0  0  0  0  0  0  0  0
  149.7850  138.8988  179.1230 C   0  0  0  0  0  0  0  0  0  0  0  0
  148.5602  138.3535  179.4672 C   0  0  0  0  0  0  0  0  0  0  0  0
  147.3488  138.0226  178.2197 Cl  0  0  0  0  0  0  0  0  0  0  0  0
  148.2675  138.0646  180.7573 C   0  0  0  0  0  0  0  0  0  0  0  0
  149.1982  138.3113  181.7830 C   0  0  0  0  0  0  0  0  0  0  0  0
  150.4133  138.8615  181.4355 C   0  0  0  0  0  0  0  0  0  0  0  0
  148.9043  137.8239  183.1111 C   0  0  0  0  0  0  0  0  0  0  0  0
  147.6276  137.7434  183.3965 O   0  0  0  0  0  0  0  0  0  0  0  0
  149.7120  137.4245  184.1637 N   0  0  0  0  0  0  0  0  0  0  0  0
  150.7315  137.3762  184.0917 H   0  0  0  0  0  0  0  0  0  0  0  0
  149.1840  136.9844  185.4584 C   0  0  0  0  0  0  0  0  0  0  0  0
  150.2976  136.7664  186.4532 C   0  0  0  0  0  0  0  0  0  0  0  0
  148.4423  135.6760  185.2973 C   0  0  0  0  0  0  0  0  0  0  0  0
  148.2130  137.9623  186.0524 C   0  0  0  0  0  0  0  0  0  0  0  0
  151.3930  139.1753  182.3172 O   0  0  0  0  0  0  0  0  0  0  0  0
  152.5630  138.5719  182.6670 C   0  0  0  0  0  0  0  0  0  0  0  0
  153.4159  138.9290  183.7981 C   0  0  0  0  0  0  0  0  0  0  0  0
  154.5910  138.0836  184.1370 C   0  0  0  0  0  0  0  0  0  0  0  0
  154.3220  137.5356  185.5275 C   0  0  0  0  0  0  0  0  0  0  0  0
  154.0183  136.2535  185.8864 C   0  0  0  0  0  0  0  0  0  0  0  0
  153.8487  136.1719  187.2501 C   0  0  0  0  0  0  0  0  0  0  0  0
  153.5065  134.9487  188.0578 C   0  0  0  0  0  0  0  0  0  0  0  0
  154.0506  137.4135  187.7252 N   0  0  0  0  0  0  0  0  0  0  0  0
  153.9706  137.7862  189.1204 C   0  0  0  0  0  0  0  0  0  0  0  0
  154.3401  138.2628  186.6992 C   0  0  0  0  0  0  0  0  0  0  0  0
  1  2  1  0  0  0
  2  3  2  0  0  0
  3  4  1  0  0  0
  4  5  1  0  0  0
  4  6  2  0  0  0
  6  7  1  0  0  0
  7  9  1  0  0  0
  9 10  2  0  0  0
  9 11  1  0  0  0
 11 13  1  0  0  0
 13 14  1  0  0  0
 13 15  1  0  0  0
 13 16  1  0  0  0
  7  8  2  0  0  0
  8 17  1  0  0  0
 17 18  1  0  0  0
 18 19  1  0  0  0
 19 20  1  0  0  0
 20 21  1  0  0  0
 21 22  1  0  0  0
 22 23  2  0  0  0
 23 24  1  0  0  0
 23 25  1  0  0  0
 25 26  1  0  0  0
 25 27  1  0  0  0
  8  2  1  0  0  0
 27 21  2  0  0  0
 11 12  1  0  0  0
M  END
> <minimizedAffinity>
-4.98262

> <CNNscore>
0.3837775290

> <CNNaffinity>
5.3014278412

> <CNN_VS>
2.0345687866

> <CNNaffinity_variance>
0.0476091132

$$$$
[H]c1nc(C(=O)N2C([H])([H])C([H])([H])C([H])([H])[C@@]2([H])C(=O)N([H])C([H])([H])c2c([H])c([H])c([H])c(C(F)(F)F)c2[H])c([H])c([H])c1-c1c([H])c([H])c([H])c(C([H])([H])C([H])([H])[H])c1[H]


 36 39  0  0  0  0  0  0  0  0999 V2000
  153.2510  137.5922  184.4720 C   0  0  0  0  0  0  0  0  0  0  0  0
  152.4133  137.1239  183.5986 O   0  0  0  0  0  0  0  0  0  0  0  0
  153.3696  136.9235  185.7081 N   0  0  0  0  0  0  0  0  0  0  0  0
  154.1615  137.2033  186.8660 C   0  0  0  0  0  0  0  0  0  0  0  0
  154.7573  135.8055  187.1743 C   0  0  0  0  0  0  0  0  0  0  0  0
  153.9734  134.8335  186.3526 C   0  0  0  0  0  0  0  0  0  0  0  0
  152.7247  135.6652  186.0240 C   0  0  0  0  0  0  0  0  0  0  0  0
  155.4262  140.9956  183.0465 C   0  0  0  0  0  0  0  0  0  0  0  0
  154.1790  140.6572  182.5930 C   0  0  0  0  0  0  0  0  0  0  0  0
  153.4472  139.5814  183.0608 C   0  0  0  0  0  0  0  0  0  0  0  0
  153.9946  138.7728  184.0612 C   0  0  0  0  0  0  0  0  0  0  0  0
  155.2054  139.1183  184.4971 N   0  0  0  0  0  0  0  0  0  0  0  0
  155.9325  140.1654  184.0510 C   0  0  0  0  0  0  0  0  0  0  0  0
  157.9756  142.7607  180.9685 C   0  0  0  0  0  0  0  0  0  0  0  0
  157.7170  144.0785  181.2929 C   0  0  0  0  0  0  0  0  0  0  0  0
  156.7079  144.4048  182.1740 C   0  0  0  0  0  0  0  0  0  0  0  0
  155.9269  143.4080  182.7567 C   0  0  0  0  0  0  0  0  0  0  0  0
  156.1578  142.0932  182.4560 C   0  0  0  0  0  0  0  0  0  0  0  0
  157.1939  141.8132  181.5554 C   0  0  0  0  0  0  0  0  0  0  0  0
  159.6289  143.7455  179.5361 C   0  0  0  0  0  0  0  0  0  0  0  0
  159.0764  142.4280  180.0298 C   0  0  0  0  0  0  0  0  0  0  0  0
  151.8348  135.7931  187.1570 C   0  0  0  0  0  0  0  0  0  0  0  0
  150.8175  136.5640  186.9838 O   0  0  0  0  0  0  0  0  0  0  0  0
  151.9638  135.1843  188.4086 N   0  0  0  0  0  0  0  0  0  0  0  0
  152.7502  134.5444  188.7073 H   0  0  0  0  0  0  0  0  0  0  0  0
  150.9491  135.4275  189.4496 C   0  0  0  0  0  0  0  0  0  0  0  0
  151.5877  136.1500  190.5948 C   0  0  0  0  0  0  0  0  0  0  0  0
  151.0021  136.2056  191.8405 C   0  0  0  0  0  0  0  0  0  0  0  0
  151.6034  136.8665  192.8973 C   0  0  0  0  0  0  0  0  0  0  0  0
  152.8250  137.4734  192.6536 C   0  0  0  0  0  0  0  0  0  0  0  0
  153.4073  137.4214  191.4276 C   0  0  0  0  0  0  0  0  0  0  0  0
  152.7993  136.7564  190.3683 C   0  0  0  0  0  0  0  0  0  0  0  0
  154.7283  138.0813  191.2103 C   0  0  0  0  0  0  0  0  0  0  0  0
  154.7211  139.3195  191.8229 F   0  0  0  0  0  0  0  0  0  0  0  0
  155.7320  137.2534  191.6396 F   0  0  0  0  0  0  0  0  0  0  0  0
  154.8984  138.2953  189.8294 F   0  0  0  0  0  0  0  0  0  0  0  0
 20 21  1  0  0  0
 21 14  1  0  0  0
 14 15  2  0  0  0
 15 16  1  0  0  0
 16 17  2  0  0  0
 17 18  1  0  0  0
 18 19  2  0  0  0
 18  8  1  0  0  0
  8  9  2  0  0  0
  9 10  1  0  0  0
 10 11  2  0  0  0
 11 12  1  0  0  0
 12 13  2  0  0  0
 11  1  1  0  0  0
  1  2  2  0  0  0
  1  3  1  0  0  0
  3  4  1  0  0  0
  4  5  1  0  0  0
  5  6  1  0  0  0
  6  7  1  0  0  0
  7 22  1  0  0  0
 22 23  2  0  0  0
 22 24  1  0  0  0
 24 26  1  0  0  0
 26 27  1  0  0  0
 27 28  2  0  0  0
 28 29  1  0  0  0
 29 30  2  0  0  0
 30 31  1  0  0  0
 31 32  2  0  0  0
 31 33  1  0  0  0
 33 34  1  0  0  0
 33 35  1  0  0  0
 33 36  1  0  0  0
 19 14  1  0  0  0
 13  8  1  0  0  0
  7  3  1  0  0  0
 32 27  1  0  0  0
 24 25  1  0  0  0
M  END
> <minimizedAffinity>
-9.00257

> <CNNscore>
0.5003677011

> <CNNaffinity>
6.2298574448

> <CNN_VS>
3.1172194481

> <CNNaffinity_variance>
0.2091813087

$$$$
[H]c1nc(C(=O)N2C([H])([H])C([H])([H])C([H])([H])[C@@]2([H])C(=O)N([H])C([H])([H])c2c([H])c([H])c([H])c(C(F)(F)F)c2[H])c([H])c([H])c1-c1c([H])c([H])c([H])c(C([H])([H])C([H])([H])[H])c1[H]


 36 39  0  0  0  0  0  0  0  0999 V2000
  153.7102  138.3225  184.1237 C   0  0  0  0  0  0  0  0  0  0  0  0
  152.6438  138.2010  183.3944 O   0  0  0  0  0  0  0  0  0  0  0  0
  153.8264  137.5165  185.2751 N   0  0  0  0  0  0  0  0  0  0  0  0
  154.8405  137.4394  186.2810 C   0  0  0  0  0  0  0  0  0  0  0  0
  155.0462  135.9067  186.3914 C   0  0  0  0  0  0  0  0  0  0  0  0
  153.8926  135.2837  185.6734 C   0  0  0  0  0  0  0  0  0  0  0  0
  152.9034  136.4579  185.6307 C   0  0  0  0  0  0  0  0  0  0  0  0
  156.5150  141.1365  182.5232 C   0  0  0  0  0  0  0  0  0  0  0  0
  155.1624  141.2311  182.3300 C   0  0  0  0  0  0  0  0  0  0  0  0
  154.2377  140.3517  182.8623 C   0  0  0  0  0  0  0  0  0  0  0  0
  154.6885  139.2900  183.6523 C   0  0  0  0  0  0  0  0  0  0  0  0
  156.0061  139.2149  183.8368 N   0  0  0  0  0  0  0  0  0  0  0  0
  156.9216  140.0653  183.3244 C   0  0  0  0  0  0  0  0  0  0  0  0
  158.7665  144.0816  182.0872 C   0  0  0  0  0  0  0  0  0  0  0  0
  159.1151  143.9551  180.7564 C   0  0  0  0  0  0  0  0  0  0  0  0
  158.6358  142.9093  179.9962 C   0  0  0  0  0  0  0  0  0  0  0  0
  157.7873  141.9566  180.5578 C   0  0  0  0  0  0  0  0  0  0  0  0
  157.4233  142.0536  181.8732 C   0  0  0  0  0  0  0  0  0  0  0  0
  157.9367  143.1338  182.6032 C   0  0  0  0  0  0  0  0  0  0  0  0
  160.3951  144.6744  183.7458 C   0  0  0  0  0  0  0  0  0  0  0  0
  159.2801  145.2230  182.8854 C   0  0  0  0  0  0  0  0  0  0  0  0
  152.2828  136.7017  186.9142 C   0  0  0  0  0  0  0  0  0  0  0  0
  151.7194  137.8517  187.0526 O   0  0  0  0  0  0  0  0  0  0  0  0
  152.2377  135.8368  188.0113 N   0  0  0  0  0  0  0  0  0  0  0  0
  152.6688  134.8729  188.0576 H   0  0  0  0  0  0  0  0  0  0  0  0
  151.5508  136.2555  189.2464 C   0  0  0  0  0  0  0  0  0  0  0  0
  152.5126  136.1765  190.3910 C   0  0  0  0  0  0  0  0  0  0  0  0
  152.1927  135.5411  191.5707 C   0  0  0  0  0  0  0  0  0  0  0  0
  153.0908  135.4629  192.6207 C   0  0  0  0  0  0  0  0  0  0  0  0
  154.3321  136.0510  192.4389 C   0  0  0  0  0  0  0  0  0  0  0  0
  154.6533  136.6784  191.2778 C   0  0  0  0  0  0  0  0  0  0  0  0
  153.7475  136.7548  190.2253 C   0  0  0  0  0  0  0  0  0  0  0  0
  156.0051  137.2911  191.1204 C   0  0  0  0  0  0  0  0  0  0  0  0
  156.8461  136.7863  192.0932 F   0  0  0  0  0  0  0  0  0  0  0  0
  156.4528  137.0947  189.8405 F   0  0  0  0  0  0  0  0  0  0  0  0
  155.8945  138.6776  191.3372 F   0  0  0  0  0  0  0  0  0  0  0  0
 20 21  1  0  0  0
 21 14  1  0  0  0
 14 15  2  0  0  0
 15 16  1  0  0  0
 16 17  2  0  0  0
 17 18  1  0  0  0
 18 19  2  0  0  0
 18  8  1  0  0  0
  8  9  2  0  0  0
  9 10  1  0  0  0
 10 11  2  0  0  0
 11 12  1  0  0  0
 12 13  2  0  0  0
 11  1  1  0  0  0
  1  2  2  0  0  0
  1  3  1  0  0  0
  3  4  1  0  0  0
  4  5  1  0  0  0
  5  6  1  0  0  0
  6  7  1  0  0  0
  7 22  1  0  0  0
 22 23  2  0  0  0
 22 24  1  0  0  0
 24 26  1  0  0  0
 26 27  1  0  0  0
 27 28  2  0  0  0
 28 29  1  0  0  0
 29 30  2  0  0  0
 30 31  1  0  0  0
 31 32  2  0  0  0
 31 33  1  0  0  0
 33 34  1  0  0  0
 33 35  1  0  0  0
 33 36  1  0  0  0
 19 14  1  0  0  0
 13  8  1  0  0  0
  7  3  1  0  0  0
 32 27  1  0  0  0
 24 25  1  0  0  0
M  END
> <minimizedAffinity>
-8.67342

> <CNNscore>
0.4903287292

> <CNNaffinity>
6.3384504318

> <CNN_VS>
3.1079244614

> <CNNaffinity_variance>
0.1507979929

$$$$
[H]c1nc(C(=O)N2C([H])([H])C([H])([H])C([H])([H])[C@@]2([H])C(=O)N([H])C([H])([H])c2c([H])c([H])c([H])c(C(F)(F)F)c2[H])c([H])c([H])c1-c1c([H])c([H])c([H])c(C([H])([H])C([H])([H])[H])c1[H]


 36 39  0  0  0  0  0  0  0  0999 V2000
  153.2797  138.2239  186.2839 C   0  0  0  0  0  0  0  0  0  0  0  0
  152.6115  139.0809  186.9929 O   0  0  0  0  0  0  0  0  0  0  0  0
  152.8598  136.8776  186.2945 N   0  0  0  0  0  0  0  0  0  0  0  0
  153.3933  135.7122  185.6592 C   0  0  0  0  0  0  0  0  0  0  0  0
  152.1124  135.0773  185.0593 C   0  0  0  0  0  0  0  0  0  0  0  0
  150.9626  135.7816  185.7046 C   0  0  0  0  0  0  0  0  0  0  0  0
  151.6481  136.4023  186.9309 C   0  0  0  0  0  0  0  0  0  0  0  0
  156.6544  139.9271  184.2696 C   0  0  0  0  0  0  0  0  0  0  0  0
  156.7613  139.1681  185.4046 C   0  0  0  0  0  0  0  0  0  0  0  0
  155.6888  138.5841  186.0531 C   0  0  0  0  0  0  0  0  0  0  0  0
  154.4029  138.7656  185.5354 C   0  0  0  0  0  0  0  0  0  0  0  0
  154.3155  139.5005  184.4274 N   0  0  0  0  0  0  0  0  0  0  0  0
  155.3526  140.0771  183.7823 C   0  0  0  0  0  0  0  0  0  0  0  0
  158.6742  142.0008  181.9130 C   0  0  0  0  0  0  0  0  0  0  0  0
  159.9488  141.7981  182.4059 C   0  0  0  0  0  0  0  0  0  0  0  0
  160.1611  141.0015  183.5111 C   0  0  0  0  0  0  0  0  0  0  0  0
  159.0901  140.3832  184.1544 C   0  0  0  0  0  0  0  0  0  0  0  0
  157.8155  140.5640  183.6909 C   0  0  0  0  0  0  0  0  0  0  0  0
  157.6519  141.3823  182.5654 C   0  0  0  0  0  0  0  0  0  0  0  0
  158.0803  141.9135  179.5904 C   0  0  0  0  0  0  0  0  0  0  0  0
  158.4670  142.8493  180.7127 C   0  0  0  0  0  0  0  0  0  0  0  0
  151.9345  135.4228  187.9559 C   0  0  0  0  0  0  0  0  0  0  0  0
  153.0887  135.5243  188.5185 O   0  0  0  0  0  0  0  0  0  0  0  0
  151.1061  134.3839  188.3899 N   0  0  0  0  0  0  0  0  0  0  0  0
  150.1440  134.1611  188.0134 H   0  0  0  0  0  0  0  0  0  0  0  0
  151.5657  133.4783  189.4582 C   0  0  0  0  0  0  0  0  0  0  0  0
  151.0747  133.9896  190.7768 C   0  0  0  0  0  0  0  0  0  0  0  0
  149.7544  133.8826  191.1555 C   0  0  0  0  0  0  0  0  0  0  0  0
  149.3098  134.3481  192.3806 C   0  0  0  0  0  0  0  0  0  0  0  0
  150.2490  134.9290  193.2174 C   0  0  0  0  0  0  0  0  0  0  0  0
  151.5521  135.0368  192.8497 C   0  0  0  0  0  0  0  0  0  0  0  0
  151.9945  134.5678  191.6174 C   0  0  0  0  0  0  0  0  0  0  0  0
  152.5329  135.6614  193.7853 C   0  0  0  0  0  0  0  0  0  0  0  0
  152.0947  136.9281  194.1198 F   0  0  0  0  0  0  0  0  0  0  0  0
  152.7300  134.8377  194.8622 F   0  0  0  0  0  0  0  0  0  0  0  0
  153.7616  135.8044  193.1133 F   0  0  0  0  0  0  0  0  0  0  0  0
 20 21  1  0  0  0
 21 14  1  0  0  0
 14 15  2  0  0  0
 15 16  1  0  0  0
 16 17  2  0  0  0
 17 18  1  0  0  0
 18 19  2  0  0  0
 18  8  1  0  0  0
  8  9  2  0  0  0
  9 10  1  0  0  0
 10 11  2  0  0  0
 11 12  1  0  0  0
 12 13  2  0  0  0
 11  1  1  0  0  0
  1  2  2  0  0  0
  1  3  1  0  0  0
  3  4  1  0  0  0
  4  5  1  0  0  0
  5  6  1  0  0  0
  6  7  1  0  0  0
  7 22  1  0  0  0
 22 23  2  0  0  0
 22 24  1  0  0  0
 24 26  1  0  0  0
 26 27  1  0  0  0
 27 28  2  0  0  0
 28 29  1  0  0  0
 29 30  2  0  0  0
 30 31  1  0  0  0
 31 32  2  0  0  0
 31 33  1  0  0  0
 33 34  1  0  0  0
 33 35  1  0  0  0
 33 36  1  0  0  0
 19 14  1  0  0  0
 13  8  1  0  0  0
  7  3  1  0  0  0
 32 27  1  0  0  0
 24 25  1  0  0  0
M  END
> <minimizedAffinity>
-7.29615

> <CNNscore>
0.4784745574

> <CNNaffinity>
6.0723586082

> <CNN_VS>
2.9054691792

> <CNNaffinity_variance>
0.5037605762

$$$$
[H]c1nc(C(=O)N2C([H])([H])C([H])([H])C([H])([H])[C@@]2([H])C(=O)N([H])C([H])([H])c2c([H])c([H])c([H])c(C(F)(F)F)c2[H])c([H])c([H])c1-c1c([H])c([H])c([H])c(C([H])([H])C([H])([H])[H])c1[H]


 36 39  0  0  0  0  0  0  0  0999 V2000
  154.4935  138.5387  184.5295 C   0  0  0  0  0  0  0  0  0  0  0  0
  153.5955  138.6439  183.5987 O   0  0  0  0  0  0  0  0  0  0  0  0
  154.3153  137.5503  185.5197 N   0  0  0  0  0  0  0  0  0  0  0  0
  155.0920  137.2109  186.6720 C   0  0  0  0  0  0  0  0  0  0  0  0
  155.1688  135.6676  186.5455 C   0  0  0  0  0  0  0  0  0  0  0  0
  154.1503  135.2874  185.5196 C   0  0  0  0  0  0  0  0  0  0  0  0
  153.2710  136.5465  185.4967 C   0  0  0  0  0  0  0  0  0  0  0  0
  157.8159  141.2416  184.4754 C   0  0  0  0  0  0  0  0  0  0  0  0
  157.9041  139.9514  184.9266 C   0  0  0  0  0  0  0  0  0  0  0  0
  156.8526  139.0536  184.9247 C   0  0  0  0  0  0  0  0  0  0  0  0
  155.6098  139.4662  184.4351 C   0  0  0  0  0  0  0  0  0  0  0  0
  155.5411  140.7215  183.9936 N   0  0  0  0  0  0  0  0  0  0  0  0
  156.5582  141.6100  183.9885 C   0  0  0  0  0  0  0  0  0  0  0  0
  160.7793  142.9535  185.9656 C   0  0  0  0  0  0  0  0  0  0  0  0
  161.0904  143.8605  184.9711 C   0  0  0  0  0  0  0  0  0  0  0  0
  160.3529  143.9143  183.8073 C   0  0  0  0  0  0  0  0  0  0  0  0
  159.2756  143.0518  183.6113 C   0  0  0  0  0  0  0  0  0  0  0  0
  158.9418  142.1419  184.5773 C   0  0  0  0  0  0  0  0  0  0  0  0
  159.7216  142.1264  185.7412 C   0  0  0  0  0  0  0  0  0  0  0  0
  163.0016  142.6320  186.8100 C   0  0  0  0  0  0  0  0  0  0  0  0
  161.5753  142.9210  187.2182 C   0  0  0  0  0  0  0  0  0  0  0  0
  152.4157  136.6417  186.6592 C   0  0  0  0  0  0  0  0  0  0  0  0
  151.6713  137.6911  186.7204 O   0  0  0  0  0  0  0  0  0  0  0  0
  152.3183  135.7321  187.7160 N   0  0  0  0  0  0  0  0  0  0  0  0
  152.8750  134.8394  187.8175 H   0  0  0  0  0  0  0  0  0  0  0  0
  151.3802  135.9927  188.8227 C   0  0  0  0  0  0  0  0  0  0  0  0
  152.1598  136.3488  190.0502 C   0  0  0  0  0  0  0  0  0  0  0  0
  151.8293  135.8559  191.2934 C   0  0  0  0  0  0  0  0  0  0  0  0
  152.5609  136.1812  192.4222 C   0  0  0  0  0  0  0  0  0  0  0  0
  153.6460  137.0262  192.2532 C   0  0  0  0  0  0  0  0  0  0  0  0
  153.9769  137.5148  191.0298 C   0  0  0  0  0  0  0  0  0  0  0  0
  153.2385  137.1855  189.8982 C   0  0  0  0  0  0  0  0  0  0  0  0
  155.1591  138.4152  190.8907 C   0  0  0  0  0  0  0  0  0  0  0  0
  156.2495  137.8270  191.5017 F   0  0  0  0  0  0  0  0  0  0  0  0
  155.3560  138.7147  189.5684 F   0  0  0  0  0  0  0  0  0  0  0  0
  154.8889  139.6152  191.5755 F   0  0  0  0  0  0  0  0  0  0  0  0
 20 21  1  0  0  0
 21 14  1  0  0  0
 14 15  2  0  0  0
 15 16  1  0  0  0
 16 17  2  0  0  0
 17 18  1  0  0  0
 18 19  2  0  0  0
 18  8  1  0  0  0
  8  9  2  0  0  0
  9 10  1  0  0  0
 10 11  2  0  0  0
 11 12  1  0  0  0
 12 13  2  0  0  0
 11  1  1  0  0  0
  1  2  2  0  0  0
  1  3  1  0  0  0
  3  4  1  0  0  0
  4  5  1  0  0  0
  5  6  1  0  0  0
  6  7  1  0  0  0
  7 22  1  0  0  0
 22 23  2  0  0  0
 22 24  1  0  0  0
 24 26  1  0  0  0
 26 27  1  0  0  0
 27 28  2  0  0  0
 28 29  1  0  0  0
 29 30  2  0  0  0
 30 31  1  0  0  0
 31 32  2  0  0  0
 31 33  1  0  0  0
 33 34  1  0  0  0
 33 35  1  0  0  0
 33 36  1  0  0  0
 19 14  1  0  0  0
 13  8  1  0  0  0
  7  3  1  0  0  0
 32 27  1  0  0  0
 24 25  1  0  0  0
M  END
> <minimizedAffinity>
-9.78792

> <CNNscore>
0.4245758057

> <CNNaffinity>
6.4647812843

> <CNN_VS>
2.7447898388

> <CNNaffinity_variance>
0.1747806966

$$$$
[H]c1nc(C(=O)N2C([H])([H])C([H])([H])C([H])([H])[C@@]2([H])C(=O)N([H])C([H])([H])c2c([H])c([H])c([H])c(C(F)(F)F)c2[H])c([H])c([H])c1-c1c([H])c([H])c([H])c(C([H])([H])C([H])([H])[H])c1[H]


 36 39  0  0  0  0  0  0  0  0999 V2000
  154.0355  137.5361  185.0910 C   0  0  0  0  0  0  0  0  0  0  0  0
  153.4642  137.0557  184.0296 O   0  0  0  0  0  0  0  0  0  0  0  0
  153.6889  136.9856  186.3424 N   0  0  0  0  0  0  0  0  0  0  0  0
  154.1076  137.3111  187.6709 C   0  0  0  0  0  0  0  0  0  0  0  0
  154.4187  135.9056  188.2466 C   0  0  0  0  0  0  0  0  0  0  0  0
  153.8260  134.9263  187.2852 C   0  0  0  0  0  0  0  0  0  0  0  0
  152.8420  135.8236  186.5200 C   0  0  0  0  0  0  0  0  0  0  0  0
  156.8693  140.6196  184.1918 C   0  0  0  0  0  0  0  0  0  0  0  0
  155.6587  140.5047  183.5617 C   0  0  0  0  0  0  0  0  0  0  0  0
  154.7173  139.5361  183.8574 C   0  0  0  0  0  0  0  0  0  0  0  0
  154.9964  138.6033  184.8605 C   0  0  0  0  0  0  0  0  0  0  0  0
  156.1748  138.7318  185.4691 N   0  0  0  0  0  0  0  0  0  0  0  0
  157.1043  139.6717  185.1923 C   0  0  0  0  0  0  0  0  0  0  0  0
  158.6666  142.9972  181.9447 C   0  0  0  0  0  0  0  0  0  0  0  0
  159.6527  143.4682  182.7900 C   0  0  0  0  0  0  0  0  0  0  0  0
  159.7335  143.0306  184.0950 C   0  0  0  0  0  0  0  0  0  0  0  0
  158.8190  142.1014  184.5882 C   0  0  0  0  0  0  0  0  0  0  0  0
  157.8305  141.6156  183.7762 C   0  0  0  0  0  0  0  0  0  0  0  0
  157.7904  142.0911  182.4589 C   0  0  0  0  0  0  0  0  0  0  0  0
  158.4878  142.2306  179.6786 C   0  0  0  0  0  0  0  0  0  0  0  0
  158.6051  143.4683  180.5383 C   0  0  0  0  0  0  0  0  0  0  0  0
  151.6640  136.1376  187.2983 C   0  0  0  0  0  0  0  0  0  0  0  0
  151.0443  137.2160  186.9631 O   0  0  0  0  0  0  0  0  0  0  0  0
  151.1373  135.4098  188.3690 N   0  0  0  0  0  0  0  0  0  0  0  0
  151.5419  134.5199  188.7710 H   0  0  0  0  0  0  0  0  0  0  0  0
  149.9157  135.8820  189.0453 C   0  0  0  0  0  0  0  0  0  0  0  0
  150.0101  135.5608  190.5045 C   0  0  0  0  0  0  0  0  0  0  0  0
  149.1905  134.6279  191.1011 C   0  0  0  0  0  0  0  0  0  0  0  0
  149.2905  134.3286  192.4485 C   0  0  0  0  0  0  0  0  0  0  0  0
  150.2530  135.0064  193.1793 C   0  0  0  0  0  0  0  0  0  0  0  0
  151.0641  135.9268  192.5964 C   0  0  0  0  0  0  0  0  0  0  0  0
  150.9599  136.2247  191.2419 C   0  0  0  0  0  0  0  0  0  0  0  0
  152.0939  136.6279  193.4185 C   0  0  0  0  0  0  0  0  0  0  0  0
  153.3394  136.1102  193.1201 F   0  0  0  0  0  0  0  0  0  0  0  0
  151.9924  137.9806  193.2268 F   0  0  0  0  0  0  0  0  0  0  0  0
  151.8398  136.3582  194.7766 F   0  0  0  0  0  0  0  0  0  0  0  0
 20 21  1  0  0  0
 21 14  1  0  0  0
 14 15  2  0  0  0
 15 16  1  0  0  0
 16 17  2  0  0  0
 17 18  1  0  0  0
 18 19  2  0  0  0
 18  8  1  0  0  0
  8  9  2  0  0  0
  9 10  1  0  0  0
 10 11  2  0  0  0
 11 12  1  0  0  0
 12 13  2  0  0  0
 11  1  1  0  0  0
  1  2  2  0  0  0
  1  3  1  0  0  0
  3  4  1  0  0  0
  4  5  1  0  0  0
  5  6  1  0  0  0
  6  7  1  0  0  0
  7 22  1  0  0  0
 22 23  2  0  0  0
 22 24  1  0  0  0
 24 26  1  0  0  0
 26 27  1  0  0  0
 27 28  2  0  0  0
 28 29  1  0  0  0
 29 30  2  0  0  0
 30 31  1  0  0  0
 31 32  2  0  0  0
 31 33  1  0  0  0
 33 34  1  0  0  0
 33 35  1  0  0  0
 33 36  1  0  0  0
 19 14  1  0  0  0
 13  8  1  0  0  0
  7  3  1  0  0  0
 32 27  1  0  0  0
 24 25  1  0  0  0
M  END
> <minimizedAffinity>
-7.88389

> <CNNscore>
0.4144131839

> <CNNaffinity>
6.1173405647

> <CNN_VS>
2.5351066589

> <CNNaffinity_variance>
0.2861430049

$$$$
[H]c1nc(C(=O)N2C([H])([H])C([H])([H])C([H])([H])[C@@]2([H])C(=O)N([H])C([H])([H])c2c([H])c([H])c([H])c(C(F)(F)F)c2[H])c([H])c([H])c1-c1c([H])c([H])c([H])c(C([H])([H])C([H])([H])[H])c1[H]


 36 39  0  0  0  0  0  0  0  0999 V2000
  153.6659  137.6357  186.4960 C   0  0  0  0  0  0  0  0  0  0  0  0
  152.7605  138.3064  187.1396 O   0  0  0  0  0  0  0  0  0  0  0  0
  153.5766  136.2282  186.4919 N   0  0  0  0  0  0  0  0  0  0  0  0
  154.4187  135.2258  185.9155 C   0  0  0  0  0  0  0  0  0  0  0  0
  153.3754  134.3090  185.2265 C   0  0  0  0  0  0  0  0  0  0  0  0
  152.0447  134.7176  185.7713 C   0  0  0  0  0  0  0  0  0  0  0  0
  152.4656  135.4762  187.0387 C   0  0  0  0  0  0  0  0  0  0  0  0
  156.6330  139.8545  184.3465 C   0  0  0  0  0  0  0  0  0  0  0  0
  155.3412  139.7125  183.9141 C   0  0  0  0  0  0  0  0  0  0  0  0
  154.3605  139.0268  184.6068 C   0  0  0  0  0  0  0  0  0  0  0  0
  154.6844  138.4320  185.8298 C   0  0  0  0  0  0  0  0  0  0  0  0
  155.9428  138.5843  186.2406 N   0  0  0  0  0  0  0  0  0  0  0  0
  156.9116  139.2508  185.5763 C   0  0  0  0  0  0  0  0  0  0  0  0
  159.8952  141.3995  183.3954 C   0  0  0  0  0  0  0  0  0  0  0  0
  159.6073  141.8697  182.1286 C   0  0  0  0  0  0  0  0  0  0  0  0
  158.3619  141.6776  181.5692 C   0  0  0  0  0  0  0  0  0  0  0  0
  157.3657  141.0033  182.2735 C   0  0  0  0  0  0  0  0  0  0  0  0
  157.6192  140.5252  183.5303 C   0  0  0  0  0  0  0  0  0  0  0  0
  158.8996  140.7455  184.0546 C   0  0  0  0  0  0  0  0  0  0  0  0
  161.0288  142.5406  185.1751 C   0  0  0  0  0  0  0  0  0  0  0  0
  161.2370  141.6295  183.9871 C   0  0  0  0  0  0  0  0  0  0  0  0
  152.8940  134.5868  188.0958 C   0  0  0  0  0  0  0  0  0  0  0  0
  152.3141  133.4371  188.1276 O   0  0  0  0  0  0  0  0  0  0  0  0
  153.8521  134.8417  189.0811 N   0  0  0  0  0  0  0  0  0  0  0  0
  154.3964  135.7403  189.1973 H   0  0  0  0  0  0  0  0  0  0  0  0
  154.1665  133.8067  190.0824 C   0  0  0  0  0  0  0  0  0  0  0  0
  153.5280  134.1772  191.3848 C   0  0  0  0  0  0  0  0  0  0  0  0
  153.3277  133.2546  192.3880 C   0  0  0  0  0  0  0  0  0  0  0  0
  152.7463  133.6067  193.5936 C   0  0  0  0  0  0  0  0  0  0  0  0
  152.3718  134.9310  193.7545 C   0  0  0  0  0  0  0  0  0  0  0  0
  152.5673  135.8451  192.7691 C   0  0  0  0  0  0  0  0  0  0  0  0
  153.1517  135.4867  191.5590 C   0  0  0  0  0  0  0  0  0  0  0  0
  152.1571  137.2635  192.9873 C   0  0  0  0  0  0  0  0  0  0  0  0
  153.1868  138.0969  192.5955 F   0  0  0  0  0  0  0  0  0  0  0  0
  150.9712  137.5033  192.3446 F   0  0  0  0  0  0  0  0  0  0  0  0
  151.9554  137.4625  194.3662 F   0  0  0  0  0  0  0  0  0  0  0  0
 20 21  1  0  0  0
 21 14  1  0  0  0
 14 15  2  0  0  0
 15 16  1  0  0  0
 16 17  2  0  0  0
 17 18  1  0  0  0
 18 19  2  0  0  0
 18  8  1  0  0  0
  8  9  2  0  0  0
  9 10  1  0  0  0
 10 11  2  0  0  0
 11 12  1  0  0  0
 12 13  2  0  0  0
 11  1  1  0  0  0
  1  2  2  0  0  0
  1  3  1  0  0  0
  3  4  1  0  0  0
  4  5  1  0  0  0
  5  6  1  0  0  0
  6  7  1  0  0  0
  7 22  1  0  0  0
 22 23  2  0  0  0
 22 24  1  0  0  0
 24 26  1  0  0  0
 26 27  1  0  0  0
 27 28  2  0  0  0
 28 29  1  0  0  0
 29 30  2  0  0  0
 30 31  1  0  0  0
 31 32  2  0  0  0
 31 33  1  0  0  0
 33 34  1  0  0  0
 33 35  1  0  0  0
 33 36  1  0  0  0
 19 14  1  0  0  0
 13  8  1  0  0  0
  7  3  1  0  0  0
 32 27  1  0  0  0
 24 25  1  0  0  0
M  END
> <minimizedAffinity>
-7.63246

> <CNNscore>
0.3956073821

> <CNNaffinity>
6.1026749611

> <CNN_VS>
2.4142632484

> <CNNaffinity_variance>
0.3486184776

$$$$
[H]c1nc(C(=O)N2C([H])([H])C([H])([H])C([H])([H])[C@@]2([H])C(=O)N([H])C([H])([H])c2c([H])c([H])c([H])c(C(F)(F)F)c2[H])c([H])c([H])c1-c1c([H])c([H])c([H])c(C([H])([H])C([H])([H])[H])c1[H]


 36 39  0  0  0  0  0  0  0  0999 V2000
  154.7127  137.2362  186.9086 C   0  0  0  0  0  0  0  0  0  0  0  0
  154.2104  136.1302  186.4521 O   0  0  0  0  0  0  0  0  0  0  0  0
  154.9504  137.3388  188.2949 N   0  0  0  0  0  0  0  0  0  0  0  0
  155.4536  138.4131  189.0943 C   0  0  0  0  0  0  0  0  0  0  0  0
  156.5021  137.6787  189.9689 C   0  0  0  0  0  0  0  0  0  0  0  0
  156.2358  136.2185  189.7919 C   0  0  0  0  0  0  0  0  0  0  0  0
  154.8050  136.2455  189.2343 C   0  0  0  0  0  0  0  0  0  0  0  0
  155.6379  140.3690  184.1379 C   0  0  0  0  0  0  0  0  0  0  0  0
  156.5916  139.6809  184.8399 C   0  0  0  0  0  0  0  0  0  0  0  0
  156.3172  138.6467  185.7157 C   0  0  0  0  0  0  0  0  0  0  0  0
  154.9882  138.2604  185.9134 C   0  0  0  0  0  0  0  0  0  0  0  0
  154.0723  138.9344  185.2187 N   0  0  0  0  0  0  0  0  0  0  0  0
  154.3240  139.9459  184.3600 C   0  0  0  0  0  0  0  0  0  0  0  0
  157.6271  142.4110  181.7282 C   0  0  0  0  0  0  0  0  0  0  0  0
  156.8815  143.5733  181.6859 C   0  0  0  0  0  0  0  0  0  0  0  0
  155.7242  143.6983  182.4249 C   0  0  0  0  0  0  0  0  0  0  0  0
  155.2828  142.6508  183.2318 C   0  0  0  0  0  0  0  0  0  0  0  0
  155.9987  141.4865  183.2955 C   0  0  0  0  0  0  0  0  0  0  0  0
  157.1671  141.4085  182.5262 C   0  0  0  0  0  0  0  0  0  0  0  0
  158.4828  142.4607  179.4877 C   0  0  0  0  0  0  0  0  0  0  0  0
  158.8786  142.3009  180.9377 C   0  0  0  0  0  0  0  0  0  0  0  0
  153.8229  136.5461  190.2527 C   0  0  0  0  0  0  0  0  0  0  0  0
  152.7193  137.0588  189.8304 O   0  0  0  0  0  0  0  0  0  0  0  0
  153.9452  136.3508  191.6314 N   0  0  0  0  0  0  0  0  0  0  0  0
  154.7923  135.9601  192.1283 H   0  0  0  0  0  0  0  0  0  0  0  0
  152.8301  136.7137  192.5244 C   0  0  0  0  0  0  0  0  0  0  0  0
  152.3685  135.4892  193.2517 C   0  0  0  0  0  0  0  0  0  0  0  0
  151.3717  135.5367  194.2014 C   0  0  0  0  0  0  0  0  0  0  0  0
  150.9428  134.3989  194.8622 C   0  0  0  0  0  0  0  0  0  0  0  0
  151.5574  133.2024  194.5297 C   0  0  0  0  0  0  0  0  0  0  0  0
  152.5404  133.1495  193.5938 C   0  0  0  0  0  0  0  0  0  0  0  0
  152.9685  134.2956  192.9324 C   0  0  0  0  0  0  0  0  0  0  0  0
  153.1699  131.8382  193.2592 C   0  0  0  0  0  0  0  0  0  0  0  0
  154.3523  132.0645  192.5816 F   0  0  0  0  0  0  0  0  0  0  0  0
  153.3154  131.0936  194.3999 F   0  0  0  0  0  0  0  0  0  0  0  0
  152.3118  131.1408  192.3880 F   0  0  0  0  0  0  0  0  0  0  0  0
 20 21  1  0  0  0
 21 14  1  0  0  0
 14 15  2  0  0  0
 15 16  1  0  0  0
 16 17  2  0  0  0
 17 18  1  0  0  0
 18 19  2  0  0  0
 18  8  1  0  0  0
  8  9  2  0  0  0
  9 10  1  0  0  0
 10 11  2  0  0  0
 11 12  1  0  0  0
 12 13  2  0  0  0
 11  1  1  0  0  0
  1  2  2  0  0  0
  1  3  1  0  0  0
  3  4  1  0  0  0
  4  5  1  0  0  0
  5  6  1  0  0  0
  6  7  1  0  0  0
  7 22  1  0  0  0
 22 23  2  0  0  0
 22 24  1  0  0  0
 24 26  1  0  0  0
 26 27  1  0  0  0
 27 28  2  0  0  0
 28 29  1  0  0  0
 29 30  2  0  0  0
 30 31  1  0  0  0
 31 32  2  0  0  0
 31 33  1  0  0  0
 33 34  1  0  0  0
 33 35  1  0  0  0
 33 36  1  0  0  0
 19 14  1  0  0  0
 13  8  1  0  0  0
  7  3  1  0  0  0
 32 27  1  0  0  0
 24 25  1  0  0  0
M  END
> <minimizedAffinity>
-8.11030

> <CNNscore>
0.3807319403

> <CNNaffinity>
5.9370813370

> <CNN_VS>
2.2604365349

> <CNNaffinity_variance>
0.1099081486

$$$$
[H]c1nc(C(=O)N2C([H])([H])C([H])([H])C([H])([H])[C@@]2([H])C(=O)N([H])C([H])([H])c2c([H])c([H])c([H])c(C(F)(F)F)c2[H])c([H])c([H])c1-c1c([H])c([H])c([H])c(C([H])([H])C([H])([H])[H])c1[H]


 36 39  0  0  0  0  0  0  0  0999 V2000
  154.0244  137.4610  187.1098 C   0  0  0  0  0  0  0  0  0  0  0  0
  153.0279  138.0148  187.7295 O   0  0  0  0  0  0  0  0  0  0  0  0
  154.2706  136.0904  187.3335 N   0  0  0  0  0  0  0  0  0  0  0  0
  155.2884  135.2160  186.8378 C   0  0  0  0  0  0  0  0  0  0  0  0
  154.4508  133.9840  186.4085 C   0  0  0  0  0  0  0  0  0  0  0  0
  153.0977  134.1744  187.0146 C   0  0  0  0  0  0  0  0  0  0  0  0
  153.4052  135.2170  188.0998 C   0  0  0  0  0  0  0  0  0  0  0  0
  156.1829  139.9115  184.3381 C   0  0  0  0  0  0  0  0  0  0  0  0
  154.8335  139.6925  184.2547 C   0  0  0  0  0  0  0  0  0  0  0  0
  154.1126  138.9304  185.1553 C   0  0  0  0  0  0  0  0  0  0  0  0
  154.7822  138.3354  186.2287 C   0  0  0  0  0  0  0  0  0  0  0  0
  156.0932  138.5629  186.3003 N   0  0  0  0  0  0  0  0  0  0  0  0
  156.8113  139.3045  185.4294 C   0  0  0  0  0  0  0  0  0  0  0  0
  159.0158  141.5544  182.5467 C   0  0  0  0  0  0  0  0  0  0  0  0
  158.3544  142.1420  181.4856 C   0  0  0  0  0  0  0  0  0  0  0  0
  156.9913  141.9988  181.3353 C   0  0  0  0  0  0  0  0  0  0  0  0
  156.2519  141.2560  182.2543 C   0  0  0  0  0  0  0  0  0  0  0  0
  156.8773  140.6613  183.3162 C   0  0  0  0  0  0  0  0  0  0  0  0
  158.2632  140.8361  183.4248 C   0  0  0  0  0  0  0  0  0  0  0  0
  160.7863  141.5158  184.1649 C   0  0  0  0  0  0  0  0  0  0  0  0
  160.4815  141.7327  182.7004 C   0  0  0  0  0  0  0  0  0  0  0  0
  154.0967  134.6438  189.2335 C   0  0  0  0  0  0  0  0  0  0  0  0
  153.6324  133.5212  189.6616 O   0  0  0  0  0  0  0  0  0  0  0  0
  155.1964  135.1761  189.9126 N   0  0  0  0  0  0  0  0  0  0  0  0
  155.6746  136.0929  189.6934 H   0  0  0  0  0  0  0  0  0  0  0  0
  155.7782  134.4441  191.0519 C   0  0  0  0  0  0  0  0  0  0  0  0
  157.0846  133.8454  190.6321 C   0  0  0  0  0  0  0  0  0  0  0  0
  157.6269  132.7536  191.2737 C   0  0  0  0  0  0  0  0  0  0  0  0
  158.8300  132.1990  190.8733 C   0  0  0  0  0  0  0  0  0  0  0  0
  159.4720  132.7869  189.7953 C   0  0  0  0  0  0  0  0  0  0  0  0
  158.9419  133.8632  189.1586 C   0  0  0  0  0  0  0  0  0  0  0  0
  157.7326  134.4174  189.5646 C   0  0  0  0  0  0  0  0  0  0  0  0
  159.6621  134.4604  187.9957 C   0  0  0  0  0  0  0  0  0  0  0  0
  158.7422  135.0416  187.1446 F   0  0  0  0  0  0  0  0  0  0  0  0
  160.6268  135.3228  188.4460 F   0  0  0  0  0  0  0  0  0  0  0  0
  160.2981  133.4249  187.2852 F   0  0  0  0  0  0  0  0  0  0  0  0
 20 21  1  0  0  0
 21 14  1  0  0  0
 14 15  2  0  0  0
 15 16  1  0  0  0
 16 17  2  0  0  0
 17 18  1  0  0  0
 18 19  2  0  0  0
 18  8  1  0  0  0
  8  9  2  0  0  0
  9 10  1  0  0  0
 10 11  2  0  0  0
 11 12  1  0  0  0
 12 13  2  0  0  0
 11  1  1  0  0  0
  1  2  2  0  0  0
  1  3  1  0  0  0
  3  4  1  0  0  0
  4  5  1  0  0  0
  5  6  1  0  0  0
  6  7  1  0  0  0
  7 22  1  0  0  0
 22 23  2  0  0  0
 22 24  1  0  0  0
 24 26  1  0  0  0
 26 27  1  0  0  0
 27 28  2  0  0  0
 28 29  1  0  0  0
 29 30  2  0  0  0
 30 31  1  0  0  0
 31 32  2  0  0  0
 31 33  1  0  0  0
 33 34  1  0  0  0
 33 35  1  0  0  0
 33 36  1  0  0  0
 19 14  1  0  0  0
 13  8  1  0  0  0
  7  3  1  0  0  0
 32 27  1  0  0  0
 24 25  1  0  0  0
M  END
> <minimizedAffinity>
-7.79503

> <CNNscore>
0.3788552284

> <CNNaffinity>
6.1795439720

> <CNN_VS>
2.3411524296

> <CNNaffinity_variance>
0.1418941170

$$$$
[H]c1nc(C(=O)N2C([H])([H])C([H])([H])C([H])([H])[C@@]2([H])C(=O)N([H])C([H])([H])c2c([H])c([H])c([H])c(C(F)(F)F)c2[H])c([H])c([H])c1-c1c([H])c([H])c([H])c(C([H])([H])C([H])([H])[H])c1[H]


 36 39  0  0  0  0  0  0  0  0999 V2000
  152.0228  136.7346  185.4196 C   0  0  0  0  0  0  0  0  0  0  0  0
  150.8752  137.1348  184.9651 O   0  0  0  0  0  0  0  0  0  0  0  0
  152.0610  135.5511  186.1857 N   0  0  0  0  0  0  0  0  0  0  0  0
  153.1406  134.8799  186.8416 C   0  0  0  0  0  0  0  0  0  0  0  0
  152.9040  133.4134  186.3976 C   0  0  0  0  0  0  0  0  0  0  0  0
  151.5293  133.3772  185.8117 C   0  0  0  0  0  0  0  0  0  0  0  0
  150.9297  134.6688  186.3873 C   0  0  0  0  0  0  0  0  0  0  0  0
  155.3461  139.3028  184.5790 C   0  0  0  0  0  0  0  0  0  0  0  0
  155.2252  138.5862  185.7399 C   0  0  0  0  0  0  0  0  0  0  0  0
  154.1768  137.7287  186.0184 C   0  0  0  0  0  0  0  0  0  0  0  0
  153.1635  137.5661  185.0692 C   0  0  0  0  0  0  0  0  0  0  0  0
  153.2983  138.2645  183.9424 N   0  0  0  0  0  0  0  0  0  0  0  0
  154.3155  139.1052  183.6553 C   0  0  0  0  0  0  0  0  0  0  0  0
  157.1974  142.2820  183.3022 C   0  0  0  0  0  0  0  0  0  0  0  0
  158.4444  142.0801  183.8616 C   0  0  0  0  0  0  0  0  0  0  0  0
  158.6898  140.9876  184.6661 C   0  0  0  0  0  0  0  0  0  0  0  0
  157.6813  140.0626  184.9311 C   0  0  0  0  0  0  0  0  0  0  0  0
  156.4353  140.2341  184.3921 C   0  0  0  0  0  0  0  0  0  0  0  0
  156.2360  141.3596  183.5819 C   0  0  0  0  0  0  0  0  0  0  0  0
  157.8351  143.2684  181.2105 C   0  0  0  0  0  0  0  0  0  0  0  0
  156.9564  143.4559  182.4260 C   0  0  0  0  0  0  0  0  0  0  0  0
  150.5957  134.5436  187.7890 C   0  0  0  0  0  0  0  0  0  0  0  0
  150.2729  133.3604  188.1827 O   0  0  0  0  0  0  0  0  0  0  0  0
  150.5769  135.5591  188.7494 N   0  0  0  0  0  0  0  0  0  0  0  0
  150.7971  136.5783  188.5767 H   0  0  0  0  0  0  0  0  0  0  0  0
  150.2142  135.2430  190.1426 C   0  0  0  0  0  0  0  0  0  0  0  0
  151.0763  136.0464  191.0660 C   0  0  0  0  0  0  0  0  0  0  0  0
  150.6793  136.3597  192.3474 C   0  0  0  0  0  0  0  0  0  0  0  0
  151.4860  137.0940  193.1991 C   0  0  0  0  0  0  0  0  0  0  0  0
  152.7164  137.5040  192.7111 C   0  0  0  0  0  0  0  0  0  0  0  0
  153.1133  137.1976  191.4487 C   0  0  0  0  0  0  0  0  0  0  0  0
  152.2991  136.4597  190.5962 C   0  0  0  0  0  0  0  0  0  0  0  0
  154.4506  137.6514  190.9658 C   0  0  0  0  0  0  0  0  0  0  0  0
  154.4606  137.6380  189.5845 F   0  0  0  0  0  0  0  0  0  0  0  0
  154.7472  138.8719  191.5131 F   0  0  0  0  0  0  0  0  0  0  0  0
  155.4196  136.7287  191.4032 F   0  0  0  0  0  0  0  0  0  0  0  0
 20 21  1  0  0  0
 21 14  1  0  0  0
 14 15  2  0  0  0
 15 16  1  0  0  0
 16 17  2  0  0  0
 17 18  1  0  0  0
 18 19  2  0  0  0
 18  8  1  0  0  0
  8  9  2  0  0  0
  9 10  1  0  0  0
 10 11  2  0  0  0
 11 12  1  0  0  0
 12 13  2  0  0  0
 11  1  1  0  0  0
  1  2  2  0  0  0
  1  3  1  0  0  0
  3  4  1  0  0  0
  4  5  1  0  0  0
  5  6  1  0  0  0
  6  7  1  0  0  0
  7 22  1  0  0  0
 22 23  2  0  0  0
 22 24  1  0  0  0
 24 26  1  0  0  0
 26 27  1  0  0  0
 27 28  2  0  0  0
 28 29  1  0  0  0
 29 30  2  0  0  0
 30 31  1  0  0  0
 31 32  2  0  0  0
 31 33  1  0  0  0
 33 34  1  0  0  0
 33 35  1  0  0  0
 33 36  1  0  0  0
 19 14  1  0  0  0
 13  8  1  0  0  0
  7  3  1  0  0  0
 32 27  1  0  0  0
 24 25  1  0  0  0
M  END
> <minimizedAffinity>
-7.85306

> <CNNscore>
0.3690523505

> <CNNaffinity>
6.1544556618

> <CNN_VS>
2.2713162899

> <CNNaffinity_variance>
0.1463862509

$$$$
[H]c1c([H])c(-c2c([H])c([H])c3c(c2[H])[C@]2(N=C(N([H])[H])C(C([H])([H])[H])=N2)[C@]2(C3([H])[H])C([H])([H])C([H])([H])[C@@]([H])(OC([H])([H])[H])C([H])([H])C2([H])[H])c([H])c([H])c1F


 31 35  0  0  0  0  0  0  0  0999 V2000
  151.5004  138.0015  181.3832 C   0  0  0  0  0  0  0  0  0  0  0  0
  152.8539  137.7800  182.0367 C   0  0  0  0  0  0  0  0  0  0  0  0
  152.9346  136.3637  182.6199 C   0  0  0  0  0  0  0  0  0  0  0  0
  151.9853  136.3259  183.7786 C   0  0  0  0  0  0  0  0  0  0  0  0
  152.6158  136.9824  184.9793 C   0  0  0  0  0  0  0  0  0  0  0  0
  151.9038  136.3823  186.1241 C   0  0  0  0  0  0  0  0  0  0  0  0
  151.7030  136.8443  187.4415 C   0  0  0  0  0  0  0  0  0  0  0  0
  150.9944  136.0529  188.3151 C   0  0  0  0  0  0  0  0  0  0  0  0
  150.4763  134.8282  187.9472 C   0  0  0  0  0  0  0  0  0  0  0  0
  150.6985  134.4239  186.6552 C   0  0  0  0  0  0  0  0  0  0  0  0
  151.3978  135.1684  185.7350 C   0  0  0  0  0  0  0  0  0  0  0  0
  151.7391  134.9210  184.2959 C   0  0  0  0  0  0  0  0  0  0  0  0
  150.6341  134.2759  183.6278 N   0  0  0  0  0  0  0  0  0  0  0  0
  151.0833  133.1765  183.1411 C   0  0  0  0  0  0  0  0  0  0  0  0
  150.3044  132.1534  182.3535 C   0  0  0  0  0  0  0  0  0  0  0  0
  152.4947  133.0385  183.4586 C   0  0  0  0  0  0  0  0  0  0  0  0
  153.3276  131.9168  183.0667 N   0  0  0  0  0  0  0  0  0  0  0  0
  152.8735  134.0647  184.1360 N   0  0  0  0  0  0  0  0  0  0  0  0
  150.6905  137.0518  183.4930 C   0  0  0  0  0  0  0  0  0  0  0  0
  150.4824  137.0840  181.9758 C   0  0  0  0  0  0  0  0  0  0  0  0
  153.4017  131.0608  183.6230 H   0  0  0  0  0  0  0  0  0  0  0  0
  153.8785  131.9793  182.1782 H   0  0  0  0  0  0  0  0  0  0  0  0
  149.7263  134.0136  188.9086 C   0  0  0  0  0  0  0  0  0  0  0  0
  149.1309  134.5803  190.0156 C   0  0  0  0  0  0  0  0  0  0  0  0
  148.4165  133.8082  190.9326 C   0  0  0  0  0  0  0  0  0  0  0  0
  148.2816  132.4476  190.7619 C   0  0  0  0  0  0  0  0  0  0  0  0
  147.5806  131.7214  191.6703 F   0  0  0  0  0  0  0  0  0  0  0  0
  148.8776  131.8846  189.6550 C   0  0  0  0  0  0  0  0  0  0  0  0
  149.5840  132.6465  188.7477 C   0  0  0  0  0  0  0  0  0  0  0  0
  150.1007  139.5835  180.5694 C   0  0  0  0  0  0  0  0  0  0  0  0
  151.0629  139.3162  181.5459 O   0  0  0  0  0  0  0  0  0  0  0  0
 30 31  1  0  0  0
 31  1  1  0  0  0
  1  2  1  0  0  0
  2  3  1  0  0  0
  4  3  1  0  0  0
  4  5  1  0  0  0
  5  6  1  0  0  0
  6  7  2  0  0  0
  7  8  1  0  0  0
  8  9  2  0  0  0
  9 10  1  0  0  0
 10 11  2  0  0  0
 11 12  1  0  0  0
 12 13  1  0  0  0
 13 14  2  0  0  0
 14 15  1  0  0  0
 14 16  1  0  0  0
 16 17  1  0  0  0
 16 18  2  0  0  0
  9 23  1  0  0  0
 23 24  2  0  0  0
 24 25  1  0  0  0
 25 26  2  0  0  0
 26 27  1  0  0  0
 26 28  1  0  0  0
 28 29  2  0  0  0
  4 19  1  0  0  0
 19 20  1  0  0  0
 20  1  1  0  0  0
 12  4  1  0  0  0
 18 12  1  0  0  0
 29 23  1  0  0  0
 11  6  1  0  0  0
 17 21  1  0  0  0
 17 22  1  0  0  0
M  END
> <minimizedAffinity>
-3.24493

> <CNNscore>
0.5690367222

> <CNNaffinity>
5.6426229477

> <CNN_VS>
3.2108597755

> <CNNaffinity_variance>
1.2674745321

$$$$
[H]c1c([H])c(-c2c([H])c([H])c3c(c2[H])[C@]2(N=C(N([H])[H])C(C([H])([H])[H])=N2)[C@]2(C3([H])[H])C([H])([H])C([H])([H])[C@@]([H])(OC([H])([H])[H])C([H])([H])C2([H])[H])c([H])c([H])c1F


 31 35  0  0  0  0  0  0  0  0999 V2000
  152.3409  133.7726  182.2896 C   0  0  0  0  0  0  0  0  0  0  0  0
  151.5588  132.6496  182.9492 C   0  0  0  0  0  0  0  0  0  0  0  0
  150.5375  133.2256  183.9379 C   0  0  0  0  0  0  0  0  0  0  0  0
  151.3246  133.8063  185.0729 C   0  0  0  0  0  0  0  0  0  0  0  0
  151.7759  132.7069  185.9990 C   0  0  0  0  0  0  0  0  0  0  0  0
  151.9821  133.3941  187.2885 C   0  0  0  0  0  0  0  0  0  0  0  0
  152.7785  133.0612  188.4041 C   0  0  0  0  0  0  0  0  0  0  0  0
  152.7663  133.8995  189.4943 C   0  0  0  0  0  0  0  0  0  0  0  0
  152.0047  135.0495  189.5327 C   0  0  0  0  0  0  0  0  0  0  0  0
  151.2480  135.3291  188.4231 C   0  0  0  0  0  0  0  0  0  0  0  0
  151.2171  134.5323  187.3031 C   0  0  0  0  0  0  0  0  0  0  0  0
  150.4812  134.6585  186.0027 C   0  0  0  0  0  0  0  0  0  0  0  0
  150.4359  136.0410  185.5903 N   0  0  0  0  0  0  0  0  0  0  0  0
  149.1974  136.3494  185.4555 C   0  0  0  0  0  0  0  0  0  0  0  0
  148.6408  137.6873  185.0385 C   0  0  0  0  0  0  0  0  0  0  0  0
  148.3671  135.1986  185.7684 C   0  0  0  0  0  0  0  0  0  0  0  0
  146.9168  135.1845  185.7221 N   0  0  0  0  0  0  0  0  0  0  0  0
  149.1257  134.2099  186.0886 N   0  0  0  0  0  0  0  0  0  0  0  0
  152.5602  134.5419  184.6068 C   0  0  0  0  0  0  0  0  0  0  0  0
  152.3365  134.9870  183.1583 C   0  0  0  0  0  0  0  0  0  0  0  0
  146.3344  135.4726  186.5131 H   0  0  0  0  0  0  0  0  0  0  0  0
  146.4398  134.8672  184.8454 H   0  0  0  0  0  0  0  0  0  0  0  0
  152.0190  135.9173  190.7145 C   0  0  0  0  0  0  0  0  0  0  0  0
  153.1695  136.5643  191.1133 C   0  0  0  0  0  0  0  0  0  0  0  0
  153.1867  137.3910  192.2375 C   0  0  0  0  0  0  0  0  0  0  0  0
  152.0497  137.5893  192.9900 C   0  0  0  0  0  0  0  0  0  0  0  0
  152.0960  138.3992  194.0790 F   0  0  0  0  0  0  0  0  0  0  0  0
  150.9022  136.9416  192.5890 C   0  0  0  0  0  0  0  0  0  0  0  0
  150.8835  136.1242  191.4780 C   0  0  0  0  0  0  0  0  0  0  0  0
  154.1534  134.1757  180.9948 C   0  0  0  0  0  0  0  0  0  0  0  0
  153.6644  133.4019  182.0498 O   0  0  0  0  0  0  0  0  0  0  0  0
 30 31  1  0  0  0
 31  1  1  0  0  0
  1  2  1  0  0  0
  2  3  1  0  0  0
  4  3  1  0  0  0
  4  5  1  0  0  0
  5  6  1  0  0  0
  6  7  2  0  0  0
  7  8  1  0  0  0
  8  9  2  0  0  0
  9 10  1  0  0  0
 10 11  2  0  0  0
 11 12  1  0  0  0
 12 13  1  0  0  0
 13 14  2  0  0  0
 14 15  1  0  0  0
 14 16  1  0  0  0
 16 17  1  0  0  0
 16 18  2  0  0  0
  9 23  1  0  0  0
 23 24  2  0  0  0
 24 25  1  0  0  0
 25 26  2  0  0  0
 26 27  1  0  0  0
 26 28  1  0  0  0
 28 29  2  0  0  0
  4 19  1  0  0  0
 19 20  1  0  0  0
 20  1  1  0  0  0
 12  4  1  0  0  0
 18 12  1  0  0  0
 29 23  1  0  0  0
 11  6  1  0  0  0
 17 21  1  0  0  0
 17 22  1  0  0  0
M  END
> <minimizedAffinity>
-4.29162

> <CNNscore>
0.5398073792

> <CNNaffinity>
5.5918450356

> <CNN_VS>
3.0185191631

> <CNNaffinity_variance>
0.8785136938

$$$$
[H]c1c([H])c(-c2c([H])c([H])c3c(c2[H])[C@]2(N=C(N([H])[H])C(C([H])([H])[H])=N2)[C@]2(C3([H])[H])C([H])([H])C([H])([H])[C@@]([H])(OC([H])([H])[H])C([H])([H])C2([H])[H])c([H])c([H])c1F


 31 35  0  0  0  0  0  0  0  0999 V2000
  155.2748  132.7550  181.8459 C   0  0  0  0  0  0  0  0  0  0  0  0
  154.7836  131.6924  182.8142 C   0  0  0  0  0  0  0  0  0  0  0  0
  153.7207  132.2804  183.7507 C   0  0  0  0  0  0  0  0  0  0  0  0
  154.4303  133.2534  184.6422 C   0  0  0  0  0  0  0  0  0  0  0  0
  155.1530  132.5125  185.7370 C   0  0  0  0  0  0  0  0  0  0  0  0
  155.2818  133.5125  186.8144 C   0  0  0  0  0  0  0  0  0  0  0  0
  156.1910  133.6126  187.8881 C   0  0  0  0  0  0  0  0  0  0  0  0
  156.0639  134.6674  188.7614 C   0  0  0  0  0  0  0  0  0  0  0  0
  155.0813  135.6261  188.6226 C   0  0  0  0  0  0  0  0  0  0  0  0
  154.2222  135.4843  187.5624 C   0  0  0  0  0  0  0  0  0  0  0  0
  154.2970  134.4537  186.6556 C   0  0  0  0  0  0  0  0  0  0  0  0
  153.4799  134.1244  185.4422 C   0  0  0  0  0  0  0  0  0  0  0  0
  153.1227  135.3346  184.7411 N   0  0  0  0  0  0  0  0  0  0  0  0
  151.8414  135.3595  184.6695 C   0  0  0  0  0  0  0  0  0  0  0  0
  150.9942  136.4283  184.0264 C   0  0  0  0  0  0  0  0  0  0  0  0
  151.2899  134.1790  185.3128 C   0  0  0  0  0  0  0  0  0  0  0  0
  149.8746  133.8772  185.4200 N   0  0  0  0  0  0  0  0  0  0  0  0
  152.2557  133.4585  185.7639 N   0  0  0  0  0  0  0  0  0  0  0  0
  155.4562  134.0796  183.9005 C   0  0  0  0  0  0  0  0  0  0  0  0
  155.0639  134.1170  182.4203 C   0  0  0  0  0  0  0  0  0  0  0  0
  149.2896  134.2280  186.1832 H   0  0  0  0  0  0  0  0  0  0  0  0
  149.4268  133.2757  184.6889 H   0  0  0  0  0  0  0  0  0  0  0  0
  154.9788  136.7360  189.5755 C   0  0  0  0  0  0  0  0  0  0  0  0
  155.9812  137.6759  189.6897 C   0  0  0  0  0  0  0  0  0  0  0  0
  155.8870  138.7334  190.5954 C   0  0  0  0  0  0  0  0  0  0  0  0
  154.7844  138.8744  191.4095 C   0  0  0  0  0  0  0  0  0  0  0  0
  154.7200  139.9134  192.2814 F   0  0  0  0  0  0  0  0  0  0  0  0
  153.7849  137.9339  191.2929 C   0  0  0  0  0  0  0  0  0  0  0  0
  153.8765  136.8881  190.3981 C   0  0  0  0  0  0  0  0  0  0  0  0
  156.8079  132.7350  180.1805 C   0  0  0  0  0  0  0  0  0  0  0  0
  156.6311  132.5980  181.5592 O   0  0  0  0  0  0  0  0  0  0  0  0
 30 31  1  0  0  0
 31  1  1  0  0  0
  1  2  1  0  0  0
  2  3  1  0  0  0
  4  3  1  0  0  0
  4  5  1  0  0  0
  5  6  1  0  0  0
  6  7  2  0  0  0
  7  8  1  0  0  0
  8  9  2  0  0  0
  9 10  1  0  0  0
 10 11  2  0  0  0
 11 12  1  0  0  0
 12 13  1  0  0  0
 13 14  2  0  0  0
 14 15  1  0  0  0
 14 16  1  0  0  0
 16 17  1  0  0  0
 16 18  2  0  0  0
  9 23  1  0  0  0
 23 24  2  0  0  0
 24 25  1  0  0  0
 25 26  2  0  0  0
 26 27  1  0  0  0
 26 28  1  0  0  0
 28 29  2  0  0  0
  4 19  1  0  0  0
 19 20  1  0  0  0
 20  1  1  0  0  0
 12  4  1  0  0  0
 18 12  1  0  0  0
 29 23  1  0  0  0
 11  6  1  0  0  0
 17 21  1  0  0  0
 17 22  1  0  0  0
M  END
> <minimizedAffinity>
-4.09200

> <CNNscore>
0.4694510996

> <CNNaffinity>
5.5809907913

> <CNN_VS>
2.6200022697

> <CNNaffinity_variance>
1.0039584637

$$$$
[H]c1c([H])c(-c2c([H])c([H])c3c(c2[H])[C@]2(N=C(N([H])[H])C(C([H])([H])[H])=N2)[C@]2(C3([H])[H])C([H])([H])C([H])([H])[C@@]([H])(OC([H])([H])[H])C([H])([H])C2([H])[H])c([H])c([H])c1F


 31 35  0  0  0  0  0  0  0  0999 V2000
  158.3415  141.9413  182.6826 C   0  0  0  0  0  0  0  0  0  0  0  0
  157.7011  142.5165  181.4308 C   0  0  0  0  0  0  0  0  0  0  0  0
  156.2648  142.9645  181.7291 C   0  0  0  0  0  0  0  0  0  0  0  0
  155.4725  141.7170  181.9760 C   0  0  0  0  0  0  0  0  0  0  0  0
  155.1209  141.0650  180.6640 C   0  0  0  0  0  0  0  0  0  0  0  0
  153.9203  140.2664  180.9773 C   0  0  0  0  0  0  0  0  0  0  0  0
  153.3675  139.1307  180.3495 C   0  0  0  0  0  0  0  0  0  0  0  0
  152.2110  138.5925  180.8638 C   0  0  0  0  0  0  0  0  0  0  0  0
  151.5770  139.1241  181.9680 C   0  0  0  0  0  0  0  0  0  0  0  0
  152.1543  140.2281  182.5426 C   0  0  0  0  0  0  0  0  0  0  0  0
  153.3083  140.8122  182.0766 C   0  0  0  0  0  0  0  0  0  0  0  0
  154.0975  141.9943  182.5545 C   0  0  0  0  0  0  0  0  0  0  0  0
  154.1069  142.0342  183.9973 N   0  0  0  0  0  0  0  0  0  0  0  0
  153.6215  143.1713  184.3419 C   0  0  0  0  0  0  0  0  0  0  0  0
  153.4271  143.6808  185.7478 C   0  0  0  0  0  0  0  0  0  0  0  0
  153.2694  143.9352  183.1570 C   0  0  0  0  0  0  0  0  0  0  0  0
  152.6936  145.2671  183.1691 N   0  0  0  0  0  0  0  0  0  0  0  0
  153.5509  143.2397  182.1117 N   0  0  0  0  0  0  0  0  0  0  0  0
  156.2307  140.7003  182.7985 C   0  0  0  0  0  0  0  0  0  0  0  0
  157.2915  141.4406  183.6187 C   0  0  0  0  0  0  0  0  0  0  0  0
  151.6862  145.4345  183.2393 H   0  0  0  0  0  0  0  0  0  0  0  0
  153.3301  146.0962  183.1036 H   0  0  0  0  0  0  0  0  0  0  0  0
  150.3450  138.5209  182.4860 C   0  0  0  0  0  0  0  0  0  0  0  0
  149.1136  138.8393  181.9534 C   0  0  0  0  0  0  0  0  0  0  0  0
  147.9390  138.2673  182.4439 C   0  0  0  0  0  0  0  0  0  0  0  0
  147.9704  137.3612  183.4814 C   0  0  0  0  0  0  0  0  0  0  0  0
  146.8116  136.8205  183.9382 F   0  0  0  0  0  0  0  0  0  0  0  0
  149.2020  137.0453  184.0112 C   0  0  0  0  0  0  0  0  0  0  0  0
  150.3639  137.6098  183.5274 C   0  0  0  0  0  0  0  0  0  0  0  0
  159.9812  140.6160  183.5065 C   0  0  0  0  0  0  0  0  0  0  0  0
  159.2047  140.8885  182.3779 O   0  0  0  0  0  0  0  0  0  0  0  0
 30 31  1  0  0  0
 31  1  1  0  0  0
  1  2  1  0  0  0
  2  3  1  0  0  0
  4  3  1  0  0  0
  4  5  1  0  0  0
  5  6  1  0  0  0
  6  7  2  0  0  0
  7  8  1  0  0  0
  8  9  2  0  0  0
  9 10  1  0  0  0
 10 11  2  0  0  0
 11 12  1  0  0  0
 12 13  1  0  0  0
 13 14  2  0  0  0
 14 15  1  0  0  0
 14 16  1  0  0  0
 16 17  1  0  0  0
 16 18  2  0  0  0
  9 23  1  0  0  0
 23 24  2  0  0  0
 24 25  1  0  0  0
 25 26  2  0  0  0
 26 27  1  0  0  0
 26 28  1  0  0  0
 28 29  2  0  0  0
  4 19  1  0  0  0
 19 20  1  0  0  0
 20  1  1  0  0  0
 12  4  1  0  0  0
 18 12  1  0  0  0
 29 23  1  0  0  0
 11  6  1  0  0  0
 17 21  1  0  0  0
 17 22  1  0  0  0
M  END
> <minimizedAffinity>
5.91682

> <CNNscore>
0.4678505659

> <CNNaffinity>
6.6386017799

> <CNN_VS>
3.1058735847

> <CNNaffinity_variance>
1.1447627544

$$$$
[H]c1c([H])c(-c2c([H])c([H])c3c(c2[H])[C@]2(N=C(N([H])[H])C(C([H])([H])[H])=N2)[C@]2(C3([H])[H])C([H])([H])C([H])([H])[C@@]([H])(OC([H])([H])[H])C([H])([H])C2([H])[H])c([H])c([H])c1F


 31 35  0  0  0  0  0  0  0  0999 V2000
  149.0135  137.1257  181.3891 C   0  0  0  0  0  0  0  0  0  0  0  0
  149.3209  135.6453  181.5371 C   0  0  0  0  0  0  0  0  0  0  0  0
  149.2770  135.2410  183.0160 C   0  0  0  0  0  0  0  0  0  0  0  0
  150.4508  135.9010  183.6727 C   0  0  0  0  0  0  0  0  0  0  0  0
  151.7074  135.1241  183.3769 C   0  0  0  0  0  0  0  0  0  0  0  0
  152.6114  135.4787  184.4880 C   0  0  0  0  0  0  0  0  0  0  0  0
  154.0181  135.4520  184.5886 C   0  0  0  0  0  0  0  0  0  0  0  0
  154.5999  135.8351  185.7745 C   0  0  0  0  0  0  0  0  0  0  0  0
  153.8569  136.2426  186.8633 C   0  0  0  0  0  0  0  0  0  0  0  0
  152.4930  136.2513  186.7149 C   0  0  0  0  0  0  0  0  0  0  0  0
  151.8517  135.8806  185.5567 C   0  0  0  0  0  0  0  0  0  0  0  0
  150.3993  135.8284  185.1873 C   0  0  0  0  0  0  0  0  0  0  0  0
  149.6993  136.9497  185.7671 N   0  0  0  0  0  0  0  0  0  0  0  0
  148.7571  136.4663  186.4924 C   0  0  0  0  0  0  0  0  0  0  0  0
  147.7515  137.2452  187.3022 C   0  0  0  0  0  0  0  0  0  0  0  0
  148.7845  135.0147  186.4307 C   0  0  0  0  0  0  0  0  0  0  0  0
  147.8634  134.1369  187.1285 N   0  0  0  0  0  0  0  0  0  0  0  0
  149.7497  134.6465  185.6637 N   0  0  0  0  0  0  0  0  0  0  0  0
  150.6682  137.3161  183.1877 C   0  0  0  0  0  0  0  0  0  0  0  0
  149.3359  137.8510  182.6538 C   0  0  0  0  0  0  0  0  0  0  0  0
  148.0180  133.8238  188.0907 H   0  0  0  0  0  0  0  0  0  0  0  0
  147.0024  133.8064  186.6323 H   0  0  0  0  0  0  0  0  0  0  0  0
  154.5152  136.6434  188.1108 C   0  0  0  0  0  0  0  0  0  0  0  0
  155.2790  137.7893  188.1806 C   0  0  0  0  0  0  0  0  0  0  0  0
  155.9070  138.1737  189.3661 C   0  0  0  0  0  0  0  0  0  0  0  0
  155.7843  137.4179  190.5116 C   0  0  0  0  0  0  0  0  0  0  0  0
  156.4065  137.8165  191.6508 F   0  0  0  0  0  0  0  0  0  0  0  0
  155.0206  136.2739  190.4385 C   0  0  0  0  0  0  0  0  0  0  0  0
  154.3992  135.8926  189.2674 C   0  0  0  0  0  0  0  0  0  0  0  0
  149.2421  138.9792  180.1098 C   0  0  0  0  0  0  0  0  0  0  0  0
  149.7456  137.6985  180.3486 O   0  0  0  0  0  0  0  0  0  0  0  0
 30 31  1  0  0  0
 31  1  1  0  0  0
  1  2  1  0  0  0
  2  3  1  0  0  0
  4  3  1  0  0  0
  4  5  1  0  0  0
  5  6  1  0  0  0
  6  7  2  0  0  0
  7  8  1  0  0  0
  8  9  2  0  0  0
  9 10  1  0  0  0
 10 11  2  0  0  0
 11 12  1  0  0  0
 12 13  1  0  0  0
 13 14  2  0  0  0
 14 15  1  0  0  0
 14 16  1  0  0  0
 16 17  1  0  0  0
 16 18  2  0  0  0
  9 23  1  0  0  0
 23 24  2  0  0  0
 24 25  1  0  0  0
 25 26  2  0  0  0
 26 27  1  0  0  0
 26 28  1  0  0  0
 28 29  2  0  0  0
  4 19  1  0  0  0
 19 20  1  0  0  0
 20  1  1  0  0  0
 12  4  1  0  0  0
 18 12  1  0  0  0
 29 23  1  0  0  0
 11  6  1  0  0  0
 17 21  1  0  0  0
 17 22  1  0  0  0
M  END
> <minimizedAffinity>
-4.90967

> <CNNscore>
0.3842139542

> <CNNaffinity>
5.7230262756

> <CNN_VS>
2.1988666058

> <CNNaffinity_variance>
0.4343640208

$$$$
[H]c1c([H])c(-c2c([H])c([H])c3c(c2[H])[C@]2(N=C(N([H])[H])C(C([H])([H])[H])=N2)[C@]2(C3([H])[H])C([H])([H])C([H])([H])[C@@]([H])(OC([H])([H])[H])C([H])([H])C2([H])[H])c([H])c([H])c1F


 31 35  0  0  0  0  0  0  0  0999 V2000
  149.5284  137.3081  182.4865 C   0  0  0  0  0  0  0  0  0  0  0  0
  150.9422  136.7618  182.3837 C   0  0  0  0  0  0  0  0  0  0  0  0
  151.1524  135.6409  183.4093 C   0  0  0  0  0  0  0  0  0  0  0  0
  151.1342  136.2904  184.7594 C   0  0  0  0  0  0  0  0  0  0  0  0
  152.4631  136.9467  185.0303 C   0  0  0  0  0  0  0  0  0  0  0  0
  152.5342  137.0050  186.5031 C   0  0  0  0  0  0  0  0  0  0  0  0
  153.2661  137.8457  187.3674 C   0  0  0  0  0  0  0  0  0  0  0  0
  153.1429  137.6609  188.7247 C   0  0  0  0  0  0  0  0  0  0  0  0
  152.3311  136.6853  189.2660 C   0  0  0  0  0  0  0  0  0  0  0  0
  151.6401  135.8940  188.3837 C   0  0  0  0  0  0  0  0  0  0  0  0
  151.7203  136.0285  187.0178 C   0  0  0  0  0  0  0  0  0  0  0  0
  151.0535  135.2892  185.8965 C   0  0  0  0  0  0  0  0  0  0  0  0
  149.6911  134.9717  186.2525 N   0  0  0  0  0  0  0  0  0  0  0  0
  149.5694  133.6972  186.1613 C   0  0  0  0  0  0  0  0  0  0  0  0
  148.3270  132.8875  186.4346 C   0  0  0  0  0  0  0  0  0  0  0  0
  150.8321  133.1112  185.7442 C   0  0  0  0  0  0  0  0  0  0  0  0
  151.0612  131.6931  185.5391 N   0  0  0  0  0  0  0  0  0  0  0  0
  151.6986  134.0498  185.5905 N   0  0  0  0  0  0  0  0  0  0  0  0
  150.0697  137.3572  184.8768 C   0  0  0  0  0  0  0  0  0  0  0  0
  148.9736  137.0572  183.8498 C   0  0  0  0  0  0  0  0  0  0  0  0
  151.3341  131.0607  186.2963 H   0  0  0  0  0  0  0  0  0  0  0  0
  150.9439  131.2935  184.5781 H   0  0  0  0  0  0  0  0  0  0  0  0
  152.2269  136.5200  190.7193 C   0  0  0  0  0  0  0  0  0  0  0  0
  151.0077  136.5803  191.3607 C   0  0  0  0  0  0  0  0  0  0  0  0
  150.9049  136.4235  192.7436 C   0  0  0  0  0  0  0  0  0  0  0  0
  152.0229  136.2022  193.5178 C   0  0  0  0  0  0  0  0  0  0  0  0
  151.8926  136.0532  194.8612 F   0  0  0  0  0  0  0  0  0  0  0  0
  153.2391  136.1425  192.8740 C   0  0  0  0  0  0  0  0  0  0  0  0
  153.3425  136.2973  191.5072 C   0  0  0  0  0  0  0  0  0  0  0  0
  150.6751  139.0419  181.5902 C   0  0  0  0  0  0  0  0  0  0  0  0
  149.4908  138.6801  182.2363 O   0  0  0  0  0  0  0  0  0  0  0  0
 30 31  1  0  0  0
 31  1  1  0  0  0
  1  2  1  0  0  0
  2  3  1  0  0  0
  4  3  1  0  0  0
  4  5  1  0  0  0
  5  6  1  0  0  0
  6  7  2  0  0  0
  7  8  1  0  0  0
  8  9  2  0  0  0
  9 10  1  0  0  0
 10 11  2  0  0  0
 11 12  1  0  0  0
 12 13  1  0  0  0
 13 14  2  0  0  0
 14 15  1  0  0  0
 14 16  1  0  0  0
 16 17  1  0  0  0
 16 18  2  0  0  0
  9 23  1  0  0  0
 23 24  2  0  0  0
 24 25  1  0  0  0
 25 26  2  0  0  0
 26 27  1  0  0  0
 26 28  1  0  0  0
 28 29  2  0  0  0
  4 19  1  0  0  0
 19 20  1  0  0  0
 20  1  1  0  0  0
 12  4  1  0  0  0
 18 12  1  0  0  0
 29 23  1  0  0  0
 11  6  1  0  0  0
 17 21  1  0  0  0
 17 22  1  0  0  0
M  END
> <minimizedAffinity>
-5.47439

> <CNNscore>
0.3792044818

> <CNNaffinity>
5.5222377777

> <CNN_VS>
2.0940573215

> <CNNaffinity_variance>
0.4727291465

$$$$
[H]c1c([H])c(-c2c([H])c([H])c3c(c2[H])[C@]2(N=C(N([H])[H])C(C([H])([H])[H])=N2)[C@]2(C3([H])[H])C([H])([H])C([H])([H])[C@@]([H])(OC([H])([H])[H])C([H])([H])C2([H])[H])c([H])c([H])c1F


 31 35  0  0  0  0  0  0  0  0999 V2000
  152.4711  135.7142  193.6698 C   0  0  0  0  0  0  0  0  0  0  0  0
  152.4989  134.3752  192.9527 C   0  0  0  0  0  0  0  0  0  0  0  0
  152.9517  134.5624  191.4993 C   0  0  0  0  0  0  0  0  0  0  0  0
  151.8500  135.3006  190.8020 C   0  0  0  0  0  0  0  0  0  0  0  0
  150.7349  134.3487  190.4549 C   0  0  0  0  0  0  0  0  0  0  0  0
  150.0523  135.0029  189.3219 C   0  0  0  0  0  0  0  0  0  0  0  0
  148.7370  134.8762  188.8284 C   0  0  0  0  0  0  0  0  0  0  0  0
  148.3733  135.6168  187.7281 C   0  0  0  0  0  0  0  0  0  0  0  0
  149.2481  136.4751  187.0942 C   0  0  0  0  0  0  0  0  0  0  0  0
  150.5153  136.5630  187.6125 C   0  0  0  0  0  0  0  0  0  0  0  0
  150.9396  135.8501  188.7088 C   0  0  0  0  0  0  0  0  0  0  0  0
  152.2535  135.8077  189.4302 C   0  0  0  0  0  0  0  0  0  0  0  0
  152.8340  137.1282  189.4820 N   0  0  0  0  0  0  0  0  0  0  0  0
  153.9906  137.0488  188.9312 C   0  0  0  0  0  0  0  0  0  0  0  0
  154.9811  138.1707  188.7466 C   0  0  0  0  0  0  0  0  0  0  0  0
  154.2331  135.6854  188.4909 C   0  0  0  0  0  0  0  0  0  0  0  0
  155.4400  135.2303  187.8262 N   0  0  0  0  0  0  0  0  0  0  0  0
  153.2108  134.9621  188.7863 N   0  0  0  0  0  0  0  0  0  0  0  0
  151.2581  136.4007  191.6532 C   0  0  0  0  0  0  0  0  0  0  0  0
  152.3063  136.8255  192.6862 C   0  0  0  0  0  0  0  0  0  0  0  0
  155.5695  135.2877  186.8124 H   0  0  0  0  0  0  0  0  0  0  0  0
  156.2150  134.8249  188.4024 H   0  0  0  0  0  0  0  0  0  0  0  0
  148.8217  137.2475  185.9229 C   0  0  0  0  0  0  0  0  0  0  0  0
  149.3368  136.9903  184.6700 C   0  0  0  0  0  0  0  0  0  0  0  0
  148.9334  137.7234  183.5532 C   0  0  0  0  0  0  0  0  0  0  0  0
  148.0028  138.7333  183.6654 C   0  0  0  0  0  0  0  0  0  0  0  0
  147.6290  139.4299  182.5614 F   0  0  0  0  0  0  0  0  0  0  0  0
  147.4903  138.9876  184.9184 C   0  0  0  0  0  0  0  0  0  0  0  0
  147.8880  138.2639  186.0232 C   0  0  0  0  0  0  0  0  0  0  0  0
  150.9413  134.4850  194.7980 C   0  0  0  0  0  0  0  0  0  0  0  0
  151.4269  135.7784  194.5929 O   0  0  0  0  0  0  0  0  0  0  0  0
 30 31  1  0  0  0
 31  1  1  0  0  0
  1  2  1  0  0  0
  2  3  1  0  0  0
  4  3  1  0  0  0
  4  5  1  0  0  0
  5  6  1  0  0  0
  6  7  2  0  0  0
  7  8  1  0  0  0
  8  9  2  0  0  0
  9 10  1  0  0  0
 10 11  2  0  0  0
 11 12  1  0  0  0
 12 13  1  0  0  0
 13 14  2  0  0  0
 14 15  1  0  0  0
 14 16  1  0  0  0
 16 17  1  0  0  0
 16 18  2  0  0  0
  9 23  1  0  0  0
 23 24  2  0  0  0
 24 25  1  0  0  0
 25 26  2  0  0  0
 26 27  1  0  0  0
 26 28  1  0  0  0
 28 29  2  0  0  0
  4 19  1  0  0  0
 19 20  1  0  0  0
 20  1  1  0  0  0
 12  4  1  0  0  0
 18 12  1  0  0  0
 29 23  1  0  0  0
 11  6  1  0  0  0
 17 21  1  0  0  0
 17 22  1  0  0  0
M  END
> <minimizedAffinity>
-6.14069

> <CNNscore>
0.3365838826

> <CNNaffinity>
5.5070343018

> <CNN_VS>
1.8535790443

> <CNNaffinity_variance>
0.0679385215

$$$$
[H]c1c([H])c(-c2c([H])c([H])c3c(c2[H])[C@]2(N=C(N([H])[H])C(C([H])([H])[H])=N2)[C@]2(C3([H])[H])C([H])([H])C([H])([H])[C@@]([H])(OC([H])([H])[H])C([H])([H])C2([H])[H])c([H])c([H])c1F


 31 35  0  0  0  0  0  0  0  0999 V2000
  147.9531  138.2554  180.8856 C   0  0  0  0  0  0  0  0  0  0  0  0
  148.5432  136.8639  180.7318 C   0  0  0  0  0  0  0  0  0  0  0  0
  148.7168  136.2078  182.1073 C   0  0  0  0  0  0  0  0  0  0  0  0
  149.8047  136.9651  182.8058 C   0  0  0  0  0  0  0  0  0  0  0  0
  151.1497  136.5195  182.2935 C   0  0  0  0  0  0  0  0  0  0  0  0
  152.0740  136.8490  183.3956 C   0  0  0  0  0  0  0  0  0  0  0  0
  153.4641  137.0877  183.4051 C   0  0  0  0  0  0  0  0  0  0  0  0
  154.0752  137.3672  184.6051 C   0  0  0  0  0  0  0  0  0  0  0  0
  153.3769  137.4215  185.7939 C   0  0  0  0  0  0  0  0  0  0  0  0
  152.0274  137.1824  185.7316 C   0  0  0  0  0  0  0  0  0  0  0  0
  151.3586  136.8981  184.5647 C   0  0  0  0  0  0  0  0  0  0  0  0
  149.9127  136.6210  184.2795 C   0  0  0  0  0  0  0  0  0  0  0  0
  149.0750  137.4607  185.1020 N   0  0  0  0  0  0  0  0  0  0  0  0
  148.3129  136.6796  185.7776 C   0  0  0  0  0  0  0  0  0  0  0  0
  147.2621  137.0879  186.7789 C   0  0  0  0  0  0  0  0  0  0  0  0
  148.6038  135.2963  185.4404 C   0  0  0  0  0  0  0  0  0  0  0  0
  147.9331  134.1439  186.0131 N   0  0  0  0  0  0  0  0  0  0  0  0
  149.5428  135.2684  184.5614 N   0  0  0  0  0  0  0  0  0  0  0  0
  149.7077  138.4574  182.5855 C   0  0  0  0  0  0  0  0  0  0  0  0
  148.2543  138.7990  182.2432 C   0  0  0  0  0  0  0  0  0  0  0  0
  148.2345  133.7054  186.8876 H   0  0  0  0  0  0  0  0  0  0  0  0
  147.1051  133.7391  185.5157 H   0  0  0  0  0  0  0  0  0  0  0  0
  154.0654  137.7226  187.0531 C   0  0  0  0  0  0  0  0  0  0  0  0
  155.4209  137.5135  187.1952 C   0  0  0  0  0  0  0  0  0  0  0  0
  156.0793  137.7989  188.3921 C   0  0  0  0  0  0  0  0  0  0  0  0
  155.3941  138.3015  189.4767 C   0  0  0  0  0  0  0  0  0  0  0  0
  156.0610  138.5699  190.6287 F   0  0  0  0  0  0  0  0  0  0  0  0
  154.0402  138.5092  189.3314 C   0  0  0  0  0  0  0  0  0  0  0  0
  153.3880  138.2276  188.1490 C   0  0  0  0  0  0  0  0  0  0  0  0
  149.0363  138.3843  178.9021 C   0  0  0  0  0  0  0  0  0  0  0  0
  148.4630  139.1355  179.9306 O   0  0  0  0  0  0  0  0  0  0  0  0
 30 31  1  0  0  0
 31  1  1  0  0  0
  1  2  1  0  0  0
  2  3  1  0  0  0
  4  3  1  0  0  0
  4  5  1  0  0  0
  5  6  1  0  0  0
  6  7  2  0  0  0
  7  8  1  0  0  0
  8  9  2  0  0  0
  9 10  1  0  0  0
 10 11  2  0  0  0
 11 12  1  0  0  0
 12 13  1  0  0  0
 13 14  2  0  0  0
 14 15  1  0  0  0
 14 16  1  0  0  0
 16 17  1  0  0  0
 16 18  2  0  0  0
  9 23  1  0  0  0
 23 24  2  0  0  0
 24 25  1  0  0  0
 25 26  2  0  0  0
 26 27  1  0  0  0
 26 28  1  0  0  0
 28 29  2  0  0  0
  4 19  1  0  0  0
 19 20  1  0  0  0
 20  1  1  0  0  0
 12  4  1  0  0  0
 18 12  1  0  0  0
 29 23  1  0  0  0
 11  6  1  0  0  0
 17 21  1  0  0  0
 17 22  1  0  0  0
M  END
> <minimizedAffinity>
-6.61893

> <CNNscore>
0.3351674676

> <CNNaffinity>
5.6372122765

> <CNN_VS>
1.8894101381

> <CNNaffinity_variance>
0.1484334171

$$$$
[H]c1c([H])c(-c2c([H])c([H])c3c(c2[H])[C@]2(N=C(N([H])[H])C(C([H])([H])[H])=N2)[C@]2(C3([H])[H])C([H])([H])C([H])([H])[C@@]([H])(OC([H])([H])[H])C([H])([H])C2([H])[H])c([H])c([H])c1F


 31 35  0  0  0  0  0  0  0  0999 V2000
  148.5308  137.8026  181.0709 C   0  0  0  0  0  0  0  0  0  0  0  0
  149.8219  137.4009  180.3783 C   0  0  0  0  0  0  0  0  0  0  0  0
  150.6137  136.4261  181.2588 C   0  0  0  0  0  0  0  0  0  0  0  0
  151.0907  137.2124  182.4417 C   0  0  0  0  0  0  0  0  0  0  0  0
  152.2968  138.0309  182.0604 C   0  0  0  0  0  0  0  0  0  0  0  0
  152.9908  138.2554  183.3432 C   0  0  0  0  0  0  0  0  0  0  0  0
  153.8971  139.2573  183.7486 C   0  0  0  0  0  0  0  0  0  0  0  0
  154.4027  139.2085  185.0267 C   0  0  0  0  0  0  0  0  0  0  0  0
  154.0545  138.2169  185.9208 C   0  0  0  0  0  0  0  0  0  0  0  0
  153.1699  137.2662  185.4785 C   0  0  0  0  0  0  0  0  0  0  0  0
  152.6294  137.2598  184.2144 C   0  0  0  0  0  0  0  0  0  0  0  0
  151.6551  136.3372  183.5451 C   0  0  0  0  0  0  0  0  0  0  0  0
  150.6429  135.9178  184.4848 N   0  0  0  0  0  0  0  0  0  0  0  0
  150.6768  134.6353  184.5216 C   0  0  0  0  0  0  0  0  0  0  0  0
  149.8057  133.7331  185.3588 C   0  0  0  0  0  0  0  0  0  0  0  0
  151.7027  134.1443  183.6170 C   0  0  0  0  0  0  0  0  0  0  0  0
  152.0197  132.7446  183.4032 N   0  0  0  0  0  0  0  0  0  0  0  0
  152.2729  135.1471  183.0472 N   0  0  0  0  0  0  0  0  0  0  0  0
  150.0425  138.1671  182.9659 C   0  0  0  0  0  0  0  0  0  0  0  0
  148.6646  137.6435  182.5495 C   0  0  0  0  0  0  0  0  0  0  0  0
  152.6813  132.2303  183.9911 H   0  0  0  0  0  0  0  0  0  0  0  0
  151.5554  132.2332  182.6159 H   0  0  0  0  0  0  0  0  0  0  0  0
  154.6160  138.1998  187.2753 C   0  0  0  0  0  0  0  0  0  0  0  0
  155.9122  137.7908  187.5074 C   0  0  0  0  0  0  0  0  0  0  0  0
  156.4498  137.7731  188.7951 C   0  0  0  0  0  0  0  0  0  0  0  0
  155.7002  138.1656  189.8825 C   0  0  0  0  0  0  0  0  0  0  0  0
  156.2496  138.1382  191.1240 F   0  0  0  0  0  0  0  0  0  0  0  0
  154.4058  138.5736  189.6472 C   0  0  0  0  0  0  0  0  0  0  0  0
  153.8730  138.5917  188.3750 C   0  0  0  0  0  0  0  0  0  0  0  0
  146.8162  139.1929  180.5696 C   0  0  0  0  0  0  0  0  0  0  0  0
  148.1931  139.1278  180.7947 O   0  0  0  0  0  0  0  0  0  0  0  0
 30 31  1  0  0  0
 31  1  1  0  0  0
  1  2  1  0  0  0
  2  3  1  0  0  0
  4  3  1  0  0  0
  4  5  1  0  0  0
  5  6  1  0  0  0
  6  7  2  0  0  0
  7  8  1  0  0  0
  8  9  2  0  0  0
  9 10  1  0  0  0
 10 11  2  0  0  0
 11 12  1  0  0  0
 12 13  1  0  0  0
 13 14  2  0  0  0
 14 15  1  0  0  0
 14 16  1  0  0  0
 16 17  1  0  0  0
 16 18  2  0  0  0
  9 23  1  0  0  0
 23 24  2  0  0  0
 24 25  1  0  0  0
 25 26  2  0  0  0
 26 27  1  0  0  0
 26 28  1  0  0  0
 28 29  2  0  0  0
  4 19  1  0  0  0
 19 20  1  0  0  0
 20  1  1  0  0  0
 12  4  1  0  0  0
 18 12  1  0  0  0
 29 23  1  0  0  0
 11  6  1  0  0  0
 17 21  1  0  0  0
 17 22  1  0  0  0
M  END
> <minimizedAffinity>
-7.25046

> <CNNscore>
0.2957635224

> <CNNaffinity>
5.4728760719

> <CNN_VS>
1.6186771393

> <CNNaffinity_variance>
0.1280147433

$$$$
[H]c1nc(N([H])c2nn([H])c(C([H])([H])[H])c2[H])nc(N([H])c2c([H])c([H])c(C(=O)N([H])C([H])([H])[H])c([H])c2[H])c1Cl


 29 31  0  0  0  0  0  0  0  0999 V2000
  156.3609  140.4181  183.6328 C   0  0  0  0  0  0  0  0  0  0  0  0
  157.6635  140.6615  183.8338 N   0  0  0  0  0  0  0  0  0  0  0  0
  158.2862  141.8169  183.5170 C   0  0  0  0  0  0  0  0  0  0  0  0
  157.5287  142.7640  182.9675 N   0  0  0  0  0  0  0  0  0  0  0  0
  156.2170  142.6131  182.7274 C   0  0  0  0  0  0  0  0  0  0  0  0
  155.5990  141.4394  183.0525 C   0  0  0  0  0  0  0  0  0  0  0  0
  153.8984  141.1470  182.7787 Cl  0  0  0  0  0  0  0  0  0  0  0  0
  155.7200  139.2144  183.9864 N   0  0  0  0  0  0  0  0  0  0  0  0
  155.6145  138.4865  183.1971 H   0  0  0  0  0  0  0  0  0  0  0  0
  154.2928  138.1147  187.8377 C   0  0  0  0  0  0  0  0  0  0  0  0
  155.6559  138.0855  187.5161 C   0  0  0  0  0  0  0  0  0  0  0  0
  156.0860  138.4378  186.2672 C   0  0  0  0  0  0  0  0  0  0  0  0
  155.2004  138.8436  185.2481 C   0  0  0  0  0  0  0  0  0  0  0  0
  153.8872  138.8714  185.5612 C   0  0  0  0  0  0  0  0  0  0  0  0
  153.4418  138.5098  186.8433 C   0  0  0  0  0  0  0  0  0  0  0  0
  152.2927  136.5521  190.7299 C   0  0  0  0  0  0  0  0  0  0  0  0
  152.7207  136.9159  189.3842 N   0  0  0  0  0  0  0  0  0  0  0  0
  153.8455  137.7375  189.1693 C   0  0  0  0  0  0  0  0  0  0  0  0
  154.4822  138.1571  190.1653 O   0  0  0  0  0  0  0  0  0  0  0  0
  152.1612  136.5440  188.5918 H   0  0  0  0  0  0  0  0  0  0  0  0
  159.6622  142.0099  183.7552 N   0  0  0  0  0  0  0  0  0  0  0  0
  160.3260  141.9530  182.9083 H   0  0  0  0  0  0  0  0  0  0  0  0
  160.2958  142.2718  184.9728 C   0  0  0  0  0  0  0  0  0  0  0  0
  161.6322  142.3483  185.2321 C   0  0  0  0  0  0  0  0  0  0  0  0
  161.8114  142.6332  186.5990 C   0  0  0  0  0  0  0  0  0  0  0  0
  163.0776  142.8068  187.3349 C   0  0  0  0  0  0  0  0  0  0  0  0
  160.5896  142.7144  187.0952 N   0  0  0  0  0  0  0  0  0  0  0  0
  159.6956  142.5099  186.1782 N   0  0  0  0  0  0  0  0  0  0  0  0
  160.3776  142.9182  188.1016 H   0  0  0  0  0  0  0  0  0  0  0  0
 16 17  1  0  0  0
 17 18  1  0  0  0
 18 19  2  0  0  0
 18 10  1  0  0  0
 10 11  2  0  0  0
 11 12  1  0  0  0
 12 13  2  0  0  0
 13  8  1  0  0  0
  8  1  1  0  0  0
  1  2  2  0  0  0
  2  3  1  0  0  0
  3 21  1  0  0  0
 21 23  1  0  0  0
 23 24  1  0  0  0
 24 25  2  0  0  0
 25 26  1  0  0  0
 25 27  1  0  0  0
 27 28  1  0  0  0
  3  4  2  0  0  0
  4  5  1  0  0  0
  5  6  2  0  0  0
  6  7  1  0  0  0
 13 14  1  0  0  0
 14 15  2  0  0  0
 15 10  1  0  0  0
  6  1  1  0  0  0
 28 23  2  0  0  0
 17 20  1  0  0  0
  8  9  1  0  0  0
 21 22  1  0  0  0
 27 29  1  0  0  0
M  END
> <minimizedAffinity>
-8.36853

> <CNNscore>
0.5512613058

> <CNNaffinity>
6.3781647682

> <CNN_VS>
3.5160355568

> <CNNaffinity_variance>
0.0085752290

$$$$
[H]c1nc(N([H])c2nn([H])c(C([H])([H])[H])c2[H])nc(N([H])c2c([H])c([H])c(C(=O)N([H])C([H])([H])[H])c([H])c2[H])c1Cl


 29 31  0  0  0  0  0  0  0  0999 V2000
  154.8344  139.5601  184.0615 C   0  0  0  0  0  0  0  0  0  0  0  0
  155.2135  140.6306  183.3497 N   0  0  0  0  0  0  0  0  0  0  0  0
  156.3971  141.2653  183.4894 C   0  0  0  0  0  0  0  0  0  0  0  0
  157.2267  140.7715  184.4062 N   0  0  0  0  0  0  0  0  0  0  0  0
  156.9358  139.7046  185.1667 C   0  0  0  0  0  0  0  0  0  0  0  0
  155.7351  139.0716  185.0156 C   0  0  0  0  0  0  0  0  0  0  0  0
  155.2645  137.6775  185.9577 Cl  0  0  0  0  0  0  0  0  0  0  0  0
  153.6038  138.8956  183.8914 N   0  0  0  0  0  0  0  0  0  0  0  0
  153.2812  138.2813  184.7175 H   0  0  0  0  0  0  0  0  0  0  0  0
  150.9219  138.9182  180.5920 C   0  0  0  0  0  0  0  0  0  0  0  0
  150.9389  137.8746  181.5263 C   0  0  0  0  0  0  0  0  0  0  0  0
  151.8172  137.8900  182.5739 C   0  0  0  0  0  0  0  0  0  0  0  0
  152.7402  138.9369  182.7725 C   0  0  0  0  0  0  0  0  0  0  0  0
  152.7211  139.9419  181.8708 C   0  0  0  0  0  0  0  0  0  0  0  0
  151.8202  139.9290  180.7931 C   0  0  0  0  0  0  0  0  0  0  0  0
  147.9861  137.9725  178.2913 C   0  0  0  0  0  0  0  0  0  0  0  0
  148.9130  137.9781  179.4169 N   0  0  0  0  0  0  0  0  0  0  0  0
  149.9840  138.8921  179.4807 C   0  0  0  0  0  0  0  0  0  0  0  0
  150.1306  139.7122  178.5429 O   0  0  0  0  0  0  0  0  0  0  0  0
  148.7503  137.2799  180.1688 H   0  0  0  0  0  0  0  0  0  0  0  0
  156.7358  142.3884  182.7077 N   0  0  0  0  0  0  0  0  0  0  0  0
  156.3702  143.3486  183.0325 H   0  0  0  0  0  0  0  0  0  0  0  0
  157.5011  142.4236  181.5391 C   0  0  0  0  0  0  0  0  0  0  0  0
  158.3780  143.3844  181.1304 C   0  0  0  0  0  0  0  0  0  0  0  0
  158.9211  143.0017  179.8893 C   0  0  0  0  0  0  0  0  0  0  0  0
  159.9085  143.7239  179.0656 C   0  0  0  0  0  0  0  0  0  0  0  0
  158.3536  141.8418  179.6099 N   0  0  0  0  0  0  0  0  0  0  0  0
  157.5295  141.4845  180.5454 N   0  0  0  0  0  0  0  0  0  0  0  0
  158.5491  141.2871  178.7419 H   0  0  0  0  0  0  0  0  0  0  0  0
 16 17  1  0  0  0
 17 18  1  0  0  0
 18 19  2  0  0  0
 18 10  1  0  0  0
 10 11  2  0  0  0
 11 12  1  0  0  0
 12 13  2  0  0  0
 13  8  1  0  0  0
  8  1  1  0  0  0
  1  2  2  0  0  0
  2  3  1  0  0  0
  3 21  1  0  0  0
 21 23  1  0  0  0
 23 24  1  0  0  0
 24 25  2  0  0  0
 25 26  1  0  0  0
 25 27  1  0  0  0
 27 28  1  0  0  0
  3  4  2  0  0  0
  4  5  1  0  0  0
  5  6  2  0  0  0
  6  7  1  0  0  0
 13 14  1  0  0  0
 14 15  2  0  0  0
 15 10  1  0  0  0
  6  1  1  0  0  0
 28 23  2  0  0  0
 17 20  1  0  0  0
  8  9  1  0  0  0
 21 22  1  0  0  0
 27 29  1  0  0  0
M  END
> <minimizedAffinity>
-7.35227

> <CNNscore>
0.4738706946

> <CNNaffinity>
6.0051946640

> <CNN_VS>
2.8456857204

> <CNNaffinity_variance>
0.1985866725

$$$$
[H]c1nc(N([H])c2nn([H])c(C([H])([H])[H])c2[H])nc(N([H])c2c([H])c([H])c(C(=O)N([H])C([H])([H])[H])c([H])c2[H])c1Cl


 29 31  0  0  0  0  0  0  0  0999 V2000
  156.2413  142.2354  181.9607 C   0  0  0  0  0  0  0  0  0  0  0  0
  155.5883  141.0651  181.9857 N   0  0  0  0  0  0  0  0  0  0  0  0
  154.2791  140.9229  182.2837 C   0  0  0  0  0  0  0  0  0  0  0  0
  153.6141  142.0405  182.5691 N   0  0  0  0  0  0  0  0  0  0  0  0
  154.1812  143.2569  182.5701 C   0  0  0  0  0  0  0  0  0  0  0  0
  155.5065  143.3872  182.2668 C   0  0  0  0  0  0  0  0  0  0  0  0
  156.3345  144.9255  182.2425 Cl  0  0  0  0  0  0  0  0  0  0  0  0
  157.6036  142.3713  181.6286 N   0  0  0  0  0  0  0  0  0  0  0  0
  157.8195  142.5512  180.5870 H   0  0  0  0  0  0  0  0  0  0  0  0
  160.9246  142.2958  184.2826 C   0  0  0  0  0  0  0  0  0  0  0  0
  160.2373  143.4806  183.9888 C   0  0  0  0  0  0  0  0  0  0  0  0
  159.1769  143.4765  183.1259 C   0  0  0  0  0  0  0  0  0  0  0  0
  158.7207  142.3025  182.4926 C   0  0  0  0  0  0  0  0  0  0  0  0
  159.3846  141.1619  182.7784 C   0  0  0  0  0  0  0  0  0  0  0  0
  160.4747  141.1626  183.6642 C   0  0  0  0  0  0  0  0  0  0  0  0
  163.0651  142.6882  187.4561 C   0  0  0  0  0  0  0  0  0  0  0  0
  161.9188  142.6814  186.5549 N   0  0  0  0  0  0  0  0  0  0  0  0
  162.0518  142.3109  185.2016 C   0  0  0  0  0  0  0  0  0  0  0  0
  163.1856  141.9823  184.7773 O   0  0  0  0  0  0  0  0  0  0  0  0
  161.0009  142.9614  186.9529 H   0  0  0  0  0  0  0  0  0  0  0  0
  153.6510  139.6609  182.2922 N   0  0  0  0  0  0  0  0  0  0  0  0
  154.1383  138.8667  182.8333 H   0  0  0  0  0  0  0  0  0  0  0  0
  152.4511  139.2934  181.6774 C   0  0  0  0  0  0  0  0  0  0  0  0
  151.9973  139.6320  180.4371 C   0  0  0  0  0  0  0  0  0  0  0  0
  150.7382  139.0346  180.2383 C   0  0  0  0  0  0  0  0  0  0  0  0
  149.8673  139.1190  179.0510 C   0  0  0  0  0  0  0  0  0  0  0  0
  150.4935  138.3712  181.3542 N   0  0  0  0  0  0  0  0  0  0  0  0
  151.4659  138.5034  182.2022 N   0  0  0  0  0  0  0  0  0  0  0  0
  149.6233  137.8120  181.5255 H   0  0  0  0  0  0  0  0  0  0  0  0
 16 17  1  0  0  0
 17 18  1  0  0  0
 18 19  2  0  0  0
 18 10  1  0  0  0
 10 11  2  0  0  0
 11 12  1  0  0  0
 12 13  2  0  0  0
 13  8  1  0  0  0
  8  1  1  0  0  0
  1  2  2  0  0  0
  2  3  1  0  0  0
  3 21  1  0  0  0
 21 23  1  0  0  0
 23 24  1  0  0  0
 24 25  2  0  0  0
 25 26  1  0  0  0
 25 27  1  0  0  0
 27 28  1  0  0  0
  3  4  2  0  0  0
  4  5  1  0  0  0
  5  6  2  0  0  0
  6  7  1  0  0  0
 13 14  1  0  0  0
 14 15  2  0  0  0
 15 10  1  0  0  0
  6  1  1  0  0  0
 28 23  2  0  0  0
 17 20  1  0  0  0
  8  9  1  0  0  0
 21 22  1  0  0  0
 27 29  1  0  0  0
M  END
> <minimizedAffinity>
-8.49375

> <CNNscore>
0.4701096714

> <CNNaffinity>
6.5130128860

> <CNN_VS>
3.0618302822

> <CNNaffinity_variance>
0.0454279594

$$$$
[H]c1nc(N([H])c2nn([H])c(C([H])([H])[H])c2[H])nc(N([H])c2c([H])c([H])c(C(=O)N([H])C([H])([H])[H])c([H])c2[H])c1Cl


 29 31  0  0  0  0  0  0  0  0999 V2000
  156.2031  141.8566  182.1862 C   0  0  0  0  0  0  0  0  0  0  0  0
  155.6491  140.6622  182.4374 N   0  0  0  0  0  0  0  0  0  0  0  0
  154.3503  140.4694  182.7520 C   0  0  0  0  0  0  0  0  0  0  0  0
  153.5891  141.5602  182.8099 N   0  0  0  0  0  0  0  0  0  0  0  0
  154.0530  142.7973  182.5747 C   0  0  0  0  0  0  0  0  0  0  0  0
  155.3690  142.9789  182.2574 C   0  0  0  0  0  0  0  0  0  0  0  0
  156.0667  144.5480  181.9355 Cl  0  0  0  0  0  0  0  0  0  0  0  0
  157.5560  142.0411  181.8397 N   0  0  0  0  0  0  0  0  0  0  0  0
  157.7695  142.0936  180.7834 H   0  0  0  0  0  0  0  0  0  0  0  0
  160.9348  142.2834  184.4096 C   0  0  0  0  0  0  0  0  0  0  0  0
  160.4363  141.0560  183.9542 C   0  0  0  0  0  0  0  0  0  0  0  0
  159.3436  141.0075  183.1340 C   0  0  0  0  0  0  0  0  0  0  0  0
  158.6664  142.1675  182.7058 C   0  0  0  0  0  0  0  0  0  0  0  0
  159.1496  143.3492  183.1458 C   0  0  0  0  0  0  0  0  0  0  0  0
  160.2718  143.4026  183.9888 C   0  0  0  0  0  0  0  0  0  0  0  0
  163.1842  142.6689  187.5076 C   0  0  0  0  0  0  0  0  0  0  0  0
  162.0027  142.6349  186.6537 N   0  0  0  0  0  0  0  0  0  0  0  0
  162.0975  142.3241  185.2823 C   0  0  0  0  0  0  0  0  0  0  0  0
  163.2280  142.0736  184.7998 O   0  0  0  0  0  0  0  0  0  0  0  0
  161.0891  142.8495  187.0994 H   0  0  0  0  0  0  0  0  0  0  0  0
  153.8291  139.1843  183.0050 N   0  0  0  0  0  0  0  0  0  0  0  0
  153.5921  138.5676  182.1538 H   0  0  0  0  0  0  0  0  0  0  0  0
  153.5724  138.5887  184.2428 C   0  0  0  0  0  0  0  0  0  0  0  0
  153.9381  139.0224  185.4827 C   0  0  0  0  0  0  0  0  0  0  0  0
  153.4637  138.1055  186.4398 C   0  0  0  0  0  0  0  0  0  0  0  0
  153.6175  138.1577  187.9057 C   0  0  0  0  0  0  0  0  0  0  0  0
  152.8413  137.1725  185.7417 N   0  0  0  0  0  0  0  0  0  0  0  0
  152.8888  137.4265  184.4707 N   0  0  0  0  0  0  0  0  0  0  0  0
  152.3716  136.3370  186.1669 H   0  0  0  0  0  0  0  0  0  0  0  0
 16 17  1  0  0  0
 17 18  1  0  0  0
 18 19  2  0  0  0
 18 10  1  0  0  0
 10 11  2  0  0  0
 11 12  1  0  0  0
 12 13  2  0  0  0
 13  8  1  0  0  0
  8  1  1  0  0  0
  1  2  2  0  0  0
  2  3  1  0  0  0
  3 21  1  0  0  0
 21 23  1  0  0  0
 23 24  1  0  0  0
 24 25  2  0  0  0
 25 26  1  0  0  0
 25 27  1  0  0  0
 27 28  1  0  0  0
  3  4  2  0  0  0
  4  5  1  0  0  0
  5  6  2  0  0  0
  6  7  1  0  0  0
 13 14  1  0  0  0
 14 15  2  0  0  0
 15 10  1  0  0  0
  6  1  1  0  0  0
 28 23  2  0  0  0
 17 20  1  0  0  0
  8  9  1  0  0  0
 21 22  1  0  0  0
 27 29  1  0  0  0
M  END
> <minimizedAffinity>
-7.90534

> <CNNscore>
0.3030734062

> <CNNaffinity>
6.4025816917

> <CNN_VS>
1.9404522181

> <CNNaffinity_variance>
0.0115781901

$$$$
[H]c1nc(N([H])c2nn([H])c(C([H])([H])[H])c2[H])nc(N([H])c2c([H])c([H])c(C(=O)N([H])C([H])([H])[H])c([H])c2[H])c1Cl


 29 31  0  0  0  0  0  0  0  0999 V2000
  154.7492  139.2354  184.1849 C   0  0  0  0  0  0  0  0  0  0  0  0
  154.8959  140.1449  183.2114 N   0  0  0  0  0  0  0  0  0  0  0  0
  155.9753  140.9422  183.0622 C   0  0  0  0  0  0  0  0  0  0  0  0
  156.9476  140.7930  183.9596 N   0  0  0  0  0  0  0  0  0  0  0  0
  156.8914  139.9100  184.9687 C   0  0  0  0  0  0  0  0  0  0  0  0
  155.7938  139.1093  185.1086 C   0  0  0  0  0  0  0  0  0  0  0  0
  155.6269  137.9316  186.3882 Cl  0  0  0  0  0  0  0  0  0  0  0  0
  153.6254  138.3961  184.3170 N   0  0  0  0  0  0  0  0  0  0  0  0
  152.8979  138.6946  185.0557 H   0  0  0  0  0  0  0  0  0  0  0  0
  152.6799  134.9203  182.0578 C   0  0  0  0  0  0  0  0  0  0  0  0
  152.0107  136.1356  181.8633 C   0  0  0  0  0  0  0  0  0  0  0  0
  152.3308  137.2357  182.6092 C   0  0  0  0  0  0  0  0  0  0  0  0
  153.3340  137.2131  183.5995 C   0  0  0  0  0  0  0  0  0  0  0  0
  153.9778  136.0406  183.7842 C   0  0  0  0  0  0  0  0  0  0  0  0
  153.6512  134.9083  183.0198 C   0  0  0  0  0  0  0  0  0  0  0  0
  150.7663  132.4558  179.8059 C   0  0  0  0  0  0  0  0  0  0  0  0
  151.0913  133.6343  180.6008 N   0  0  0  0  0  0  0  0  0  0  0  0
  152.3315  133.7557  181.2593 C   0  0  0  0  0  0  0  0  0  0  0  0
  153.1634  132.8232  181.1504 O   0  0  0  0  0  0  0  0  0  0  0  0
  150.3700  134.3795  180.6609 H   0  0  0  0  0  0  0  0  0  0  0  0
  156.0680  141.8804  182.0143 N   0  0  0  0  0  0  0  0  0  0  0  0
  155.2245  142.5315  181.8539 H   0  0  0  0  0  0  0  0  0  0  0  0
  157.1340  142.0840  181.1339 C   0  0  0  0  0  0  0  0  0  0  0  0
  157.8543  143.2228  180.9262 C   0  0  0  0  0  0  0  0  0  0  0  0
  158.8326  142.9660  179.9469 C   0  0  0  0  0  0  0  0  0  0  0  0
  159.8396  143.8945  179.4000 C   0  0  0  0  0  0  0  0  0  0  0  0
  158.6592  141.6996  179.6132 N   0  0  0  0  0  0  0  0  0  0  0  0
  157.6853  141.1662  180.2832 N   0  0  0  0  0  0  0  0  0  0  0  0
  159.2382  141.1969  178.8980 H   0  0  0  0  0  0  0  0  0  0  0  0
 16 17  1  0  0  0
 17 18  1  0  0  0
 18 19  2  0  0  0
 18 10  1  0  0  0
 10 11  2  0  0  0
 11 12  1  0  0  0
 12 13  2  0  0  0
 13  8  1  0  0  0
  8  1  1  0  0  0
  1  2  2  0  0  0
  2  3  1  0  0  0
  3 21  1  0  0  0
 21 23  1  0  0  0
 23 24  1  0  0  0
 24 25  2  0  0  0
 25 26  1  0  0  0
 25 27  1  0  0  0
 27 28  1  0  0  0
  3  4  2  0  0  0
  4  5  1  0  0  0
  5  6  2  0  0  0
  6  7  1  0  0  0
 13 14  1  0  0  0
 14 15  2  0  0  0
 15 10  1  0  0  0
  6  1  1  0  0  0
 28 23  2  0  0  0
 17 20  1  0  0  0
  8  9  1  0  0  0
 21 22  1  0  0  0
 27 29  1  0  0  0
M  END
> <minimizedAffinity>
-6.26702

> <CNNscore>
0.2579184473

> <CNNaffinity>
5.5199313164

> <CNN_VS>
1.4236921072

> <CNNaffinity_variance>
0.1798564494

$$$$
[H]c1nc(N([H])c2nn([H])c(C([H])([H])[H])c2[H])nc(N([H])c2c([H])c([H])c(C(=O)N([H])C([H])([H])[H])c([H])c2[H])c1Cl


 29 31  0  0  0  0  0  0  0  0999 V2000
  155.4433  139.9904  183.5329 C   0  0  0  0  0  0  0  0  0  0  0  0
  155.6808  139.1646  184.5616 N   0  0  0  0  0  0  0  0  0  0  0  0
  154.7605  138.3491  185.1194 C   0  0  0  0  0  0  0  0  0  0  0  0
  153.5393  138.3884  184.5904 N   0  0  0  0  0  0  0  0  0  0  0  0
  153.2063  139.1819  183.5605 C   0  0  0  0  0  0  0  0  0  0  0  0
  154.1465  140.0022  183.0052 C   0  0  0  0  0  0  0  0  0  0  0  0
  153.8104  141.0707  181.6644 Cl  0  0  0  0  0  0  0  0  0  0  0  0
  156.4186  140.8218  182.9478 N   0  0  0  0  0  0  0  0  0  0  0  0
  156.1466  141.2800  182.0097 H   0  0  0  0  0  0  0  0  0  0  0  0
  160.2433  141.7346  184.5656 C   0  0  0  0  0  0  0  0  0  0  0  0
  159.0756  141.8090  185.3360 C   0  0  0  0  0  0  0  0  0  0  0  0
  157.8580  141.5165  184.7875 C   0  0  0  0  0  0  0  0  0  0  0  0
  157.7077  141.1301  183.4401 C   0  0  0  0  0  0  0  0  0  0  0  0
  158.8350  141.0586  182.7002 C   0  0  0  0  0  0  0  0  0  0  0  0
  160.0877  141.3587  183.2604 C   0  0  0  0  0  0  0  0  0  0  0  0
  162.9704  142.8211  187.0534 C   0  0  0  0  0  0  0  0  0  0  0  0
  161.6644  142.5137  186.4823 N   0  0  0  0  0  0  0  0  0  0  0  0
  161.5338  142.0482  185.1584 C   0  0  0  0  0  0  0  0  0  0  0  0
  162.5711  141.8999  184.4687 O   0  0  0  0  0  0  0  0  0  0  0  0
  160.8352  142.6526  187.0927 H   0  0  0  0  0  0  0  0  0  0  0  0
  155.0753  137.5027  186.2018 N   0  0  0  0  0  0  0  0  0  0  0  0
  155.3473  136.4852  185.9745 H   0  0  0  0  0  0  0  0  0  0  0  0
  155.0820  137.8148  187.5639 C   0  0  0  0  0  0  0  0  0  0  0  0
  156.0457  137.5438  188.4895 C   0  0  0  0  0  0  0  0  0  0  0  0
  155.6270  138.0437  189.7371 C   0  0  0  0  0  0  0  0  0  0  0  0
  156.3386  137.9843  191.0275 C   0  0  0  0  0  0  0  0  0  0  0  0
  154.4442  138.5865  189.5094 N   0  0  0  0  0  0  0  0  0  0  0  0
  154.1053  138.4685  188.2631 N   0  0  0  0  0  0  0  0  0  0  0  0
  153.8604  139.0511  190.2460 H   0  0  0  0  0  0  0  0  0  0  0  0
 16 17  1  0  0  0
 17 18  1  0  0  0
 18 19  2  0  0  0
 18 10  1  0  0  0
 10 11  2  0  0  0
 11 12  1  0  0  0
 12 13  2  0  0  0
 13  8  1  0  0  0
  8  1  1  0  0  0
  1  2  2  0  0  0
  2  3  1  0  0  0
  3 21  1  0  0  0
 21 23  1  0  0  0
 23 24  1  0  0  0
 24 25  2  0  0  0
 25 26  1  0  0  0
 25 27  1  0  0  0
 27 28  1  0  0  0
  3  4  2  0  0  0
  4  5  1  0  0  0
  5  6  2  0  0  0
  6  7  1  0  0  0
 13 14  1  0  0  0
 14 15  2  0  0  0
 15 10  1  0  0  0
  6  1  1  0  0  0
 28 23  2  0  0  0
 17 20  1  0  0  0
  8  9  1  0  0  0
 21 22  1  0  0  0
 27 29  1  0  0  0
M  END
> <minimizedAffinity>
-8.05653

> <CNNscore>
0.2486486137

> <CNNaffinity>
6.0741348267

> <CNN_VS>
1.5103251934

> <CNNaffinity_variance>
0.0472446084

$$$$
[H]c1nc(N([H])c2nn([H])c(C([H])([H])[H])c2[H])nc(N([H])c2c([H])c([H])c(C(=O)N([H])C([H])([H])[H])c([H])c2[H])c1Cl


 29 31  0  0  0  0  0  0  0  0999 V2000
  153.9848  138.0176  184.4746 C   0  0  0  0  0  0  0  0  0  0  0  0
  152.8360  137.6688  183.8788 N   0  0  0  0  0  0  0  0  0  0  0  0
  152.2710  138.3369  182.8504 C   0  0  0  0  0  0  0  0  0  0  0  0
  152.9226  139.4144  182.4178 N   0  0  0  0  0  0  0  0  0  0  0  0
  154.0780  139.8415  182.9504 C   0  0  0  0  0  0  0  0  0  0  0  0
  154.6392  139.1568  183.9904 C   0  0  0  0  0  0  0  0  0  0  0  0
  156.1382  139.6336  184.7505 Cl  0  0  0  0  0  0  0  0  0  0  0  0
  154.5732  137.2996  185.5343 N   0  0  0  0  0  0  0  0  0  0  0  0
  155.4843  136.7722  185.2983 H   0  0  0  0  0  0  0  0  0  0  0  0
  153.2793  137.0829  189.5788 C   0  0  0  0  0  0  0  0  0  0  0  0
  154.3902  137.8456  189.1957 C   0  0  0  0  0  0  0  0  0  0  0  0
  154.7880  137.8914  187.8886 C   0  0  0  0  0  0  0  0  0  0  0  0
  154.1171  137.1873  186.8679 C   0  0  0  0  0  0  0  0  0  0  0  0
  153.0463  136.4536  187.2401 C   0  0  0  0  0  0  0  0  0  0  0  0
  152.6350  136.4041  188.5822 C   0  0  0  0  0  0  0  0  0  0  0  0
  151.2069  136.5328  192.7739 C   0  0  0  0  0  0  0  0  0  0  0  0
  151.5987  136.5650  191.3698 N   0  0  0  0  0  0  0  0  0  0  0  0
  152.8645  137.0405  190.9721 C   0  0  0  0  0  0  0  0  0  0  0  0
  153.6604  137.4411  191.8551 O   0  0  0  0  0  0  0  0  0  0  0  0
  150.9053  136.2229  190.6759 H   0  0  0  0  0  0  0  0  0  0  0  0
  151.0585  137.9167  182.2669 N   0  0  0  0  0  0  0  0  0  0  0  0
  150.4471  137.2312  182.8302 H   0  0  0  0  0  0  0  0  0  0  0  0
  150.5306  138.2795  181.0250 C   0  0  0  0  0  0  0  0  0  0  0  0
  149.4246  137.7860  180.3988 C   0  0  0  0  0  0  0  0  0  0  0  0
  149.2720  138.4462  179.1648 C   0  0  0  0  0  0  0  0  0  0  0  0
  148.2224  138.2459  178.1483 C   0  0  0  0  0  0  0  0  0  0  0  0
  150.2809  139.2970  179.1042 N   0  0  0  0  0  0  0  0  0  0  0  0
  151.0233  139.2218  180.1650 N   0  0  0  0  0  0  0  0  0  0  0  0
  150.4531  139.9464  178.2993 H   0  0  0  0  0  0  0  0  0  0  0  0
 16 17  1  0  0  0
 17 18  1  0  0  0
 18 19  2  0  0  0
 18 10  1  0  0  0
 10 11  2  0  0  0
 11 12  1  0  0  0
 12 13  2  0  0  0
 13  8  1  0  0  0
  8  1  1  0  0  0
  1  2  2  0  0  0
  2  3  1  0  0  0
  3 21  1  0  0  0
 21 23  1  0  0  0
 23 24  1  0  0  0
 24 25  2  0  0  0
 25 26  1  0  0  0
 25 27  1  0  0  0
 27 28  1  0  0  0
  3  4  2  0  0  0
  4  5  1  0  0  0
  5  6  2  0  0  0
  6  7  1  0  0  0
 13 14  1  0  0  0
 14 15  2  0  0  0
 15 10  1  0  0  0
  6  1  1  0  0  0
 28 23  2  0  0  0
 17 20  1  0  0  0
  8  9  1  0  0  0
 21 22  1  0  0  0
 27 29  1  0  0  0
M  END
> <minimizedAffinity>
-5.84668

> <CNNscore>
0.2187746316

> <CNNaffinity>
5.1046752930

> <CNN_VS>
1.1167734861

> <CNNaffinity_variance>
0.0592925772

$$$$
[H]c1nc(N([H])c2nn([H])c(C([H])([H])[H])c2[H])nc(N([H])c2c([H])c([H])c(C(=O)N([H])C([H])([H])[H])c([H])c2[H])c1Cl


 29 31  0  0  0  0  0  0  0  0999 V2000
  155.3180  139.5601  184.0353 C   0  0  0  0  0  0  0  0  0  0  0  0
  154.2310  139.8194  183.2953 N   0  0  0  0  0  0  0  0  0  0  0  0
  154.0979  140.8819  182.4729 C   0  0  0  0  0  0  0  0  0  0  0  0
  155.1350  141.7146  182.4122 N   0  0  0  0  0  0  0  0  0  0  0  0
  156.2648  141.5388  183.1149 C   0  0  0  0  0  0  0  0  0  0  0  0
  156.3869  140.4599  183.9433 C   0  0  0  0  0  0  0  0  0  0  0  0
  157.8154  140.1454  184.8987 Cl  0  0  0  0  0  0  0  0  0  0  0  0
  155.4510  138.4364  184.8746 N   0  0  0  0  0  0  0  0  0  0  0  0
  155.8822  137.5574  184.4213 H   0  0  0  0  0  0  0  0  0  0  0  0
  154.5098  138.0986  189.0072 C   0  0  0  0  0  0  0  0  0  0  0  0
  155.8063  137.8837  188.5223 C   0  0  0  0  0  0  0  0  0  0  0  0
  156.0789  137.9922  187.1870 C   0  0  0  0  0  0  0  0  0  0  0  0
  155.0905  138.3206  186.2369 C   0  0  0  0  0  0  0  0  0  0  0  0
  153.8419  138.5280  186.7073 C   0  0  0  0  0  0  0  0  0  0  0  0
  153.5583  138.4169  188.0786 C   0  0  0  0  0  0  0  0  0  0  0  0
  153.0157  136.9760  192.3708 C   0  0  0  0  0  0  0  0  0  0  0  0
  153.2775  137.0754  190.9398 N   0  0  0  0  0  0  0  0  0  0  0  0
  154.2301  137.9803  190.4296 C   0  0  0  0  0  0  0  0  0  0  0  0
  154.8583  138.7088  191.2347 O   0  0  0  0  0  0  0  0  0  0  0  0
  152.7321  136.4514  190.3134 H   0  0  0  0  0  0  0  0  0  0  0  0
  152.9258  141.0976  181.7201 N   0  0  0  0  0  0  0  0  0  0  0  0
  152.6862  142.1138  181.4535 H   0  0  0  0  0  0  0  0  0  0  0  0
  152.0106  140.1462  181.2620 C   0  0  0  0  0  0  0  0  0  0  0  0
  151.2579  140.1745  180.1254 C   0  0  0  0  0  0  0  0  0  0  0  0
  150.4776  139.0040  180.0713 C   0  0  0  0  0  0  0  0  0  0  0  0
  149.5145  138.5987  179.0306 C   0  0  0  0  0  0  0  0  0  0  0  0
  150.7917  138.3319  181.1645 N   0  0  0  0  0  0  0  0  0  0  0  0
  151.6744  138.9683  181.8700 N   0  0  0  0  0  0  0  0  0  0  0  0
  150.3769  137.4040  181.4221 H   0  0  0  0  0  0  0  0  0  0  0  0
 16 17  1  0  0  0
 17 18  1  0  0  0
 18 19  2  0  0  0
 18 10  1  0  0  0
 10 11  2  0  0  0
 11 12  1  0  0  0
 12 13  2  0  0  0
 13  8  1  0  0  0
  8  1  1  0  0  0
  1  2  2  0  0  0
  2  3  1  0  0  0
  3 21  1  0  0  0
 21 23  1  0  0  0
 23 24  1  0  0  0
 24 25  2  0  0  0
 25 26  1  0  0  0
 25 27  1  0  0  0
 27 28  1  0  0  0
  3  4  2  0  0  0
  4  5  1  0  0  0
  5  6  2  0  0  0
  6  7  1  0  0  0
 13 14  1  0  0  0
 14 15  2  0  0  0
 15 10  1  0  0  0
  6  1  1  0  0  0
 28 23  2  0  0  0
 17 20  1  0  0  0
  8  9  1  0  0  0
 21 22  1  0  0  0
 27 29  1  0  0  0
M  END
> <minimizedAffinity>
-7.30113

> <CNNscore>
0.2125542760

> <CNNaffinity>
5.2660470009

> <CNN_VS>
1.1193207502

> <CNNaffinity_variance>
0.1932958663

$$$$
[H]c1nc(N([H])c2nn([H])c(C([H])([H])[H])c2[H])nc(N([H])c2c([H])c([H])c(C(=O)N([H])C([H])([H])[H])c([H])c2[H])c1Cl


 29 31  0  0  0  0  0  0  0  0999 V2000
  153.7547  139.1978  183.5144 C   0  0  0  0  0  0  0  0  0  0  0  0
  154.8829  139.9214  183.5217 N   0  0  0  0  0  0  0  0  0  0  0  0
  155.1830  140.8842  182.6239 C   0  0  0  0  0  0  0  0  0  0  0  0
  154.2764  141.1097  181.6753 N   0  0  0  0  0  0  0  0  0  0  0  0
  153.1186  140.4369  181.5860 C   0  0  0  0  0  0  0  0  0  0  0  0
  152.8269  139.4653  182.5005 C   0  0  0  0  0  0  0  0  0  0  0  0
  151.3484  138.5350  182.4678 Cl  0  0  0  0  0  0  0  0  0  0  0  0
  153.4457  138.2094  184.4695 N   0  0  0  0  0  0  0  0  0  0  0  0
  152.8279  137.3955  184.1232 H   0  0  0  0  0  0  0  0  0  0  0  0
  154.7934  138.0271  188.4981 C   0  0  0  0  0  0  0  0  0  0  0  0
  155.5956  137.6091  187.4284 C   0  0  0  0  0  0  0  0  0  0  0  0
  155.1337  137.6725  186.1433 C   0  0  0  0  0  0  0  0  0  0  0  0
  153.8473  138.1528  185.8240 C   0  0  0  0  0  0  0  0  0  0  0  0
  153.0765  138.5556  186.8571 C   0  0  0  0  0  0  0  0  0  0  0  0
  153.5479  138.4917  188.1787 C   0  0  0  0  0  0  0  0  0  0  0  0
  156.4415  136.7673  191.7389 C   0  0  0  0  0  0  0  0  0  0  0  0
  155.9485  136.8141  190.3674 N   0  0  0  0  0  0  0  0  0  0  0  0
  155.2941  137.9552  189.8617 C   0  0  0  0  0  0  0  0  0  0  0  0
  155.1394  138.9438  190.6182 O   0  0  0  0  0  0  0  0  0  0  0  0
  156.1003  135.9708  189.7799 H   0  0  0  0  0  0  0  0  0  0  0  0
  156.3895  141.6106  182.6875 N   0  0  0  0  0  0  0  0  0  0  0  0
  156.6622  142.0391  183.6379 H   0  0  0  0  0  0  0  0  0  0  0  0
  157.3014  141.8551  181.6574 C   0  0  0  0  0  0  0  0  0  0  0  0
  157.9458  143.0183  181.3560 C   0  0  0  0  0  0  0  0  0  0  0  0
  158.7702  142.8007  180.2359 C   0  0  0  0  0  0  0  0  0  0  0  0
  159.6524  143.7653  179.5531 C   0  0  0  0  0  0  0  0  0  0  0  0
  158.5874  141.5317  179.9171 N   0  0  0  0  0  0  0  0  0  0  0  0
  157.7444  140.9620  180.7213 N   0  0  0  0  0  0  0  0  0  0  0  0
  159.0656  141.0533  179.1159 H   0  0  0  0  0  0  0  0  0  0  0  0
 16 17  1  0  0  0
 17 18  1  0  0  0
 18 19  2  0  0  0
 18 10  1  0  0  0
 10 11  2  0  0  0
 11 12  1  0  0  0
 12 13  2  0  0  0
 13  8  1  0  0  0
  8  1  1  0  0  0
  1  2  2  0  0  0
  2  3  1  0  0  0
  3 21  1  0  0  0
 21 23  1  0  0  0
 23 24  1  0  0  0
 24 25  2  0  0  0
 25 26  1  0  0  0
 25 27  1  0  0  0
 27 28  1  0  0  0
  3  4  2  0  0  0
  4  5  1  0  0  0
  5  6  2  0  0  0
  6  7  1  0  0  0
 13 14  1  0  0  0
 14 15  2  0  0  0
 15 10  1  0  0  0
  6  1  1  0  0  0
 28 23  2  0  0  0
 17 20  1  0  0  0
  8  9  1  0  0  0
 21 22  1  0  0  0
 27 29  1  0  0  0
M  END
> <minimizedAffinity>
-8.13558

> <CNNscore>
0.2085874379

> <CNNaffinity>
5.5983428955

> <CNN_VS>
1.1677440405

> <CNNaffinity_variance>
0.0610779040

$$$$
[H]OC(=O)C1([H])C([H])([H])C([H])([H])N(C(=O)[C@@]([H])(N([H])C(=O)[C@@]([H])(N([H])C(=O)[C@@]([H])(N([H])[H])C([H])([H])C([H])(C([H])([H])[H])C([H])([H])[H])C([H])([H])c2c([H])c([H])c([H])c([H])c2[H])C([H])([H])c2c([H])n([H])c3c([H])c([H])c([H])c([H])c23)C([H])([H])C1([H])[H]


 48 51  0  0  0  0  0  0  0  0999 V2000
  155.0109  140.8975  183.2549 C   0  0  0  0  0  0  0  0  0  0  0  0
  154.7890  141.4561  184.3467 O   0  0  0  0  0  0  0  0  0  0  0  0
  155.6217  139.6283  183.2595 N   0  0  0  0  0  0  0  0  0  0  0  0
  155.8303  139.1689  182.3533 H   0  0  0  0  0  0  0  0  0  0  0  0
  154.6037  141.6163  181.9806 C   0  0  0  0  0  0  0  0  0  0  0  0
  152.5558  140.2188  181.4896 C   0  0  0  0  0  0  0  0  0  0  0  0
  153.3176  139.2825  181.2111 O   0  0  0  0  0  0  0  0  0  0  0  0
  153.1690  141.4533  181.8966 N   0  0  0  0  0  0  0  0  0  0  0  0
  152.5845  142.2827  182.1467 H   0  0  0  0  0  0  0  0  0  0  0  0
  151.1002  140.0465  181.4049 C   0  0  0  0  0  0  0  0  0  0  0  0
  150.6345  140.2253  180.0222 N   0  0  0  0  0  0  0  0  0  0  0  0
  150.2863  139.3362  179.6156 H   0  0  0  0  0  0  0  0  0  0  0  0
  150.0523  141.0552  179.8770 H   0  0  0  0  0  0  0  0  0  0  0  0
  150.5172  138.7979  181.9417 C   0  0  0  0  0  0  0  0  0  0  0  0
  148.7296  137.0520  181.8506 C   0  0  0  0  0  0  0  0  0  0  0  0
  149.1009  138.5011  181.5812 C   0  0  0  0  0  0  0  0  0  0  0  0
  148.2144  139.3022  182.5648 C   0  0  0  0  0  0  0  0  0  0  0  0
  155.0688  143.0053  182.1389 C   0  0  0  0  0  0  0  0  0  0  0  0
  156.4647  143.3113  181.8868 C   0  0  0  0  0  0  0  0  0  0  0  0
  157.0333  144.4422  182.4305 C   0  0  0  0  0  0  0  0  0  0  0  0
  158.3781  144.7559  182.2102 C   0  0  0  0  0  0  0  0  0  0  0  0
  159.1534  143.9281  181.4405 C   0  0  0  0  0  0  0  0  0  0  0  0
  158.6067  142.8073  180.8958 C   0  0  0  0  0  0  0  0  0  0  0  0
  157.2604  142.4953  181.1176 C   0  0  0  0  0  0  0  0  0  0  0  0
  155.9930  138.9358  184.4760 C   0  0  0  0  0  0  0  0  0  0  0  0
  154.7917  138.4707  185.2086 C   0  0  0  0  0  0  0  0  0  0  0  0
  153.7149  138.4048  184.5219 O   0  0  0  0  0  0  0  0  0  0  0  0
  154.7046  138.0954  186.5596 N   0  0  0  0  0  0  0  0  0  0  0  0
  155.8066  138.0747  187.4925 C   0  0  0  0  0  0  0  0  0  0  0  0
  155.6024  136.8563  188.3993 C   0  0  0  0  0  0  0  0  0  0  0  0
  154.3886  137.0639  189.2844 C   0  0  0  0  0  0  0  0  0  0  0  0
  153.3323  137.8868  188.5906 C   0  0  0  0  0  0  0  0  0  0  0  0
  153.4181  137.6873  187.1236 C   0  0  0  0  0  0  0  0  0  0  0  0
  153.7982  135.7486  189.6194 C   0  0  0  0  0  0  0  0  0  0  0  0
  154.5394  134.5829  189.7921 O   0  0  0  0  0  0  0  0  0  0  0  0
  152.5367  135.5955  189.7741 O   0  0  0  0  0  0  0  0  0  0  0  0
  155.5319  134.5598  189.6786 H   0  0  0  0  0  0  0  0  0  0  0  0
  156.8663  139.8215  185.3778 C   0  0  0  0  0  0  0  0  0  0  0  0
  158.1368  140.1926  184.7088 C   0  0  0  0  0  0  0  0  0  0  0  0
  158.5705  139.7016  183.4669 C   0  0  0  0  0  0  0  0  0  0  0  0
  159.7268  140.2834  183.1330 N   0  0  0  0  0  0  0  0  0  0  0  0
  160.0550  141.1388  184.1261 C   0  0  0  0  0  0  0  0  0  0  0  0
  161.1413  141.9719  184.2975 C   0  0  0  0  0  0  0  0  0  0  0  0
  161.2876  142.7624  185.4261 C   0  0  0  0  0  0  0  0  0  0  0  0
  160.2934  142.6891  186.3891 C   0  0  0  0  0  0  0  0  0  0  0  0
  159.1927  141.8722  186.2569 C   0  0  0  0  0  0  0  0  0  0  0  0
  159.0869  141.1030  185.1186 C   0  0  0  0  0  0  0  0  0  0  0  0
  160.2670  140.0899  182.2439 H   0  0  0  0  0  0  0  0  0  0  0  0
 15 16  1  0  0  0
 16 17  1  0  0  0
 16 14  1  0  0  0
 14 10  1  0  0  0
 10 11  1  0  0  0
 10  6  1  0  0  0
  6  7  2  0  0  0
  6  8  1  0  0  0
  8  5  1  0  0  0
  5 18  1  0  0  0
 18 19  1  0  0  0
 19 20  2  0  0  0
 20 21  1  0  0  0
 21 22  2  0  0  0
 22 23  1  0  0  0
 23 24  2  0  0  0
  5  1  1  0  0  0
  1  2  2  0  0  0
  1  3  1  0  0  0
  3 25  1  0  0  0
 25 38  1  0  0  0
 38 39  1  0  0  0
 39 40  2  0  0  0
 40 41  1  0  0  0
 41 42  1  0  0  0
 42 43  2  0  0  0
 43 44  1  0  0  0
 44 45  2  0  0  0
 45 46  1  0  0  0
 46 47  2  0  0  0
 25 26  1  0  0  0
 26 27  2  0  0  0
 26 28  1  0  0  0
 28 29  1  0  0  0
 29 30  1  0  0  0
 30 31  1  0  0  0
 31 32  1  0  0  0
 32 33  1  0  0  0
 31 34  1  0  0  0
 34 35  1  0  0  0
 34 36  2  0  0  0
 24 19  1  0  0  0
 47 39  1  0  0  0
 33 28  1  0  0  0
 47 42  1  0  0  0
 11 12  1  0  0  0
 11 13  1  0  0  0
  8  9  1  0  0  0
  3  4  1  0  0  0
 41 48  1  0  0  0
 35 37  1  0  0  0
M  END
> <minimizedAffinity>
-9.09642

> <CNNscore>
0.5319732428

> <CNNaffinity>
7.3902883530

> <CNN_VS>
3.9314355850

> <CNNaffinity_variance>
0.0552371740

$$$$
[H]OC(=O)C1([H])C([H])([H])C([H])([H])N(C(=O)[C@@]([H])(N([H])C(=O)[C@@]([H])(N([H])C(=O)[C@@]([H])(N([H])[H])C([H])([H])C([H])(C([H])([H])[H])C([H])([H])[H])C([H])([H])c2c([H])c([H])c([H])c([H])c2[H])C([H])([H])c2c([H])n([H])c3c([H])c([H])c([H])c([H])c23)C([H])([H])C1([H])[H]


 48 51  0  0  0  0  0  0  0  0999 V2000
  156.3232  139.9196  184.4144 C   0  0  0  0  0  0  0  0  0  0  0  0
  155.4887  140.5122  183.7032 O   0  0  0  0  0  0  0  0  0  0  0  0
  155.8680  138.9194  185.2955 N   0  0  0  0  0  0  0  0  0  0  0  0
  156.5546  138.4391  185.9068 H   0  0  0  0  0  0  0  0  0  0  0  0
  157.7860  140.3068  184.2854 C   0  0  0  0  0  0  0  0  0  0  0  0
  158.3804  140.3282  181.8289 C   0  0  0  0  0  0  0  0  0  0  0  0
  158.7189  139.1424  181.9472 O   0  0  0  0  0  0  0  0  0  0  0  0
  157.8873  140.9817  183.0102 N   0  0  0  0  0  0  0  0  0  0  0  0
  157.5837  141.9812  182.9800 H   0  0  0  0  0  0  0  0  0  0  0  0
  158.4832  141.0073  180.5312 C   0  0  0  0  0  0  0  0  0  0  0  0
  157.1658  141.4860  180.0886 N   0  0  0  0  0  0  0  0  0  0  0  0
  157.1123  142.5224  180.0914 H   0  0  0  0  0  0  0  0  0  0  0  0
  156.8010  141.0102  179.2583 H   0  0  0  0  0  0  0  0  0  0  0  0
  159.4554  142.1141  180.4027 C   0  0  0  0  0  0  0  0  0  0  0  0
  158.9207  144.3139  181.4644 C   0  0  0  0  0  0  0  0  0  0  0  0
  158.9011  143.4826  180.1922 C   0  0  0  0  0  0  0  0  0  0  0  0
  159.8828  144.2197  179.2498 C   0  0  0  0  0  0  0  0  0  0  0  0
  158.0840  141.1417  185.4622 C   0  0  0  0  0  0  0  0  0  0  0  0
  159.4066  141.7242  185.5928 C   0  0  0  0  0  0  0  0  0  0  0  0
  159.7662  142.3679  186.7565 C   0  0  0  0  0  0  0  0  0  0  0  0
  161.0370  142.9306  186.9117 C   0  0  0  0  0  0  0  0  0  0  0  0
  161.9491  142.8445  185.8921 C   0  0  0  0  0  0  0  0  0  0  0  0
  161.6093  142.2123  184.7361 C   0  0  0  0  0  0  0  0  0  0  0  0
  160.3368  141.6499  184.5830 C   0  0  0  0  0  0  0  0  0  0  0  0
  154.4750  138.5383  185.4046 C   0  0  0  0  0  0  0  0  0  0  0  0
  154.0512  138.4799  186.8235 C   0  0  0  0  0  0  0  0  0  0  0  0
  152.8243  138.7632  187.0473 O   0  0  0  0  0  0  0  0  0  0  0  0
  154.8381  138.1494  187.9392 N   0  0  0  0  0  0  0  0  0  0  0  0
  156.2322  137.7757  187.8957 C   0  0  0  0  0  0  0  0  0  0  0  0
  156.4362  136.6844  188.9522 C   0  0  0  0  0  0  0  0  0  0  0  0
  156.2655  137.2672  190.3419 C   0  0  0  0  0  0  0  0  0  0  0  0
  155.2543  138.3860  190.3522 C   0  0  0  0  0  0  0  0  0  0  0  0
  154.2527  138.1726  189.2796 C   0  0  0  0  0  0  0  0  0  0  0  0
  155.7874  136.2089  191.2596 C   0  0  0  0  0  0  0  0  0  0  0  0
  156.3708  134.9495  191.3680 O   0  0  0  0  0  0  0  0  0  0  0  0
  154.7811  136.3886  192.0301 O   0  0  0  0  0  0  0  0  0  0  0  0
  157.1503  134.6724  190.8077 H   0  0  0  0  0  0  0  0  0  0  0  0
  154.2072  137.1967  184.7053 C   0  0  0  0  0  0  0  0  0  0  0  0
  153.1327  137.3179  183.6904 C   0  0  0  0  0  0  0  0  0  0  0  0
  152.7213  138.5171  183.0871 C   0  0  0  0  0  0  0  0  0  0  0  0
  151.7734  138.2613  182.1799 N   0  0  0  0  0  0  0  0  0  0  0  0
  151.5587  136.9273  182.1790 C   0  0  0  0  0  0  0  0  0  0  0  0
  150.6873  136.1389  181.4560 C   0  0  0  0  0  0  0  0  0  0  0  0
  150.6198  134.7666  181.6355 C   0  0  0  0  0  0  0  0  0  0  0  0
  151.4681  134.2042  182.5764 C   0  0  0  0  0  0  0  0  0  0  0  0
  152.3532  134.9543  183.3182 C   0  0  0  0  0  0  0  0  0  0  0  0
  152.3876  136.3155  183.1076 C   0  0  0  0  0  0  0  0  0  0  0  0
  151.2940  138.9919  181.5831 H   0  0  0  0  0  0  0  0  0  0  0  0
 15 16  1  0  0  0
 16 17  1  0  0  0
 16 14  1  0  0  0
 14 10  1  0  0  0
 10 11  1  0  0  0
 10  6  1  0  0  0
  6  7  2  0  0  0
  6  8  1  0  0  0
  8  5  1  0  0  0
  5 18  1  0  0  0
 18 19  1  0  0  0
 19 20  2  0  0  0
 20 21  1  0  0  0
 21 22  2  0  0  0
 22 23  1  0  0  0
 23 24  2  0  0  0
  5  1  1  0  0  0
  1  2  2  0  0  0
  1  3  1  0  0  0
  3 25  1  0  0  0
 25 38  1  0  0  0
 38 39  1  0  0  0
 39 40  2  0  0  0
 40 41  1  0  0  0
 41 42  1  0  0  0
 42 43  2  0  0  0
 43 44  1  0  0  0
 44 45  2  0  0  0
 45 46  1  0  0  0
 46 47  2  0  0  0
 25 26  1  0  0  0
 26 27  2  0  0  0
 26 28  1  0  0  0
 28 29  1  0  0  0
 29 30  1  0  0  0
 30 31  1  0  0  0
 31 32  1  0  0  0
 32 33  1  0  0  0
 31 34  1  0  0  0
 34 35  1  0  0  0
 34 36  2  0  0  0
 24 19  1  0  0  0
 47 39  1  0  0  0
 33 28  1  0  0  0
 47 42  1  0  0  0
 11 12  1  0  0  0
 11 13  1  0  0  0
  8  9  1  0  0  0
  3  4  1  0  0  0
 41 48  1  0  0  0
 35 37  1  0  0  0
M  END
> <minimizedAffinity>
-9.70243

> <CNNscore>
0.3751604855

> <CNNaffinity>
6.9136924744

> <CNN_VS>
2.5937442780

> <CNNaffinity_variance>
0.2712482810

$$$$
[H]OC(=O)C1([H])C([H])([H])C([H])([H])N(C(=O)[C@@]([H])(N([H])C(=O)[C@@]([H])(N([H])C(=O)[C@@]([H])(N([H])[H])C([H])([H])C([H])(C([H])([H])[H])C([H])([H])[H])C([H])([H])c2c([H])c([H])c([H])c([H])c2[H])C([H])([H])c2c([H])n([H])c3c([H])c([H])c([H])c([H])c23)C([H])([H])C1([H])[H]


 48 51  0  0  0  0  0  0  0  0999 V2000
  153.9710  138.2310  184.1604 C   0  0  0  0  0  0  0  0  0  0  0  0
  153.8613  137.0277  183.8549 O   0  0  0  0  0  0  0  0  0  0  0  0
  154.3541  138.5600  185.4753 N   0  0  0  0  0  0  0  0  0  0  0  0
  154.4241  139.5598  185.7419 H   0  0  0  0  0  0  0  0  0  0  0  0
  153.6904  139.2749  183.0936 C   0  0  0  0  0  0  0  0  0  0  0  0
  155.2014  141.2966  183.2251 C   0  0  0  0  0  0  0  0  0  0  0  0
  154.2641  141.9057  183.7589 O   0  0  0  0  0  0  0  0  0  0  0  0
  154.9599  139.9276  182.8604 N   0  0  0  0  0  0  0  0  0  0  0  0
  155.7082  139.3559  182.4074 H   0  0  0  0  0  0  0  0  0  0  0  0
  156.4886  141.9639  182.9933 C   0  0  0  0  0  0  0  0  0  0  0  0
  157.5872  141.2022  183.6044 N   0  0  0  0  0  0  0  0  0  0  0  0
  158.2129  140.7874  182.8879 H   0  0  0  0  0  0  0  0  0  0  0  0
  158.0412  141.6743  184.3918 H   0  0  0  0  0  0  0  0  0  0  0  0
  156.8590  142.2911  181.5995 C   0  0  0  0  0  0  0  0  0  0  0  0
  158.6515  142.4096  179.8602 C   0  0  0  0  0  0  0  0  0  0  0  0
  158.2980  142.5751  181.3291 C   0  0  0  0  0  0  0  0  0  0  0  0
  158.5110  144.0845  181.5963 C   0  0  0  0  0  0  0  0  0  0  0  0
  153.1455  138.5340  181.9426 C   0  0  0  0  0  0  0  0  0  0  0  0
  151.8738  138.9480  181.3795 C   0  0  0  0  0  0  0  0  0  0  0  0
  151.8283  139.5388  180.1359 C   0  0  0  0  0  0  0  0  0  0  0  0
  150.6154  139.9394  179.5667 C   0  0  0  0  0  0  0  0  0  0  0  0
  149.4442  139.7440  180.2516 C   0  0  0  0  0  0  0  0  0  0  0  0
  149.4721  139.1621  181.4813 C   0  0  0  0  0  0  0  0  0  0  0  0
  150.6872  138.7620  182.0490 C   0  0  0  0  0  0  0  0  0  0  0  0
  154.6391  137.5634  186.4867 C   0  0  0  0  0  0  0  0  0  0  0  0
  153.6419  137.6194  187.5815 C   0  0  0  0  0  0  0  0  0  0  0  0
  153.3779  138.7871  188.0314 O   0  0  0  0  0  0  0  0  0  0  0  0
  152.9588  136.5440  188.1734 N   0  0  0  0  0  0  0  0  0  0  0  0
  153.0956  135.1578  187.7928 C   0  0  0  0  0  0  0  0  0  0  0  0
  151.7054  134.5229  187.9075 C   0  0  0  0  0  0  0  0  0  0  0  0
  151.2832  134.4542  189.3624 C   0  0  0  0  0  0  0  0  0  0  0  0
  151.8394  135.6103  190.1551 C   0  0  0  0  0  0  0  0  0  0  0  0
  152.0238  136.7872  189.2718 C   0  0  0  0  0  0  0  0  0  0  0  0
  149.8065  134.5101  189.4452 C   0  0  0  0  0  0  0  0  0  0  0  0
  148.9972  135.1504  188.5107 O   0  0  0  0  0  0  0  0  0  0  0  0
  149.1638  133.9605  190.4062 O   0  0  0  0  0  0  0  0  0  0  0  0
  149.3735  135.6369  187.7233 H   0  0  0  0  0  0  0  0  0  0  0  0
  156.0620  137.7245  187.0434 C   0  0  0  0  0  0  0  0  0  0  0  0
  156.4021  136.6343  187.9895 C   0  0  0  0  0  0  0  0  0  0  0  0
  156.8594  135.3584  187.6228 C   0  0  0  0  0  0  0  0  0  0  0  0
  157.1245  134.6437  188.7210 N   0  0  0  0  0  0  0  0  0  0  0  0
  156.8508  135.4224  189.7907 C   0  0  0  0  0  0  0  0  0  0  0  0
  156.9307  135.1796  191.1465 C   0  0  0  0  0  0  0  0  0  0  0  0
  156.5724  136.1347  192.0843 C   0  0  0  0  0  0  0  0  0  0  0  0
  156.1264  137.3583  191.6098 C   0  0  0  0  0  0  0  0  0  0  0  0
  156.0325  137.6420  190.2655 C   0  0  0  0  0  0  0  0  0  0  0  0
  156.3994  136.6637  189.3674 C   0  0  0  0  0  0  0  0  0  0  0  0
  157.4834  133.6483  188.7231 H   0  0  0  0  0  0  0  0  0  0  0  0
 15 16  1  0  0  0
 16 17  1  0  0  0
 16 14  1  0  0  0
 14 10  1  0  0  0
 10 11  1  0  0  0
 10  6  1  0  0  0
  6  7  2  0  0  0
  6  8  1  0  0  0
  8  5  1  0  0  0
  5 18  1  0  0  0
 18 19  1  0  0  0
 19 20  2  0  0  0
 20 21  1  0  0  0
 21 22  2  0  0  0
 22 23  1  0  0  0
 23 24  2  0  0  0
  5  1  1  0  0  0
  1  2  2  0  0  0
  1  3  1  0  0  0
  3 25  1  0  0  0
 25 38  1  0  0  0
 38 39  1  0  0  0
 39 40  2  0  0  0
 40 41  1  0  0  0
 41 42  1  0  0  0
 42 43  2  0  0  0
 43 44  1  0  0  0
 44 45  2  0  0  0
 45 46  1  0  0  0
 46 47  2  0  0  0
 25 26  1  0  0  0
 26 27  2  0  0  0
 26 28  1  0  0  0
 28 29  1  0  0  0
 29 30  1  0  0  0
 30 31  1  0  0  0
 31 32  1  0  0  0
 32 33  1  0  0  0
 31 34  1  0  0  0
 34 35  1  0  0  0
 34 36  2  0  0  0
 24 19  1  0  0  0
 47 39  1  0  0  0
 33 28  1  0  0  0
 47 42  1  0  0  0
 11 12  1  0  0  0
 11 13  1  0  0  0
  8  9  1  0  0  0
  3  4  1  0  0  0
 41 48  1  0  0  0
 35 37  1  0  0  0
M  END
> <minimizedAffinity>
-7.63924

> <CNNscore>
0.3362956643

> <CNNaffinity>
6.3521075249

> <CNN_VS>
2.1361861229

> <CNNaffinity_variance>
0.0546472855

$$$$
[H]OC(=O)C1([H])C([H])([H])C([H])([H])N(C(=O)[C@@]([H])(N([H])C(=O)[C@@]([H])(N([H])C(=O)[C@@]([H])(N([H])[H])C([H])([H])C([H])(C([H])([H])[H])C([H])([H])[H])C([H])([H])c2c([H])c([H])c([H])c([H])c2[H])C([H])([H])c2c([H])n([H])c3c([H])c([H])c([H])c([H])c23)C([H])([H])C1([H])[H]


 48 51  0  0  0  0  0  0  0  0999 V2000
  156.3727  140.3395  184.4761 C   0  0  0  0  0  0  0  0  0  0  0  0
  155.6316  141.3317  184.3360 O   0  0  0  0  0  0  0  0  0  0  0  0
  155.7796  139.0825  184.7043 N   0  0  0  0  0  0  0  0  0  0  0  0
  156.3918  138.2572  184.8451 H   0  0  0  0  0  0  0  0  0  0  0  0
  157.8752  140.5425  184.3865 C   0  0  0  0  0  0  0  0  0  0  0  0
  158.4431  140.3787  181.9292 C   0  0  0  0  0  0  0  0  0  0  0  0
  158.5411  139.1531  182.0803 O   0  0  0  0  0  0  0  0  0  0  0  0
  158.0981  141.1490  183.0925 N   0  0  0  0  0  0  0  0  0  0  0  0
  157.9981  142.1875  183.0347 H   0  0  0  0  0  0  0  0  0  0  0  0
  158.6681  140.9882  180.6125 C   0  0  0  0  0  0  0  0  0  0  0  0
  157.3899  141.3262  179.9701 N   0  0  0  0  0  0  0  0  0  0  0  0
  157.2567  142.3526  179.8950 H   0  0  0  0  0  0  0  0  0  0  0  0
  157.1789  140.7738  179.1339 H   0  0  0  0  0  0  0  0  0  0  0  0
  159.5605  142.1650  180.5365 C   0  0  0  0  0  0  0  0  0  0  0  0
  158.8673  144.3678  181.4951 C   0  0  0  0  0  0  0  0  0  0  0  0
  158.9215  143.4839  180.2599 C   0  0  0  0  0  0  0  0  0  0  0  0
  159.8674  144.2434  179.2990 C   0  0  0  0  0  0  0  0  0  0  0  0
  158.2349  141.3819  185.5427 C   0  0  0  0  0  0  0  0  0  0  0  0
  159.5969  141.8685  185.6602 C   0  0  0  0  0  0  0  0  0  0  0  0
  160.0054  142.5082  186.8099 C   0  0  0  0  0  0  0  0  0  0  0  0
  161.3143  142.9793  186.9523 C   0  0  0  0  0  0  0  0  0  0  0  0
  162.2153  142.8052  185.9342 C   0  0  0  0  0  0  0  0  0  0  0  0
  161.8276  142.1756  184.7919 C   0  0  0  0  0  0  0  0  0  0  0  0
  160.5170  141.7050  184.6515 C   0  0  0  0  0  0  0  0  0  0  0  0
  154.3461  138.8871  184.7714 C   0  0  0  0  0  0  0  0  0  0  0  0
  153.9641  138.1928  186.0237 C   0  0  0  0  0  0  0  0  0  0  0  0
  154.7204  138.4117  187.0315 O   0  0  0  0  0  0  0  0  0  0  0  0
  152.8733  137.3311  186.2266 N   0  0  0  0  0  0  0  0  0  0  0  0
  151.8918  136.9784  185.2279 C   0  0  0  0  0  0  0  0  0  0  0  0
  150.5394  136.8856  185.9428 C   0  0  0  0  0  0  0  0  0  0  0  0
  150.5304  135.6993  186.8875 C   0  0  0  0  0  0  0  0  0  0  0  0
  151.8999  135.4406  187.4636 C   0  0  0  0  0  0  0  0  0  0  0  0
  152.6669  136.7079  187.5338 C   0  0  0  0  0  0  0  0  0  0  0  0
  149.6060  135.9761  188.0097 C   0  0  0  0  0  0  0  0  0  0  0  0
  149.8561  135.6186  189.3318 O   0  0  0  0  0  0  0  0  0  0  0  0
  148.4891  136.5756  187.8311 O   0  0  0  0  0  0  0  0  0  0  0  0
  150.6819  135.1266  189.6045 H   0  0  0  0  0  0  0  0  0  0  0  0
  153.8304  138.1154  183.5471 C   0  0  0  0  0  0  0  0  0  0  0  0
  153.1165  139.0087  182.6028 C   0  0  0  0  0  0  0  0  0  0  0  0
  153.4554  140.3460  182.3413 C   0  0  0  0  0  0  0  0  0  0  0  0
  152.6441  140.8390  181.4002 N   0  0  0  0  0  0  0  0  0  0  0  0
  151.7874  139.8566  181.0443 C   0  0  0  0  0  0  0  0  0  0  0  0
  150.7469  139.8305  180.1387 C   0  0  0  0  0  0  0  0  0  0  0  0
  149.9712  138.6985  179.9463 C   0  0  0  0  0  0  0  0  0  0  0  0
  150.2796  137.5783  180.7021 C   0  0  0  0  0  0  0  0  0  0  0  0
  151.3099  137.5616  181.6156 C   0  0  0  0  0  0  0  0  0  0  0  0
  152.0561  138.7088  181.7751 C   0  0  0  0  0  0  0  0  0  0  0  0
  152.6873  141.8257  181.0204 H   0  0  0  0  0  0  0  0  0  0  0  0
 15 16  1  0  0  0
 16 17  1  0  0  0
 16 14  1  0  0  0
 14 10  1  0  0  0
 10 11  1  0  0  0
 10  6  1  0  0  0
  6  7  2  0  0  0
  6  8  1  0  0  0
  8  5  1  0  0  0
  5 18  1  0  0  0
 18 19  1  0  0  0
 19 20  2  0  0  0
 20 21  1  0  0  0
 21 22  2  0  0  0
 22 23  1  0  0  0
 23 24  2  0  0  0
  5  1  1  0  0  0
  1  2  2  0  0  0
  1  3  1  0  0  0
  3 25  1  0  0  0
 25 38  1  0  0  0
 38 39  1  0  0  0
 39 40  2  0  0  0
 40 41  1  0  0  0
 41 42  1  0  0  0
 42 43  2  0  0  0
 43 44  1  0  0  0
 44 45  2  0  0  0
 45 46  1  0  0  0
 46 47  2  0  0  0
 25 26  1  0  0  0
 26 27  2  0  0  0
 26 28  1  0  0  0
 28 29  1  0  0  0
 29 30  1  0  0  0
 30 31  1  0  0  0
 31 32  1  0  0  0
 32 33  1  0  0  0
 31 34  1  0  0  0
 34 35  1  0  0  0
 34 36  2  0  0  0
 24 19  1  0  0  0
 47 39  1  0  0  0
 33 28  1  0  0  0
 47 42  1  0  0  0
 11 12  1  0  0  0
 11 13  1  0  0  0
  8  9  1  0  0  0
  3  4  1  0  0  0
 41 48  1  0  0  0
 35 37  1  0  0  0
M  END
> <minimizedAffinity>
-9.65614

> <CNNscore>
0.3018025160

> <CNNaffinity>
6.7749166489

> <CNN_VS>
2.0446867943

> <CNNaffinity_variance>
0.2846054733

$$$$
[H]OC(=O)C1([H])C([H])([H])C([H])([H])N(C(=O)[C@@]([H])(N([H])C(=O)[C@@]([H])(N([H])C(=O)[C@@]([H])(N([H])[H])C([H])([H])C([H])(C([H])([H])[H])C([H])([H])[H])C([H])([H])c2c([H])c([H])c([H])c([H])c2[H])C([H])([H])c2c([H])n([H])c3c([H])c([H])c([H])c([H])c23)C([H])([H])C1([H])[H]


 48 51  0  0  0  0  0  0  0  0999 V2000
  156.7026  140.0352  184.4602 C   0  0  0  0  0  0  0  0  0  0  0  0
  157.5037  139.1038  184.6704 O   0  0  0  0  0  0  0  0  0  0  0  0
  155.3219  139.7642  184.5272 N   0  0  0  0  0  0  0  0  0  0  0  0
  154.6505  140.5297  184.3301 H   0  0  0  0  0  0  0  0  0  0  0  0
  157.2624  141.4123  184.1493 C   0  0  0  0  0  0  0  0  0  0  0  0
  159.5963  141.6690  185.0844 C   0  0  0  0  0  0  0  0  0  0  0  0
  159.0912  142.2234  186.0704 O   0  0  0  0  0  0  0  0  0  0  0  0
  158.6938  141.2265  184.0573 N   0  0  0  0  0  0  0  0  0  0  0  0
  159.0535  140.7504  183.1994 H   0  0  0  0  0  0  0  0  0  0  0  0
  161.0499  141.4810  184.9978 C   0  0  0  0  0  0  0  0  0  0  0  0
  161.4480  141.1249  183.6284 N   0  0  0  0  0  0  0  0  0  0  0  0
  161.9970  141.8818  183.1782 H   0  0  0  0  0  0  0  0  0  0  0  0
  161.8120  140.1728  183.5289 H   0  0  0  0  0  0  0  0  0  0  0  0
  161.9206  142.5781  185.4725 C   0  0  0  0  0  0  0  0  0  0  0  0
  163.5889  142.6306  187.3342 C   0  0  0  0  0  0  0  0  0  0  0  0
  162.1210  142.6958  186.9456 C   0  0  0  0  0  0  0  0  0  0  0  0
  161.6944  144.1305  187.3391 C   0  0  0  0  0  0  0  0  0  0  0  0
  156.6040  141.8394  182.9024 C   0  0  0  0  0  0  0  0  0  0  0  0
  157.4235  142.3135  181.8027 C   0  0  0  0  0  0  0  0  0  0  0  0
  158.0237  143.5516  181.8719 C   0  0  0  0  0  0  0  0  0  0  0  0
  158.8250  144.0289  180.8300 C   0  0  0  0  0  0  0  0  0  0  0  0
  159.0234  143.2569  179.7149 C   0  0  0  0  0  0  0  0  0  0  0  0
  158.4373  142.0318  179.6308 C   0  0  0  0  0  0  0  0  0  0  0  0
  157.6356  141.5561  180.6748 C   0  0  0  0  0  0  0  0  0  0  0  0
  154.7893  138.4547  184.8417 C   0  0  0  0  0  0  0  0  0  0  0  0
  153.7919  138.0316  183.8305 C   0  0  0  0  0  0  0  0  0  0  0  0
  153.1823  138.9781  183.2238 O   0  0  0  0  0  0  0  0  0  0  0  0
  153.4459  136.7199  183.4657 N   0  0  0  0  0  0  0  0  0  0  0  0
  154.0344  135.5195  184.0114 C   0  0  0  0  0  0  0  0  0  0  0  0
  154.1474  134.5135  182.8607 C   0  0  0  0  0  0  0  0  0  0  0  0
  152.7660  134.0671  182.4222 C   0  0  0  0  0  0  0  0  0  0  0  0
  151.7494  135.1682  182.5905 C   0  0  0  0  0  0  0  0  0  0  0  0
  152.4090  136.4900  182.4599 C   0  0  0  0  0  0  0  0  0  0  0  0
  152.8052  133.6945  180.9903 C   0  0  0  0  0  0  0  0  0  0  0  0
  153.8798  133.9584  180.1455 O   0  0  0  0  0  0  0  0  0  0  0  0
  151.8284  133.0919  180.4234 O   0  0  0  0  0  0  0  0  0  0  0  0
  154.6969  134.4422  180.4565 H   0  0  0  0  0  0  0  0  0  0  0  0
  154.1763  138.4253  186.2502 C   0  0  0  0  0  0  0  0  0  0  0  0
  155.0599  137.7239  187.2128 C   0  0  0  0  0  0  0  0  0  0  0  0
  155.9913  136.7279  186.8783 C   0  0  0  0  0  0  0  0  0  0  0  0
  156.6585  136.3509  187.9737 N   0  0  0  0  0  0  0  0  0  0  0  0
  156.1840  137.0761  189.0104 C   0  0  0  0  0  0  0  0  0  0  0  0
  156.5053  137.0773  190.3521 C   0  0  0  0  0  0  0  0  0  0  0  0
  155.8637  137.9062  191.2584 C   0  0  0  0  0  0  0  0  0  0  0  0
  154.8767  138.7459  190.7665 C   0  0  0  0  0  0  0  0  0  0  0  0
  154.5262  138.7769  189.4351 C   0  0  0  0  0  0  0  0  0  0  0  0
  155.1898  137.9362  188.5683 C   0  0  0  0  0  0  0  0  0  0  0  0
  157.4175  135.6139  187.9962 H   0  0  0  0  0  0  0  0  0  0  0  0
 15 16  1  0  0  0
 16 17  1  0  0  0
 16 14  1  0  0  0
 14 10  1  0  0  0
 10 11  1  0  0  0
 10  6  1  0  0  0
  6  7  2  0  0  0
  6  8  1  0  0  0
  8  5  1  0  0  0
  5 18  1  0  0  0
 18 19  1  0  0  0
 19 20  2  0  0  0
 20 21  1  0  0  0
 21 22  2  0  0  0
 22 23  1  0  0  0
 23 24  2  0  0  0
  5  1  1  0  0  0
  1  2  2  0  0  0
  1  3  1  0  0  0
  3 25  1  0  0  0
 25 38  1  0  0  0
 38 39  1  0  0  0
 39 40  2  0  0  0
 40 41  1  0  0  0
 41 42  1  0  0  0
 42 43  2  0  0  0
 43 44  1  0  0  0
 44 45  2  0  0  0
 45 46  1  0  0  0
 46 47  2  0  0  0
 25 26  1  0  0  0
 26 27  2  0  0  0
 26 28  1  0  0  0
 28 29  1  0  0  0
 29 30  1  0  0  0
 30 31  1  0  0  0
 31 32  1  0  0  0
 32 33  1  0  0  0
 31 34  1  0  0  0
 34 35  1  0  0  0
 34 36  2  0  0  0
 24 19  1  0  0  0
 47 39  1  0  0  0
 33 28  1  0  0  0
 47 42  1  0  0  0
 11 12  1  0  0  0
 11 13  1  0  0  0
  8  9  1  0  0  0
  3  4  1  0  0  0
 41 48  1  0  0  0
 35 37  1  0  0  0
M  END
> <minimizedAffinity>
-9.27816

> <CNNscore>
0.2743756175

> <CNNaffinity>
6.8491768837

> <CNN_VS>
1.8792471886

> <CNNaffinity_variance>
0.2464687526

$$$$
[H]OC(=O)C1([H])C([H])([H])C([H])([H])N(C(=O)[C@@]([H])(N([H])C(=O)[C@@]([H])(N([H])C(=O)[C@@]([H])(N([H])[H])C([H])([H])C([H])(C([H])([H])[H])C([H])([H])[H])C([H])([H])c2c([H])c([H])c([H])c([H])c2[H])C([H])([H])c2c([H])n([H])c3c([H])c([H])c([H])c([H])c23)C([H])([H])C1([H])[H]


 48 51  0  0  0  0  0  0  0  0999 V2000
  154.2305  139.1317  184.7528 C   0  0  0  0  0  0  0  0  0  0  0  0
  155.3824  139.0141  185.2137 O   0  0  0  0  0  0  0  0  0  0  0  0
  153.1764  138.4497  185.3914 N   0  0  0  0  0  0  0  0  0  0  0  0
  152.2195  138.5249  184.9984 H   0  0  0  0  0  0  0  0  0  0  0  0
  154.0285  140.0101  183.5304 C   0  0  0  0  0  0  0  0  0  0  0  0
  155.3960  142.1225  183.2942 C   0  0  0  0  0  0  0  0  0  0  0  0
  154.3445  142.7638  183.4279 O   0  0  0  0  0  0  0  0  0  0  0  0
  155.2910  140.6899  183.3407 N   0  0  0  0  0  0  0  0  0  0  0  0
  156.1394  140.0888  183.2358 H   0  0  0  0  0  0  0  0  0  0  0  0
  156.6749  142.8183  183.1045 C   0  0  0  0  0  0  0  0  0  0  0  0
  157.7759  142.0590  183.7143 N   0  0  0  0  0  0  0  0  0  0  0  0
  158.4215  141.6753  182.9981 H   0  0  0  0  0  0  0  0  0  0  0  0
  158.2073  142.5167  184.5225 H   0  0  0  0  0  0  0  0  0  0  0  0
  157.0641  143.1907  181.7273 C   0  0  0  0  0  0  0  0  0  0  0  0
  158.8345  143.0607  179.9663 C   0  0  0  0  0  0  0  0  0  0  0  0
  158.5240  143.2848  181.4372 C   0  0  0  0  0  0  0  0  0  0  0  0
  158.9325  144.7569  181.6845 C   0  0  0  0  0  0  0  0  0  0  0  0
  153.6382  139.0971  182.4420 C   0  0  0  0  0  0  0  0  0  0  0  0
  152.3641  139.3007  181.7779 C   0  0  0  0  0  0  0  0  0  0  0  0
  151.2205  138.7241  182.2854 C   0  0  0  0  0  0  0  0  0  0  0  0
  149.9788  138.9111  181.6698 C   0  0  0  0  0  0  0  0  0  0  0  0
  149.8880  139.6818  180.5400 C   0  0  0  0  0  0  0  0  0  0  0  0
  151.0083  140.2580  180.0258 C   0  0  0  0  0  0  0  0  0  0  0  0
  152.2500  140.0694  180.6436 C   0  0  0  0  0  0  0  0  0  0  0  0
  153.3673  137.6269  186.5678 C   0  0  0  0  0  0  0  0  0  0  0  0
  152.3256  136.5763  186.6543 C   0  0  0  0  0  0  0  0  0  0  0  0
  151.2811  136.8855  187.3243 O   0  0  0  0  0  0  0  0  0  0  0  0
  152.3558  135.2919  186.0862 N   0  0  0  0  0  0  0  0  0  0  0  0
  153.4277  134.7628  185.2762 C   0  0  0  0  0  0  0  0  0  0  0  0
  152.7809  133.9087  184.1804 C   0  0  0  0  0  0  0  0  0  0  0  0
  152.1492  132.6718  184.7895 C   0  0  0  0  0  0  0  0  0  0  0  0
  151.6271  132.9440  186.1779 C   0  0  0  0  0  0  0  0  0  0  0  0
  151.2405  134.3703  186.3025 C   0  0  0  0  0  0  0  0  0  0  0  0
  151.0105  132.2407  183.9480 C   0  0  0  0  0  0  0  0  0  0  0  0
  150.9657  132.3848  182.5640 O   0  0  0  0  0  0  0  0  0  0  0  0
  149.9679  131.6954  184.4524 O   0  0  0  0  0  0  0  0  0  0  0  0
  151.7056  132.8143  182.0480 H   0  0  0  0  0  0  0  0  0  0  0  0
  153.3837  138.4777  187.8470 C   0  0  0  0  0  0  0  0  0  0  0  0
  154.3448  137.9440  188.8424 C   0  0  0  0  0  0  0  0  0  0  0  0
  155.7361  138.1294  188.8036 C   0  0  0  0  0  0  0  0  0  0  0  0
  156.2943  137.5661  189.8798 N   0  0  0  0  0  0  0  0  0  0  0  0
  155.3016  137.0197  190.6158 C   0  0  0  0  0  0  0  0  0  0  0  0
  155.3205  136.3120  191.7999 C   0  0  0  0  0  0  0  0  0  0  0  0
  154.1617  135.8172  192.3764 C   0  0  0  0  0  0  0  0  0  0  0  0
  152.9672  136.0607  191.7167 C   0  0  0  0  0  0  0  0  0  0  0  0
  152.9038  136.7633  190.5340 C   0  0  0  0  0  0  0  0  0  0  0  0
  154.0801  137.2377  189.9958 C   0  0  0  0  0  0  0  0  0  0  0  0
  157.3309  137.5635  190.0924 H   0  0  0  0  0  0  0  0  0  0  0  0
 15 16  1  0  0  0
 16 17  1  0  0  0
 16 14  1  0  0  0
 14 10  1  0  0  0
 10 11  1  0  0  0
 10  6  1  0  0  0
  6  7  2  0  0  0
  6  8  1  0  0  0
  8  5  1  0  0  0
  5 18  1  0  0  0
 18 19  1  0  0  0
 19 20  2  0  0  0
 20 21  1  0  0  0
 21 22  2  0  0  0
 22 23  1  0  0  0
 23 24  2  0  0  0
  5  1  1  0  0  0
  1  2  2  0  0  0
  1  3  1  0  0  0
  3 25  1  0  0  0
 25 38  1  0  0  0
 38 39  1  0  0  0
 39 40  2  0  0  0
 40 41  1  0  0  0
 41 42  1  0  0  0
 42 43  2  0  0  0
 43 44  1  0  0  0
 44 45  2  0  0  0
 45 46  1  0  0  0
 46 47  2  0  0  0
 25 26  1  0  0  0
 26 27  2  0  0  0
 26 28  1  0  0  0
 28 29  1  0  0  0
 29 30  1  0  0  0
 30 31  1  0  0  0
 31 32  1  0  0  0
 32 33  1  0  0  0
 31 34  1  0  0  0
 34 35  1  0  0  0
 34 36  2  0  0  0
 24 19  1  0  0  0
 47 39  1  0  0  0
 33 28  1  0  0  0
 47 42  1  0  0  0
 11 12  1  0  0  0
 11 13  1  0  0  0
  8  9  1  0  0  0
  3  4  1  0  0  0
 41 48  1  0  0  0
 35 37  1  0  0  0
M  END
> <minimizedAffinity>
-7.61511

> <CNNscore>
0.2612848580

> <CNNaffinity>
6.4350233078

> <CNN_VS>
1.6813741922

> <CNNaffinity_variance>
0.1137999743

$$$$
[H]OC(=O)C1([H])C([H])([H])C([H])([H])N(C(=O)[C@@]([H])(N([H])C(=O)[C@@]([H])(N([H])C(=O)[C@@]([H])(N([H])[H])C([H])([H])C([H])(C([H])([H])[H])C([H])([H])[H])C([H])([H])c2c([H])c([H])c([H])c([H])c2[H])C([H])([H])c2c([H])n([H])c3c([H])c([H])c([H])c([H])c23)C([H])([H])C1([H])[H]


 48 51  0  0  0  0  0  0  0  0999 V2000
  154.6128  138.5844  184.9598 C   0  0  0  0  0  0  0  0  0  0  0  0
  155.3723  137.8476  184.3013 O   0  0  0  0  0  0  0  0  0  0  0  0
  154.1570  139.7801  184.3713 N   0  0  0  0  0  0  0  0  0  0  0  0
  153.5438  140.4088  184.9231 H   0  0  0  0  0  0  0  0  0  0  0  0
  154.2171  138.1465  186.3592 C   0  0  0  0  0  0  0  0  0  0  0  0
  151.9289  137.0894  186.5446 C   0  0  0  0  0  0  0  0  0  0  0  0
  151.5309  138.1481  187.0498 O   0  0  0  0  0  0  0  0  0  0  0  0
  153.3141  137.0333  186.1658 N   0  0  0  0  0  0  0  0  0  0  0  0
  153.7148  136.1705  185.7332 H   0  0  0  0  0  0  0  0  0  0  0  0
  151.0069  135.9637  186.3485 C   0  0  0  0  0  0  0  0  0  0  0  0
  150.7357  135.2848  187.6237 N   0  0  0  0  0  0  0  0  0  0  0  0
  149.7532  135.4192  187.9297 H   0  0  0  0  0  0  0  0  0  0  0  0
  151.1083  134.3327  187.6825 H   0  0  0  0  0  0  0  0  0  0  0  0
  149.7189  136.2317  185.6730 C   0  0  0  0  0  0  0  0  0  0  0  0
  148.0656  138.0006  186.2971 C   0  0  0  0  0  0  0  0  0  0  0  0
  148.5584  136.5837  186.5411 C   0  0  0  0  0  0  0  0  0  0  0  0
  147.3766  135.6942  186.0855 C   0  0  0  0  0  0  0  0  0  0  0  0
  155.4781  137.8189  187.0472 C   0  0  0  0  0  0  0  0  0  0  0  0
  155.5569  137.9874  188.4863 C   0  0  0  0  0  0  0  0  0  0  0  0
  154.5208  138.5851  189.1698 C   0  0  0  0  0  0  0  0  0  0  0  0
  154.5676  138.7523  190.5574 C   0  0  0  0  0  0  0  0  0  0  0  0
  155.6608  138.3155  191.2594 C   0  0  0  0  0  0  0  0  0  0  0  0
  156.6928  137.7234  190.5992 C   0  0  0  0  0  0  0  0  0  0  0  0
  156.6438  137.5572  189.2103 C   0  0  0  0  0  0  0  0  0  0  0  0
  154.5204  140.1878  183.0299 C   0  0  0  0  0  0  0  0  0  0  0  0
  155.5607  141.2429  183.0603 C   0  0  0  0  0  0  0  0  0  0  0  0
  155.1323  142.4392  183.2045 O   0  0  0  0  0  0  0  0  0  0  0  0
  156.9514  141.0775  182.9517 N   0  0  0  0  0  0  0  0  0  0  0  0
  157.6326  139.8121  182.8102 C   0  0  0  0  0  0  0  0  0  0  0  0
  158.9298  139.9090  183.6204 C   0  0  0  0  0  0  0  0  0  0  0  0
  159.8766  140.8994  182.9704 C   0  0  0  0  0  0  0  0  0  0  0  0
  159.1265  142.0167  182.2896 C   0  0  0  0  0  0  0  0  0  0  0  0
  157.8307  142.2463  182.9733 C   0  0  0  0  0  0  0  0  0  0  0  0
  160.7459  141.4970  184.0085 C   0  0  0  0  0  0  0  0  0  0  0  0
  162.1364  141.4288  183.9945 O   0  0  0  0  0  0  0  0  0  0  0  0
  160.2622  142.1292  185.0110 O   0  0  0  0  0  0  0  0  0  0  0  0
  162.6398  140.9460  183.2791 H   0  0  0  0  0  0  0  0  0  0  0  0
  153.2919  140.6632  182.2393 C   0  0  0  0  0  0  0  0  0  0  0  0
  152.3594  139.5444  181.9596 C   0  0  0  0  0  0  0  0  0  0  0  0
  152.1815  138.4162  182.7762 C   0  0  0  0  0  0  0  0  0  0  0  0
  151.2276  137.6344  182.2606 N   0  0  0  0  0  0  0  0  0  0  0  0
  150.7819  138.2258  181.1304 C   0  0  0  0  0  0  0  0  0  0  0  0
  149.8265  137.8446  180.2111 C   0  0  0  0  0  0  0  0  0  0  0  0
  149.5404  138.6095  179.0916 C   0  0  0  0  0  0  0  0  0  0  0  0
  150.2538  139.7860  178.9240 C   0  0  0  0  0  0  0  0  0  0  0  0
  151.2145  140.2036  179.8178 C   0  0  0  0  0  0  0  0  0  0  0  0
  151.4671  139.4129  180.9175 C   0  0  0  0  0  0  0  0  0  0  0  0
  150.8998  136.7212  182.6828 H   0  0  0  0  0  0  0  0  0  0  0  0
 15 16  1  0  0  0
 16 17  1  0  0  0
 16 14  1  0  0  0
 14 10  1  0  0  0
 10 11  1  0  0  0
 10  6  1  0  0  0
  6  7  2  0  0  0
  6  8  1  0  0  0
  8  5  1  0  0  0
  5 18  1  0  0  0
 18 19  1  0  0  0
 19 20  2  0  0  0
 20 21  1  0  0  0
 21 22  2  0  0  0
 22 23  1  0  0  0
 23 24  2  0  0  0
  5  1  1  0  0  0
  1  2  2  0  0  0
  1  3  1  0  0  0
  3 25  1  0  0  0
 25 38  1  0  0  0
 38 39  1  0  0  0
 39 40  2  0  0  0
 40 41  1  0  0  0
 41 42  1  0  0  0
 42 43  2  0  0  0
 43 44  1  0  0  0
 44 45  2  0  0  0
 45 46  1  0  0  0
 46 47  2  0  0  0
 25 26  1  0  0  0
 26 27  2  0  0  0
 26 28  1  0  0  0
 28 29  1  0  0  0
 29 30  1  0  0  0
 30 31  1  0  0  0
 31 32  1  0  0  0
 32 33  1  0  0  0
 31 34  1  0  0  0
 34 35  1  0  0  0
 34 36  2  0  0  0
 24 19  1  0  0  0
 47 39  1  0  0  0
 33 28  1  0  0  0
 47 42  1  0  0  0
 11 12  1  0  0  0
 11 13  1  0  0  0
  8  9  1  0  0  0
  3  4  1  0  0  0
 41 48  1  0  0  0
 35 37  1  0  0  0
M  END
> <minimizedAffinity>
-9.24117

> <CNNscore>
0.2463302165

> <CNNaffinity>
6.4851102829

> <CNN_VS>
1.5974786282

> <CNNaffinity_variance>
0.3119260669

$$$$
[H]OC(=O)C1([H])C([H])([H])C([H])([H])N(C(=O)[C@@]([H])(N([H])C(=O)[C@@]([H])(N([H])C(=O)[C@@]([H])(N([H])[H])C([H])([H])C([H])(C([H])([H])[H])C([H])([H])[H])C([H])([H])c2c([H])c([H])c([H])c([H])c2[H])C([H])([H])c2c([H])n([H])c3c([H])c([H])c([H])c([H])c23)C([H])([H])C1([H])[H]


 48 51  0  0  0  0  0  0  0  0999 V2000
  153.7021  137.3950  185.2662 C   0  0  0  0  0  0  0  0  0  0  0  0
  153.1603  136.2749  185.1940 O   0  0  0  0  0  0  0  0  0  0  0  0
  154.4661  137.7013  186.4092 N   0  0  0  0  0  0  0  0  0  0  0  0
  154.8999  138.6403  186.4855 H   0  0  0  0  0  0  0  0  0  0  0  0
  153.5119  138.3643  184.1126 C   0  0  0  0  0  0  0  0  0  0  0  0
  155.2634  140.1206  183.6269 C   0  0  0  0  0  0  0  0  0  0  0  0
  154.4160  140.9786  183.9101 O   0  0  0  0  0  0  0  0  0  0  0  0
  154.8492  138.7472  183.7163 N   0  0  0  0  0  0  0  0  0  0  0  0
  155.5147  137.9733  183.4923 H   0  0  0  0  0  0  0  0  0  0  0  0
  156.6200  140.5154  183.2277 C   0  0  0  0  0  0  0  0  0  0  0  0
  156.6088  141.1475  181.9007 N   0  0  0  0  0  0  0  0  0  0  0  0
  156.8425  142.1572  181.9536 H   0  0  0  0  0  0  0  0  0  0  0  0
  157.0802  140.6052  181.1710 H   0  0  0  0  0  0  0  0  0  0  0  0
  157.3933  141.3721  184.1523 C   0  0  0  0  0  0  0  0  0  0  0  0
  159.8230  140.9108  183.7840 C   0  0  0  0  0  0  0  0  0  0  0  0
  158.6400  140.7930  184.7308 C   0  0  0  0  0  0  0  0  0  0  0  0
  159.0315  141.6891  185.9303 C   0  0  0  0  0  0  0  0  0  0  0  0
  152.7427  137.6281  183.0943 C   0  0  0  0  0  0  0  0  0  0  0  0
  151.9521  138.3764  182.1348 C   0  0  0  0  0  0  0  0  0  0  0  0
  152.5749  139.1181  181.1550 C   0  0  0  0  0  0  0  0  0  0  0  0
  151.8367  139.8416  180.2131 C   0  0  0  0  0  0  0  0  0  0  0  0
  150.4669  139.8178  180.2572 C   0  0  0  0  0  0  0  0  0  0  0  0
  149.8365  139.0905  181.2190 C   0  0  0  0  0  0  0  0  0  0  0  0
  150.5773  138.3672  182.1608 C   0  0  0  0  0  0  0  0  0  0  0  0
  154.6618  136.7694  187.5004 C   0  0  0  0  0  0  0  0  0  0  0  0
  154.0326  137.2711  188.7449 C   0  0  0  0  0  0  0  0  0  0  0  0
  154.0660  138.5387  188.9106 O   0  0  0  0  0  0  0  0  0  0  0  0
  153.4075  136.5175  189.7522 N   0  0  0  0  0  0  0  0  0  0  0  0
  153.2437  135.0829  189.7408 C   0  0  0  0  0  0  0  0  0  0  0  0
  151.8710  134.7843  190.3534 C   0  0  0  0  0  0  0  0  0  0  0  0
  151.8731  135.1321  191.8295 C   0  0  0  0  0  0  0  0  0  0  0  0
  152.7809  136.3005  192.1212 C   0  0  0  0  0  0  0  0  0  0  0  0
  152.8635  137.1857  190.9342 C   0  0  0  0  0  0  0  0  0  0  0  0
  150.5018  135.5022  192.2456 C   0  0  0  0  0  0  0  0  0  0  0  0
  149.3484  134.8949  191.7566 O   0  0  0  0  0  0  0  0  0  0  0  0
  150.2838  136.4283  193.1021 O   0  0  0  0  0  0  0  0  0  0  0  0
  149.3770  134.1721  191.0674 H   0  0  0  0  0  0  0  0  0  0  0  0
  156.1539  136.4818  187.7275 C   0  0  0  0  0  0  0  0  0  0  0  0
  156.4859  135.0672  187.4308 C   0  0  0  0  0  0  0  0  0  0  0  0
  155.5882  134.1152  186.9218 C   0  0  0  0  0  0  0  0  0  0  0  0
  156.2273  132.9588  186.7186 N   0  0  0  0  0  0  0  0  0  0  0  0
  157.5164  133.1355  187.0829 C   0  0  0  0  0  0  0  0  0  0  0  0
  158.5934  132.2733  187.0924 C   0  0  0  0  0  0  0  0  0  0  0  0
  159.8451  132.6691  187.5358 C   0  0  0  0  0  0  0  0  0  0  0  0
  159.9821  133.9770  187.9738 C   0  0  0  0  0  0  0  0  0  0  0  0
  158.9338  134.8700  187.9798 C   0  0  0  0  0  0  0  0  0  0  0  0
  157.7063  134.4346  187.5303 C   0  0  0  0  0  0  0  0  0  0  0  0
  155.7794  132.0784  186.3394 H   0  0  0  0  0  0  0  0  0  0  0  0
 15 16  1  0  0  0
 16 17  1  0  0  0
 16 14  1  0  0  0
 14 10  1  0  0  0
 10 11  1  0  0  0
 10  6  1  0  0  0
  6  7  2  0  0  0
  6  8  1  0  0  0
  8  5  1  0  0  0
  5 18  1  0  0  0
 18 19  1  0  0  0
 19 20  2  0  0  0
 20 21  1  0  0  0
 21 22  2  0  0  0
 22 23  1  0  0  0
 23 24  2  0  0  0
  5  1  1  0  0  0
  1  2  2  0  0  0
  1  3  1  0  0  0
  3 25  1  0  0  0
 25 38  1  0  0  0
 38 39  1  0  0  0
 39 40  2  0  0  0
 40 41  1  0  0  0
 41 42  1  0  0  0
 42 43  2  0  0  0
 43 44  1  0  0  0
 44 45  2  0  0  0
 45 46  1  0  0  0
 46 47  2  0  0  0
 25 26  1  0  0  0
 26 27  2  0  0  0
 26 28  1  0  0  0
 28 29  1  0  0  0
 29 30  1  0  0  0
 30 31  1  0  0  0
 31 32  1  0  0  0
 32 33  1  0  0  0
 31 34  1  0  0  0
 34 35  1  0  0  0
 34 36  2  0  0  0
 24 19  1  0  0  0
 47 39  1  0  0  0
 33 28  1  0  0  0
 47 42  1  0  0  0
 11 12  1  0  0  0
 11 13  1  0  0  0
  8  9  1  0  0  0
  3  4  1  0  0  0
 41 48  1  0  0  0
 35 37  1  0  0  0
M  END
> <minimizedAffinity>
-8.07559

> <CNNscore>
0.2401733398

> <CNNaffinity>
6.2853837013

> <CNN_VS>
1.5095815659

> <CNNaffinity_variance>
0.1578443795

$$$$
[H]OC(=O)C1([H])C([H])([H])C([H])([H])N(C(=O)[C@@]([H])(N([H])C(=O)[C@@]([H])(N([H])C(=O)[C@@]([H])(N([H])[H])C([H])([H])C([H])(C([H])([H])[H])C([H])([H])[H])C([H])([H])c2c([H])c([H])c([H])c([H])c2[H])C([H])([H])c2c([H])n([H])c3c([H])c([H])c([H])c([H])c23)C([H])([H])C1([H])[H]


 48 51  0  0  0  0  0  0  0  0999 V2000
  154.6192  140.3833  183.6380 C   0  0  0  0  0  0  0  0  0  0  0  0
  153.4608  140.6460  183.2606 O   0  0  0  0  0  0  0  0  0  0  0  0
  154.8563  139.1506  184.2769 N   0  0  0  0  0  0  0  0  0  0  0  0
  155.8134  138.9365  184.6142 H   0  0  0  0  0  0  0  0  0  0  0  0
  155.7115  141.4068  183.3812 C   0  0  0  0  0  0  0  0  0  0  0  0
  157.9191  141.5892  184.5982 C   0  0  0  0  0  0  0  0  0  0  0  0
  157.7040  142.8039  184.7120 O   0  0  0  0  0  0  0  0  0  0  0  0
  156.9175  140.8153  183.9175 N   0  0  0  0  0  0  0  0  0  0  0  0
  157.0355  139.7851  183.7879 H   0  0  0  0  0  0  0  0  0  0  0  0
  159.1440  140.9940  185.1469 C   0  0  0  0  0  0  0  0  0  0  0  0
  159.9683  140.4182  184.0748 N   0  0  0  0  0  0  0  0  0  0  0  0
  160.8515  140.9469  183.9425 H   0  0  0  0  0  0  0  0  0  0  0  0
  160.0447  139.3974  184.1033 H   0  0  0  0  0  0  0  0  0  0  0  0
  160.0043  141.8412  186.0008 C   0  0  0  0  0  0  0  0  0  0  0  0
  160.9459  143.8083  184.7777 C   0  0  0  0  0  0  0  0  0  0  0  0
  161.2170  142.4333  185.3659 C   0  0  0  0  0  0  0  0  0  0  0  0
  162.2267  142.7079  186.5062 C   0  0  0  0  0  0  0  0  0  0  0  0
  155.7163  141.6296  181.9248 C   0  0  0  0  0  0  0  0  0  0  0  0
  156.8999  142.1962  181.3053 C   0  0  0  0  0  0  0  0  0  0  0  0
  157.2786  143.4892  181.5927 C   0  0  0  0  0  0  0  0  0  0  0  0
  158.4193  144.0565  181.0160 C   0  0  0  0  0  0  0  0  0  0  0  0
  159.1817  143.3194  180.1476 C   0  0  0  0  0  0  0  0  0  0  0  0
  158.8211  142.0409  179.8529 C   0  0  0  0  0  0  0  0  0  0  0  0
  157.6790  141.4751  180.4313 C   0  0  0  0  0  0  0  0  0  0  0  0
  153.8175  138.1675  184.5050 C   0  0  0  0  0  0  0  0  0  0  0  0
  154.2119  137.2179  185.5722 C   0  0  0  0  0  0  0  0  0  0  0  0
  154.7912  136.1487  185.1761 O   0  0  0  0  0  0  0  0  0  0  0  0
  154.0245  137.3602  186.9571 N   0  0  0  0  0  0  0  0  0  0  0  0
  153.4178  138.4996  187.6042 C   0  0  0  0  0  0  0  0  0  0  0  0
  154.1831  138.7319  188.9114 C   0  0  0  0  0  0  0  0  0  0  0  0
  153.9223  137.5918  189.8768 C   0  0  0  0  0  0  0  0  0  0  0  0
  153.7109  136.2880  189.1489 C   0  0  0  0  0  0  0  0  0  0  0  0
  154.4552  136.2982  187.8662 C   0  0  0  0  0  0  0  0  0  0  0  0
  155.0905  137.4329  190.7715 C   0  0  0  0  0  0  0  0  0  0  0  0
  155.2287  136.4025  191.6974 O   0  0  0  0  0  0  0  0  0  0  0  0
  156.0721  138.2544  190.7510 O   0  0  0  0  0  0  0  0  0  0  0  0
  154.5246  135.7061  191.8298 H   0  0  0  0  0  0  0  0  0  0  0  0
  153.4697  137.4134  183.2124 C   0  0  0  0  0  0  0  0  0  0  0  0
  152.0621  137.6477  182.8085 C   0  0  0  0  0  0  0  0  0  0  0  0
  150.9333  137.2677  183.5520 C   0  0  0  0  0  0  0  0  0  0  0  0
  149.8251  137.6803  182.9285 N   0  0  0  0  0  0  0  0  0  0  0  0
  150.2054  138.3179  181.7995 C   0  0  0  0  0  0  0  0  0  0  0  0
  149.4751  138.9168  180.7939 C   0  0  0  0  0  0  0  0  0  0  0  0
  150.0837  139.5038  179.6962 C   0  0  0  0  0  0  0  0  0  0  0  0
  151.4683  139.4704  179.6413 C   0  0  0  0  0  0  0  0  0  0  0  0
  152.2348  138.8842  180.6237 C   0  0  0  0  0  0  0  0  0  0  0  0
  151.5887  138.3124  181.6979 C   0  0  0  0  0  0  0  0  0  0  0  0
  148.8392  137.5223  183.2788 H   0  0  0  0  0  0  0  0  0  0  0  0
 15 16  1  0  0  0
 16 17  1  0  0  0
 16 14  1  0  0  0
 14 10  1  0  0  0
 10 11  1  0  0  0
 10  6  1  0  0  0
  6  7  2  0  0  0
  6  8  1  0  0  0
  8  5  1  0  0  0
  5 18  1  0  0  0
 18 19  1  0  0  0
 19 20  2  0  0  0
 20 21  1  0  0  0
 21 22  2  0  0  0
 22 23  1  0  0  0
 23 24  2  0  0  0
  5  1  1  0  0  0
  1  2  2  0  0  0
  1  3  1  0  0  0
  3 25  1  0  0  0
 25 38  1  0  0  0
 38 39  1  0  0  0
 39 40  2  0  0  0
 40 41  1  0  0  0
 41 42  1  0  0  0
 42 43  2  0  0  0
 43 44  1  0  0  0
 44 45  2  0  0  0
 45 46  1  0  0  0
 46 47  2  0  0  0
 25 26  1  0  0  0
 26 27  2  0  0  0
 26 28  1  0  0  0
 28 29  1  0  0  0
 29 30  1  0  0  0
 30 31  1  0  0  0
 31 32  1  0  0  0
 32 33  1  0  0  0
 31 34  1  0  0  0
 34 35  1  0  0  0
 34 36  2  0  0  0
 24 19  1  0  0  0
 47 39  1  0  0  0
 33 28  1  0  0  0
 47 42  1  0  0  0
 11 12  1  0  0  0
 11 13  1  0  0  0
  8  9  1  0  0  0
  3  4  1  0  0  0
 41 48  1  0  0  0
 35 37  1  0  0  0
M  END
> <minimizedAffinity>
-9.12500

> <CNNscore>
0.2391318977

> <CNNaffinity>
6.8120107651

> <CNN_VS>
1.6289690733

> <CNNaffinity_variance>
0.2705363631

$$$$
[H]c1c([H])c([H])c(C([H])([H])[C@@]([H])(C(=O)N([H])[H])N([H])C(=O)[C@@]([H])(N([H])[C@]2([H])C([H])([H])C([H])([H])C([H])([H])C([H])([H])[C@]2([H])C([H])([H])[H])C([H])([H])C([H])([H])n2c([H])c([H])c([H])c([H])c2=O)c([H])c1[H]


 36 38  0  0  0  0  0  0  0  0999 V2000
  154.8820  140.7308  183.2323 C   0  0  0  0  0  0  0  0  0  0  0  0
  155.1583  139.6610  184.2831 C   0  0  0  0  0  0  0  0  0  0  0  0
  154.1399  139.1965  185.1364 N   0  0  0  0  0  0  0  0  0  0  0  0
  156.3098  139.2197  184.3575 O   0  0  0  0  0  0  0  0  0  0  0  0
  153.1524  139.6057  185.0529 H   0  0  0  0  0  0  0  0  0  0  0  0
  154.3832  138.1768  186.1331 C   0  0  0  0  0  0  0  0  0  0  0  0
  153.9413  136.8858  185.5816 C   0  0  0  0  0  0  0  0  0  0  0  0
  152.7334  136.8687  184.7972 N   0  0  0  0  0  0  0  0  0  0  0  0
  154.5264  135.7843  185.7321 O   0  0  0  0  0  0  0  0  0  0  0  0
  152.7211  137.1999  183.8284 H   0  0  0  0  0  0  0  0  0  0  0  0
  151.8910  136.4996  185.2801 H   0  0  0  0  0  0  0  0  0  0  0  0
  153.7219  138.5066  187.4693 C   0  0  0  0  0  0  0  0  0  0  0  0
  154.6658  138.3521  188.5932 C   0  0  0  0  0  0  0  0  0  0  0  0
  155.9340  137.8236  188.4602 C   0  0  0  0  0  0  0  0  0  0  0  0
  156.7559  137.7009  189.5672 C   0  0  0  0  0  0  0  0  0  0  0  0
  156.3460  138.0952  190.8280 C   0  0  0  0  0  0  0  0  0  0  0  0
  155.0863  138.6198  190.9599 C   0  0  0  0  0  0  0  0  0  0  0  0
  154.2486  138.7526  189.8685 C   0  0  0  0  0  0  0  0  0  0  0  0
  155.9609  140.7401  182.3817 N   0  0  0  0  0  0  0  0  0  0  0  0
  156.3632  139.7929  182.1678 H   0  0  0  0  0  0  0  0  0  0  0  0
  158.3246  142.2173  183.5244 C   0  0  0  0  0  0  0  0  0  0  0  0
  157.1798  142.8324  182.7504 C   0  0  0  0  0  0  0  0  0  0  0  0
  156.5629  141.8246  181.7732 C   0  0  0  0  0  0  0  0  0  0  0  0
  157.8632  141.2271  181.1024 C   0  0  0  0  0  0  0  0  0  0  0  0
  158.5316  142.2691  180.2828 C   0  0  0  0  0  0  0  0  0  0  0  0
  158.8105  143.5535  180.9893 C   0  0  0  0  0  0  0  0  0  0  0  0
  157.6986  143.9707  181.9205 C   0  0  0  0  0  0  0  0  0  0  0  0
  153.4901  140.5212  182.7583 C   0  0  0  0  0  0  0  0  0  0  0  0
  153.2636  139.1989  182.1440 C   0  0  0  0  0  0  0  0  0  0  0  0
  152.0810  139.2018  181.2541 N   0  0  0  0  0  0  0  0  0  0  0  0
  152.0736  139.8756  180.0961 C   0  0  0  0  0  0  0  0  0  0  0  0
  150.9958  139.9079  179.2453 C   0  0  0  0  0  0  0  0  0  0  0  0
  149.8525  139.2258  179.5679 C   0  0  0  0  0  0  0  0  0  0  0  0
  149.8378  138.5198  180.7662 C   0  0  0  0  0  0  0  0  0  0  0  0
  150.9698  138.5270  181.5895 C   0  0  0  0  0  0  0  0  0  0  0  0
  150.8726  137.8632  182.6538 O   0  0  0  0  0  0  0  0  0  0  0  0
 21 22  1  0  0  0
 22 23  1  0  0  0
 23 19  1  0  0  0
 19  1  1  0  0  0
  1 28  1  0  0  0
 28 29  1  0  0  0
 29 30  1  0  0  0
 30 31  1  0  0  0
 31 32  2  0  0  0
 32 33  1  0  0  0
 33 34  2  0  0  0
 34 35  1  0  0  0
 35 36  2  0  0  0
  1  2  1  0  0  0
  2  3  1  0  0  0
  3  6  1  0  0  0
  6 12  1  0  0  0
 12 13  1  0  0  0
 13 14  2  0  0  0
 14 15  1  0  0  0
 15 16  2  0  0  0
 16 17  1  0  0  0
 17 18  2  0  0  0
  6  7  1  0  0  0
  7  8  1  0  0  0
  7  9  2  0  0  0
  2  4  2  0  0  0
 23 24  1  0  0  0
 24 25  1  0  0  0
 25 26  1  0  0  0
 26 27  1  0  0  0
 27 22  1  0  0  0
 35 30  1  0  0  0
 18 13  1  0  0  0
 19 20  1  0  0  0
  3  5  1  0  0  0
  8 10  1  0  0  0
  8 11  1  0  0  0
M  END
> <minimizedAffinity>
-8.66863

> <CNNscore>
0.4393363297

> <CNNaffinity>
6.3073644638

> <CNN_VS>
2.7710542679

> <CNNaffinity_variance>
0.0448438711

$$$$
[H]c1c([H])c([H])c(C([H])([H])[C@@]([H])(C(=O)N([H])[H])N([H])C(=O)[C@@]([H])(N([H])[C@]2([H])C([H])([H])C([H])([H])C([H])([H])C([H])([H])[C@]2([H])C([H])([H])[H])C([H])([H])C([H])([H])n2c([H])c([H])c([H])c([H])c2=O)c([H])c1[H]


 36 38  0  0  0  0  0  0  0  0999 V2000
  152.2861  136.0863  187.4279 C   0  0  0  0  0  0  0  0  0  0  0  0
  151.6769  136.4264  186.0721 C   0  0  0  0  0  0  0  0  0  0  0  0
  152.4890  136.6859  184.9521 N   0  0  0  0  0  0  0  0  0  0  0  0
  150.4446  136.4672  185.9953 O   0  0  0  0  0  0  0  0  0  0  0  0
  153.5558  136.6513  185.0530 H   0  0  0  0  0  0  0  0  0  0  0  0
  151.9274  137.0023  183.6571 C   0  0  0  0  0  0  0  0  0  0  0  0
  152.1041  135.8299  182.7850 C   0  0  0  0  0  0  0  0  0  0  0  0
  151.1279  134.7744  182.8725 N   0  0  0  0  0  0  0  0  0  0  0  0
  153.0375  135.6619  181.9611 O   0  0  0  0  0  0  0  0  0  0  0  0
  150.2052  134.8632  182.4376 H   0  0  0  0  0  0  0  0  0  0  0  0
  151.4266  133.9307  183.3996 H   0  0  0  0  0  0  0  0  0  0  0  0
  152.5255  138.2760  183.0644 C   0  0  0  0  0  0  0  0  0  0  0  0
  151.7294  138.7676  181.9230 C   0  0  0  0  0  0  0  0  0  0  0  0
  150.3501  138.8189  181.9178 C   0  0  0  0  0  0  0  0  0  0  0  0
  149.6757  139.2830  180.8015 C   0  0  0  0  0  0  0  0  0  0  0  0
  150.3453  139.7054  179.6674 C   0  0  0  0  0  0  0  0  0  0  0  0
  151.7153  139.6541  179.6728 C   0  0  0  0  0  0  0  0  0  0  0  0
  152.4098  139.1953  180.7762 C   0  0  0  0  0  0  0  0  0  0  0  0
  153.3275  136.9603  187.6258 N   0  0  0  0  0  0  0  0  0  0  0  0
  153.3634  137.7652  186.9507 H   0  0  0  0  0  0  0  0  0  0  0  0
  156.0935  138.1019  187.2784 C   0  0  0  0  0  0  0  0  0  0  0  0
  155.7381  136.8471  188.0447 C   0  0  0  0  0  0  0  0  0  0  0  0
  154.3093  136.9174  188.5969 C   0  0  0  0  0  0  0  0  0  0  0  0
  154.3046  138.3677  189.2250 C   0  0  0  0  0  0  0  0  0  0  0  0
  155.2210  138.4143  190.3921 C   0  0  0  0  0  0  0  0  0  0  0  0
  156.6067  137.9248  190.1339 C   0  0  0  0  0  0  0  0  0  0  0  0
  156.6492  136.7166  189.2306 C   0  0  0  0  0  0  0  0  0  0  0  0
  151.1593  135.9528  188.3863 C   0  0  0  0  0  0  0  0  0  0  0  0
  151.3860  134.9384  189.4335 C   0  0  0  0  0  0  0  0  0  0  0  0
  151.7045  135.5583  190.7391 N   0  0  0  0  0  0  0  0  0  0  0  0
  150.8602  136.4081  191.3391 C   0  0  0  0  0  0  0  0  0  0  0  0
  151.1202  137.0081  192.5469 C   0  0  0  0  0  0  0  0  0  0  0  0
  152.2958  136.7453  193.1992 C   0  0  0  0  0  0  0  0  0  0  0  0
  153.1876  135.8662  192.5940 C   0  0  0  0  0  0  0  0  0  0  0  0
  152.8629  135.2876  191.3615 C   0  0  0  0  0  0  0  0  0  0  0  0
  153.7243  134.5045  190.8843 O   0  0  0  0  0  0  0  0  0  0  0  0
 21 22  1  0  0  0
 22 23  1  0  0  0
 23 19  1  0  0  0
 19  1  1  0  0  0
  1 28  1  0  0  0
 28 29  1  0  0  0
 29 30  1  0  0  0
 30 31  1  0  0  0
 31 32  2  0  0  0
 32 33  1  0  0  0
 33 34  2  0  0  0
 34 35  1  0  0  0
 35 36  2  0  0  0
  1  2  1  0  0  0
  2  3  1  0  0  0
  3  6  1  0  0  0
  6 12  1  0  0  0
 12 13  1  0  0  0
 13 14  2  0  0  0
 14 15  1  0  0  0
 15 16  2  0  0  0
 16 17  1  0  0  0
 17 18  2  0  0  0
  6  7  1  0  0  0
  7  8  1  0  0  0
  7  9  2  0  0  0
  2  4  2  0  0  0
 23 24  1  0  0  0
 24 25  1  0  0  0
 25 26  1  0  0  0
 26 27  1  0  0  0
 27 22  1  0  0  0
 35 30  1  0  0  0
 18 13  1  0  0  0
 19 20  1  0  0  0
  3  5  1  0  0  0
  8 10  1  0  0  0
  8 11  1  0  0  0
M  END
> <minimizedAffinity>
-6.58335

> <CNNscore>
0.4087505043

> <CNNaffinity>
5.3634204865

> <CNN_VS>
2.1923007965

> <CNNaffinity_variance>
0.1761402190

$$$$
[H]c1c([H])c([H])c(C([H])([H])[C@@]([H])(C(=O)N([H])[H])N([H])C(=O)[C@@]([H])(N([H])[C@]2([H])C([H])([H])C([H])([H])C([H])([H])C([H])([H])[C@]2([H])C([H])([H])[H])C([H])([H])C([H])([H])n2c([H])c([H])c([H])c([H])c2=O)c([H])c1[H]


 36 38  0  0  0  0  0  0  0  0999 V2000
  154.8869  139.0586  183.4604 C   0  0  0  0  0  0  0  0  0  0  0  0
  155.8871  140.2080  183.5184 C   0  0  0  0  0  0  0  0  0  0  0  0
  157.2110  140.0462  183.0686 N   0  0  0  0  0  0  0  0  0  0  0  0
  155.4915  141.2849  183.9767 O   0  0  0  0  0  0  0  0  0  0  0  0
  157.5265  139.0963  182.6842 H   0  0  0  0  0  0  0  0  0  0  0  0
  158.1702  141.1282  183.1093 C   0  0  0  0  0  0  0  0  0  0  0  0
  158.1621  141.7940  181.7967 C   0  0  0  0  0  0  0  0  0  0  0  0
  157.6619  141.0500  180.6694 N   0  0  0  0  0  0  0  0  0  0  0  0
  158.5546  142.9646  181.5649 O   0  0  0  0  0  0  0  0  0  0  0  0
  156.6577  140.9152  180.5218 H   0  0  0  0  0  0  0  0  0  0  0  0
  158.3846  140.6690  180.0280 H   0  0  0  0  0  0  0  0  0  0  0  0
  159.5607  140.6514  183.5221 C   0  0  0  0  0  0  0  0  0  0  0  0
  160.1216  141.4877  184.6010 C   0  0  0  0  0  0  0  0  0  0  0  0
  161.3916  142.0275  184.5689 C   0  0  0  0  0  0  0  0  0  0  0  0
  161.8490  142.7926  185.6279 C   0  0  0  0  0  0  0  0  0  0  0  0
  161.0659  143.0415  186.7405 C   0  0  0  0  0  0  0  0  0  0  0  0
  159.8046  142.5050  186.7722 C   0  0  0  0  0  0  0  0  0  0  0  0
  159.3265  141.7386  185.7261 C   0  0  0  0  0  0  0  0  0  0  0  0
  155.0752  138.3106  184.5973 N   0  0  0  0  0  0  0  0  0  0  0  0
  155.5182  137.3705  184.4395 H   0  0  0  0  0  0  0  0  0  0  0  0
  153.3660  136.6214  186.4139 C   0  0  0  0  0  0  0  0  0  0  0  0
  153.4057  138.1331  186.3807 C   0  0  0  0  0  0  0  0  0  0  0  0
  154.7701  138.6442  185.9028 C   0  0  0  0  0  0  0  0  0  0  0  0
  155.7426  137.7534  186.7737 C   0  0  0  0  0  0  0  0  0  0  0  0
  155.6199  138.1255  188.2057 C   0  0  0  0  0  0  0  0  0  0  0  0
  154.2296  138.1236  188.7475 C   0  0  0  0  0  0  0  0  0  0  0  0
  153.2131  138.6639  187.7716 C   0  0  0  0  0  0  0  0  0  0  0  0
  153.5726  139.6478  183.0977 C   0  0  0  0  0  0  0  0  0  0  0  0
  152.5083  138.6468  182.8919 C   0  0  0  0  0  0  0  0  0  0  0  0
  151.7227  138.9237  181.6685 N   0  0  0  0  0  0  0  0  0  0  0  0
  152.2352  139.6220  180.6463 C   0  0  0  0  0  0  0  0  0  0  0  0
  151.5383  139.9047  179.4971 C   0  0  0  0  0  0  0  0  0  0  0  0
  150.2489  139.4641  179.3564 C   0  0  0  0  0  0  0  0  0  0  0  0
  149.6964  138.7376  180.4058 C   0  0  0  0  0  0  0  0  0  0  0  0
  150.4599  138.4832  181.5511 C   0  0  0  0  0  0  0  0  0  0  0  0
  149.8848  137.8194  182.4519 O   0  0  0  0  0  0  0  0  0  0  0  0
 21 22  1  0  0  0
 22 23  1  0  0  0
 23 19  1  0  0  0
 19  1  1  0  0  0
  1 28  1  0  0  0
 28 29  1  0  0  0
 29 30  1  0  0  0
 30 31  1  0  0  0
 31 32  2  0  0  0
 32 33  1  0  0  0
 33 34  2  0  0  0
 34 35  1  0  0  0
 35 36  2  0  0  0
  1  2  1  0  0  0
  2  3  1  0  0  0
  3  6  1  0  0  0
  6 12  1  0  0  0
 12 13  1  0  0  0
 13 14  2  0  0  0
 14 15  1  0  0  0
 15 16  2  0  0  0
 16 17  1  0  0  0
 17 18  2  0  0  0
  6  7  1  0  0  0
  7  8  1  0  0  0
  7  9  2  0  0  0
  2  4  2  0  0  0
 23 24  1  0  0  0
 24 25  1  0  0  0
 25 26  1  0  0  0
 26 27  1  0  0  0
 27 22  1  0  0  0
 35 30  1  0  0  0
 18 13  1  0  0  0
 19 20  1  0  0  0
  3  5  1  0  0  0
  8 10  1  0  0  0
  8 11  1  0  0  0
M  END
> <minimizedAffinity>
-8.91161

> <CNNscore>
0.3910668194

> <CNNaffinity>
6.4668512344

> <CNN_VS>
2.5289709568

> <CNNaffinity_variance>
0.0494341776

$$$$
[H]c1c([H])c([H])c(C([H])([H])[C@@]([H])(C(=O)N([H])[H])N([H])C(=O)[C@@]([H])(N([H])[C@]2([H])C([H])([H])C([H])([H])C([H])([H])C([H])([H])[C@]2([H])C([H])([H])[H])C([H])([H])C([H])([H])n2c([H])c([H])c([H])c([H])c2=O)c([H])c1[H]


 36 38  0  0  0  0  0  0  0  0999 V2000
  154.6565  138.3403  185.4747 C   0  0  0  0  0  0  0  0  0  0  0  0
  155.8816  139.1884  185.1507 C   0  0  0  0  0  0  0  0  0  0  0  0
  155.9429  139.9628  183.9770 N   0  0  0  0  0  0  0  0  0  0  0  0
  156.8179  139.1680  185.9565 O   0  0  0  0  0  0  0  0  0  0  0  0
  155.1173  139.9526  183.2930 H   0  0  0  0  0  0  0  0  0  0  0  0
  157.0940  140.7788  183.6584 C   0  0  0  0  0  0  0  0  0  0  0  0
  156.9904  141.1815  182.2465 C   0  0  0  0  0  0  0  0  0  0  0  0
  156.0278  142.1976  181.9068 N   0  0  0  0  0  0  0  0  0  0  0  0
  157.6716  140.7167  181.2988 O   0  0  0  0  0  0  0  0  0  0  0  0
  156.2072  143.1877  182.0966 H   0  0  0  0  0  0  0  0  0  0  0  0
  155.1542  141.8558  181.4610 H   0  0  0  0  0  0  0  0  0  0  0  0
  158.4089  140.0710  183.9767 C   0  0  0  0  0  0  0  0  0  0  0  0
  159.3941  140.9984  184.5660 C   0  0  0  0  0  0  0  0  0  0  0  0
  160.5914  141.3272  183.9629 C   0  0  0  0  0  0  0  0  0  0  0  0
  161.4686  142.1974  184.5870 C   0  0  0  0  0  0  0  0  0  0  0  0
  161.1855  142.7612  185.8179 C   0  0  0  0  0  0  0  0  0  0  0  0
  159.9963  142.4342  186.4168 C   0  0  0  0  0  0  0  0  0  0  0  0
  159.1048  141.5683  185.8120 C   0  0  0  0  0  0  0  0  0  0  0  0
  154.5340  138.3261  186.8430 N   0  0  0  0  0  0  0  0  0  0  0  0
  154.4614  139.2746  187.2902 H   0  0  0  0  0  0  0  0  0  0  0  0
  156.1598  138.0663  189.3658 C   0  0  0  0  0  0  0  0  0  0  0  0
  155.7968  136.9422  188.4209 C   0  0  0  0  0  0  0  0  0  0  0  0
  154.4822  137.2337  187.6874 C   0  0  0  0  0  0  0  0  0  0  0  0
  153.5707  137.7080  188.8883 C   0  0  0  0  0  0  0  0  0  0  0  0
  153.3105  136.5686  189.8038 C   0  0  0  0  0  0  0  0  0  0  0  0
  154.5248  135.8439  190.2800 C   0  0  0  0  0  0  0  0  0  0  0  0
  155.5768  135.6842  189.2099 C   0  0  0  0  0  0  0  0  0  0  0  0
  153.5650  138.7979  184.5774 C   0  0  0  0  0  0  0  0  0  0  0  0
  153.3221  137.9014  183.4310 C   0  0  0  0  0  0  0  0  0  0  0  0
  152.3388  138.4738  182.4846 N   0  0  0  0  0  0  0  0  0  0  0  0
  151.0925  137.9917  182.3875 C   0  0  0  0  0  0  0  0  0  0  0  0
  150.1526  138.4908  181.5193 C   0  0  0  0  0  0  0  0  0  0  0  0
  150.4737  139.5368  180.6951 C   0  0  0  0  0  0  0  0  0  0  0  0
  151.7626  140.0527  180.7786 C   0  0  0  0  0  0  0  0  0  0  0  0
  152.6743  139.4988  181.6849 C   0  0  0  0  0  0  0  0  0  0  0  0
  153.8172  140.0244  181.6966 O   0  0  0  0  0  0  0  0  0  0  0  0
 21 22  1  0  0  0
 22 23  1  0  0  0
 23 19  1  0  0  0
 19  1  1  0  0  0
  1 28  1  0  0  0
 28 29  1  0  0  0
 29 30  1  0  0  0
 30 31  1  0  0  0
 31 32  2  0  0  0
 32 33  1  0  0  0
 33 34  2  0  0  0
 34 35  1  0  0  0
 35 36  2  0  0  0
  1  2  1  0  0  0
  2  3  1  0  0  0
  3  6  1  0  0  0
  6 12  1  0  0  0
 12 13  1  0  0  0
 13 14  2  0  0  0
 14 15  1  0  0  0
 15 16  2  0  0  0
 16 17  1  0  0  0
 17 18  2  0  0  0
  6  7  1  0  0  0
  7  8  1  0  0  0
  7  9  2  0  0  0
  2  4  2  0  0  0
 23 24  1  0  0  0
 24 25  1  0  0  0
 25 26  1  0  0  0
 26 27  1  0  0  0
 27 22  1  0  0  0
 35 30  1  0  0  0
 18 13  1  0  0  0
 19 20  1  0  0  0
  3  5  1  0  0  0
  8 10  1  0  0  0
  8 11  1  0  0  0
M  END
> <minimizedAffinity>
-8.20194

> <CNNscore>
0.3385748267

> <CNNaffinity>
6.3513803482

> <CNN_VS>
2.1504175663

> <CNNaffinity_variance>
0.0509324744

$$$$
[H]c1c([H])c([H])c(C([H])([H])[C@@]([H])(C(=O)N([H])[H])N([H])C(=O)[C@@]([H])(N([H])[C@]2([H])C([H])([H])C([H])([H])C([H])([H])C([H])([H])[C@]2([H])C([H])([H])[H])C([H])([H])C([H])([H])n2c([H])c([H])c([H])c([H])c2=O)c([H])c1[H]


 36 38  0  0  0  0  0  0  0  0999 V2000
  154.6189  139.2288  183.8654 C   0  0  0  0  0  0  0  0  0  0  0  0
  155.6225  140.3668  183.7144 C   0  0  0  0  0  0  0  0  0  0  0  0
  156.9431  140.1235  183.2924 N   0  0  0  0  0  0  0  0  0  0  0  0
  155.2326  141.5090  183.9782 O   0  0  0  0  0  0  0  0  0  0  0  0
  157.2538  139.1196  183.0794 H   0  0  0  0  0  0  0  0  0  0  0  0
  157.9053  141.1923  183.1366 C   0  0  0  0  0  0  0  0  0  0  0  0
  157.6908  141.8098  181.8179 C   0  0  0  0  0  0  0  0  0  0  0  0
  157.9372  141.0030  180.6504 N   0  0  0  0  0  0  0  0  0  0  0  0
  157.3079  142.9885  181.6129 O   0  0  0  0  0  0  0  0  0  0  0  0
  157.2677  140.2925  180.3415 H   0  0  0  0  0  0  0  0  0  0  0  0
  158.8289  141.1947  180.1535 H   0  0  0  0  0  0  0  0  0  0  0  0
  159.3402  140.7107  183.3378 C   0  0  0  0  0  0  0  0  0  0  0  0
  160.0132  141.4525  184.4218 C   0  0  0  0  0  0  0  0  0  0  0  0
  161.3243  141.8791  184.3575 C   0  0  0  0  0  0  0  0  0  0  0  0
  161.8871  142.5600  185.4233 C   0  0  0  0  0  0  0  0  0  0  0  0
  161.1710  142.8343  186.5744 C   0  0  0  0  0  0  0  0  0  0  0  0
  159.8688  142.4102  186.6380 C   0  0  0  0  0  0  0  0  0  0  0  0
  159.2857  141.7294  185.5859 C   0  0  0  0  0  0  0  0  0  0  0  0
  154.4812  138.9970  185.2125 N   0  0  0  0  0  0  0  0  0  0  0  0
  153.8038  139.6333  185.7035 H   0  0  0  0  0  0  0  0  0  0  0  0
  153.5807  138.2106  187.9776 C   0  0  0  0  0  0  0  0  0  0  0  0
  155.0124  138.2848  187.4950 C   0  0  0  0  0  0  0  0  0  0  0  0
  155.1048  138.0360  185.9848 C   0  0  0  0  0  0  0  0  0  0  0  0
  154.1876  136.7574  185.8376 C   0  0  0  0  0  0  0  0  0  0  0  0
  154.8293  135.5974  186.5060 C   0  0  0  0  0  0  0  0  0  0  0  0
  155.2415  135.8259  187.9218 C   0  0  0  0  0  0  0  0  0  0  0  0
  155.8144  137.2021  188.1569 C   0  0  0  0  0  0  0  0  0  0  0  0
  153.4661  139.5501  182.9858 C   0  0  0  0  0  0  0  0  0  0  0  0
  152.8790  138.3715  182.3201 C   0  0  0  0  0  0  0  0  0  0  0  0
  151.6420  138.7157  181.5841 N   0  0  0  0  0  0  0  0  0  0  0  0
  150.4282  138.5063  182.1113 C   0  0  0  0  0  0  0  0  0  0  0  0
  149.2570  138.8067  181.4597 C   0  0  0  0  0  0  0  0  0  0  0  0
  149.2967  139.3502  180.2029 C   0  0  0  0  0  0  0  0  0  0  0  0
  150.5465  139.5755  179.6358 C   0  0  0  0  0  0  0  0  0  0  0  0
  151.7031  139.2471  180.3526 C   0  0  0  0  0  0  0  0  0  0  0  0
  152.7914  139.4833  179.7673 O   0  0  0  0  0  0  0  0  0  0  0  0
 21 22  1  0  0  0
 22 23  1  0  0  0
 23 19  1  0  0  0
 19  1  1  0  0  0
  1 28  1  0  0  0
 28 29  1  0  0  0
 29 30  1  0  0  0
 30 31  1  0  0  0
 31 32  2  0  0  0
 32 33  1  0  0  0
 33 34  2  0  0  0
 34 35  1  0  0  0
 35 36  2  0  0  0
  1  2  1  0  0  0
  2  3  1  0  0  0
  3  6  1  0  0  0
  6 12  1  0  0  0
 12 13  1  0  0  0
 13 14  2  0  0  0
 14 15  1  0  0  0
 15 16  2  0  0  0
 16 17  1  0  0  0
 17 18  2  0  0  0
  6  7  1  0  0  0
  7  8  1  0  0  0
  7  9  2  0  0  0
  2  4  2  0  0  0
 23 24  1  0  0  0
 24 25  1  0  0  0
 25 26  1  0  0  0
 26 27  1  0  0  0
 27 22  1  0  0  0
 35 30  1  0  0  0
 18 13  1  0  0  0
 19 20  1  0  0  0
  3  5  1  0  0  0
  8 10  1  0  0  0
  8 11  1  0  0  0
M  END
> <minimizedAffinity>
-8.73515

> <CNNscore>
0.3299158514

> <CNNaffinity>
6.4084091187

> <CNN_VS>
2.1142356396

> <CNNaffinity_variance>
0.0416746475

$$$$
[H]c1c([H])c([H])c(C([H])([H])[C@@]([H])(C(=O)N([H])[H])N([H])C(=O)[C@@]([H])(N([H])[C@]2([H])C([H])([H])C([H])([H])C([H])([H])C([H])([H])[C@]2([H])C([H])([H])[H])C([H])([H])C([H])([H])n2c([H])c([H])c([H])c([H])c2=O)c([H])c1[H]


 36 38  0  0  0  0  0  0  0  0999 V2000
  152.4161  135.8058  187.9761 C   0  0  0  0  0  0  0  0  0  0  0  0
  152.2047  136.6559  186.7280 C   0  0  0  0  0  0  0  0  0  0  0  0
  153.1696  136.7007  185.7042 N   0  0  0  0  0  0  0  0  0  0  0  0
  151.1561  137.3044  186.6514 O   0  0  0  0  0  0  0  0  0  0  0  0
  154.0737  136.1333  185.8043 H   0  0  0  0  0  0  0  0  0  0  0  0
  152.9814  137.4958  184.5104 C   0  0  0  0  0  0  0  0  0  0  0  0
  152.3160  136.6543  183.5027 C   0  0  0  0  0  0  0  0  0  0  0  0
  153.1457  135.8278  182.6642 N   0  0  0  0  0  0  0  0  0  0  0  0
  151.0775  136.5882  183.3035 O   0  0  0  0  0  0  0  0  0  0  0  0
  153.5545  134.9555  183.0113 H   0  0  0  0  0  0  0  0  0  0  0  0
  153.2936  136.1768  181.6971 H   0  0  0  0  0  0  0  0  0  0  0  0
  154.2905  138.0987  184.0065 C   0  0  0  0  0  0  0  0  0  0  0  0
  154.0808  139.4387  183.4247 C   0  0  0  0  0  0  0  0  0  0  0  0
  153.2343  139.6882  182.3634 C   0  0  0  0  0  0  0  0  0  0  0  0
  153.1014  140.9735  181.8671 C   0  0  0  0  0  0  0  0  0  0  0  0
  153.7997  142.0395  182.4048 C   0  0  0  0  0  0  0  0  0  0  0  0
  154.6407  141.7914  183.4587 C   0  0  0  0  0  0  0  0  0  0  0  0
  154.7886  140.5164  183.9714 C   0  0  0  0  0  0  0  0  0  0  0  0
  153.7270  135.9715  188.3522 N   0  0  0  0  0  0  0  0  0  0  0  0
  154.4340  135.6541  187.6420 H   0  0  0  0  0  0  0  0  0  0  0  0
  156.6571  136.3873  188.9150 C   0  0  0  0  0  0  0  0  0  0  0  0
  155.6052  135.9837  189.9243 C   0  0  0  0  0  0  0  0  0  0  0  0
  154.2205  136.5081  189.5258 C   0  0  0  0  0  0  0  0  0  0  0  0
  154.5645  138.0064  189.1589 C   0  0  0  0  0  0  0  0  0  0  0  0
  154.9698  138.7443  190.3817 C   0  0  0  0  0  0  0  0  0  0  0  0
  156.0550  138.1046  191.1814 C   0  0  0  0  0  0  0  0  0  0  0  0
  155.9310  136.6022  191.2528 C   0  0  0  0  0  0  0  0  0  0  0  0
  151.2790  136.0886  188.8889 C   0  0  0  0  0  0  0  0  0  0  0  0
  151.0298  135.0217  189.8772 C   0  0  0  0  0  0  0  0  0  0  0  0
  151.4610  135.4198  191.2358 N   0  0  0  0  0  0  0  0  0  0  0  0
  150.9339  136.4827  191.8581 C   0  0  0  0  0  0  0  0  0  0  0  0
  151.3099  136.8880  193.1154 C   0  0  0  0  0  0  0  0  0  0  0  0
  152.2721  136.1905  193.7968 C   0  0  0  0  0  0  0  0  0  0  0  0
  152.8335  135.0835  193.1693 C   0  0  0  0  0  0  0  0  0  0  0  0
  152.4064  134.7226  191.8861 C   0  0  0  0  0  0  0  0  0  0  0  0
  152.9649  133.7095  191.3917 O   0  0  0  0  0  0  0  0  0  0  0  0
 21 22  1  0  0  0
 22 23  1  0  0  0
 23 19  1  0  0  0
 19  1  1  0  0  0
  1 28  1  0  0  0
 28 29  1  0  0  0
 29 30  1  0  0  0
 30 31  1  0  0  0
 31 32  2  0  0  0
 32 33  1  0  0  0
 33 34  2  0  0  0
 34 35  1  0  0  0
 35 36  2  0  0  0
  1  2  1  0  0  0
  2  3  1  0  0  0
  3  6  1  0  0  0
  6 12  1  0  0  0
 12 13  1  0  0  0
 13 14  2  0  0  0
 14 15  1  0  0  0
 15 16  2  0  0  0
 16 17  1  0  0  0
 17 18  2  0  0  0
  6  7  1  0  0  0
  7  8  1  0  0  0
  7  9  2  0  0  0
  2  4  2  0  0  0
 23 24  1  0  0  0
 24 25  1  0  0  0
 25 26  1  0  0  0
 26 27  1  0  0  0
 27 22  1  0  0  0
 35 30  1  0  0  0
 18 13  1  0  0  0
 19 20  1  0  0  0
  3  5  1  0  0  0
  8 10  1  0  0  0
  8 11  1  0  0  0
M  END
> <minimizedAffinity>
-6.77862

> <CNNscore>
0.3263273835

> <CNNaffinity>
5.6302099228

> <CNN_VS>
1.8372917175

> <CNNaffinity_variance>
0.0974809974

$$$$
[H]c1c([H])c([H])c(C([H])([H])[C@@]([H])(C(=O)N([H])[H])N([H])C(=O)[C@@]([H])(N([H])[C@]2([H])C([H])([H])C([H])([H])C([H])([H])C([H])([H])[C@]2([H])C([H])([H])[H])C([H])([H])C([H])([H])n2c([H])c([H])c([H])c([H])c2=O)c([H])c1[H]


 36 38  0  0  0  0  0  0  0  0999 V2000
  155.0574  138.5394  185.0070 C   0  0  0  0  0  0  0  0  0  0  0  0
  153.7529  138.5970  184.2195 C   0  0  0  0  0  0  0  0  0  0  0  0
  152.8595  137.5095  184.2077 N   0  0  0  0  0  0  0  0  0  0  0  0
  153.5120  139.6332  183.5914 O   0  0  0  0  0  0  0  0  0  0  0  0
  153.1013  136.6204  184.7559 H   0  0  0  0  0  0  0  0  0  0  0  0
  151.6144  137.5506  183.4724 C   0  0  0  0  0  0  0  0  0  0  0  0
  150.5892  136.8625  184.2734 C   0  0  0  0  0  0  0  0  0  0  0  0
  149.2276  137.3176  184.1556 N   0  0  0  0  0  0  0  0  0  0  0  0
  150.7927  135.9037  185.0591 O   0  0  0  0  0  0  0  0  0  0  0  0
  148.6507  137.0717  183.3461 H   0  0  0  0  0  0  0  0  0  0  0  0
  148.8812  137.9020  184.9412 H   0  0  0  0  0  0  0  0  0  0  0  0
  151.7549  136.9705  182.0670 C   0  0  0  0  0  0  0  0  0  0  0  0
  151.3469  137.9444  181.0360 C   0  0  0  0  0  0  0  0  0  0  0  0
  152.1704  138.9447  180.5598 C   0  0  0  0  0  0  0  0  0  0  0  0
  151.7082  139.8274  179.5990 C   0  0  0  0  0  0  0  0  0  0  0  0
  150.4257  139.7440  179.0876 C   0  0  0  0  0  0  0  0  0  0  0  0
  149.6080  138.7506  179.5609 C   0  0  0  0  0  0  0  0  0  0  0  0
  150.0482  137.8575  180.5195 C   0  0  0  0  0  0  0  0  0  0  0  0
  155.8111  139.6159  184.6062 N   0  0  0  0  0  0  0  0  0  0  0  0
  155.4908  140.5440  184.9817 H   0  0  0  0  0  0  0  0  0  0  0  0
  156.8241  142.0558  183.1586 C   0  0  0  0  0  0  0  0  0  0  0  0
  156.8613  140.6346  182.6418 C   0  0  0  0  0  0  0  0  0  0  0  0
  156.9284  139.6246  183.7936 C   0  0  0  0  0  0  0  0  0  0  0  0
  158.0603  140.2695  184.6886 C   0  0  0  0  0  0  0  0  0  0  0  0
  159.3628  140.2024  183.9794 C   0  0  0  0  0  0  0  0  0  0  0  0
  159.3638  140.7593  182.5950 C   0  0  0  0  0  0  0  0  0  0  0  0
  158.1059  140.4370  181.8262 C   0  0  0  0  0  0  0  0  0  0  0  0
  154.6942  138.3000  186.4271 C   0  0  0  0  0  0  0  0  0  0  0  0
  155.5263  137.2775  187.0898 C   0  0  0  0  0  0  0  0  0  0  0  0
  155.6250  137.5100  188.5480 N   0  0  0  0  0  0  0  0  0  0  0  0
  154.8460  138.4035  189.1723 C   0  0  0  0  0  0  0  0  0  0  0  0
  154.9098  138.6525  190.5215 C   0  0  0  0  0  0  0  0  0  0  0  0
  155.8064  137.9682  191.2989 C   0  0  0  0  0  0  0  0  0  0  0  0
  156.6259  137.0359  190.6714 C   0  0  0  0  0  0  0  0  0  0  0  0
  156.5113  136.8289  189.2918 C   0  0  0  0  0  0  0  0  0  0  0  0
  157.2890  135.9684  188.8044 O   0  0  0  0  0  0  0  0  0  0  0  0
 21 22  1  0  0  0
 22 23  1  0  0  0
 23 19  1  0  0  0
 19  1  1  0  0  0
  1 28  1  0  0  0
 28 29  1  0  0  0
 29 30  1  0  0  0
 30 31  1  0  0  0
 31 32  2  0  0  0
 32 33  1  0  0  0
 33 34  2  0  0  0
 34 35  1  0  0  0
 35 36  2  0  0  0
  1  2  1  0  0  0
  2  3  1  0  0  0
  3  6  1  0  0  0
  6 12  1  0  0  0
 12 13  1  0  0  0
 13 14  2  0  0  0
 14 15  1  0  0  0
 15 16  2  0  0  0
 16 17  1  0  0  0
 17 18  2  0  0  0
  6  7  1  0  0  0
  7  8  1  0  0  0
  7  9  2  0  0  0
  2  4  2  0  0  0
 23 24  1  0  0  0
 24 25  1  0  0  0
 25 26  1  0  0  0
 26 27  1  0  0  0
 27 22  1  0  0  0
 35 30  1  0  0  0
 18 13  1  0  0  0
 19 20  1  0  0  0
  3  5  1  0  0  0
  8 10  1  0  0  0
  8 11  1  0  0  0
M  END
> <minimizedAffinity>
-7.71819

> <CNNscore>
0.3217715919

> <CNNaffinity>
5.9961700439

> <CNN_VS>
1.9293972254

> <CNNaffinity_variance>
0.0508827269

$$$$
[H]c1c([H])c([H])c(C([H])([H])[C@@]([H])(C(=O)N([H])[H])N([H])C(=O)[C@@]([H])(N([H])[C@]2([H])C([H])([H])C([H])([H])C([H])([H])C([H])([H])[C@]2([H])C([H])([H])[H])C([H])([H])C([H])([H])n2c([H])c([H])c([H])c([H])c2=O)c([H])c1[H]


 36 38  0  0  0  0  0  0  0  0999 V2000
  155.6050  138.6926  184.4388 C   0  0  0  0  0  0  0  0  0  0  0  0
  154.1247  138.7103  184.0733 C   0  0  0  0  0  0  0  0  0  0  0  0
  153.4318  137.5209  183.7792 N   0  0  0  0  0  0  0  0  0  0  0  0
  153.5583  139.8078  184.0437 O   0  0  0  0  0  0  0  0  0  0  0  0
  153.9537  136.5847  183.8049 H   0  0  0  0  0  0  0  0  0  0  0  0
  152.0260  137.5192  183.4384 C   0  0  0  0  0  0  0  0  0  0  0  0
  151.2959  136.8374  184.5193 C   0  0  0  0  0  0  0  0  0  0  0  0
  150.5051  135.6846  184.1725 N   0  0  0  0  0  0  0  0  0  0  0  0
  151.2984  137.1704  185.7306 O   0  0  0  0  0  0  0  0  0  0  0  0
  150.9382  134.7740  183.9944 H   0  0  0  0  0  0  0  0  0  0  0  0
  149.4801  135.8441  184.1195 H   0  0  0  0  0  0  0  0  0  0  0  0
  151.7656  136.9007  182.0669 C   0  0  0  0  0  0  0  0  0  0  0  0
  151.3543  137.9203  181.0824 C   0  0  0  0  0  0  0  0  0  0  0  0
  150.0864  137.9942  180.5418 C   0  0  0  0  0  0  0  0  0  0  0  0
  149.7824  138.9750  179.6134 C   0  0  0  0  0  0  0  0  0  0  0  0
  150.7204  139.9026  179.1977 C   0  0  0  0  0  0  0  0  0  0  0  0
  151.9797  139.8287  179.7347 C   0  0  0  0  0  0  0  0  0  0  0  0
  152.3057  138.8586  180.6637 C   0  0  0  0  0  0  0  0  0  0  0  0
  156.2268  139.6048  183.6209 N   0  0  0  0  0  0  0  0  0  0  0  0
  155.7747  139.7360  182.6811 H   0  0  0  0  0  0  0  0  0  0  0  0
  158.6289  139.7546  181.8092 C   0  0  0  0  0  0  0  0  0  0  0  0
  158.6509  139.7877  183.3213 C   0  0  0  0  0  0  0  0  0  0  0  0
  157.3481  140.3676  183.8849 C   0  0  0  0  0  0  0  0  0  0  0  0
  157.1751  141.6485  182.9753 C   0  0  0  0  0  0  0  0  0  0  0  0
  158.2491  142.6285  183.2756 C   0  0  0  0  0  0  0  0  0  0  0  0
  159.6389  142.0885  183.2169 C   0  0  0  0  0  0  0  0  0  0  0  0
  159.7564  140.6935  183.7805 C   0  0  0  0  0  0  0  0  0  0  0  0
  155.6849  138.7600  185.9203 C   0  0  0  0  0  0  0  0  0  0  0  0
  155.1526  137.5634  186.5999 C   0  0  0  0  0  0  0  0  0  0  0  0
  155.3820  137.6136  188.0611 N   0  0  0  0  0  0  0  0  0  0  0  0
  154.6844  138.4372  188.8549 C   0  0  0  0  0  0  0  0  0  0  0  0
  154.8703  138.5178  190.2133 C   0  0  0  0  0  0  0  0  0  0  0  0
  155.8106  137.7280  190.8204 C   0  0  0  0  0  0  0  0  0  0  0  0
  156.5471  136.8657  190.0151 C   0  0  0  0  0  0  0  0  0  0  0  0
  156.3092  136.8313  188.6361 C   0  0  0  0  0  0  0  0  0  0  0  0
  157.0182  136.0237  187.9818 O   0  0  0  0  0  0  0  0  0  0  0  0
 21 22  1  0  0  0
 22 23  1  0  0  0
 23 19  1  0  0  0
 19  1  1  0  0  0
  1 28  1  0  0  0
 28 29  1  0  0  0
 29 30  1  0  0  0
 30 31  1  0  0  0
 31 32  2  0  0  0
 32 33  1  0  0  0
 33 34  2  0  0  0
 34 35  1  0  0  0
 35 36  2  0  0  0
  1  2  1  0  0  0
  2  3  1  0  0  0
  3  6  1  0  0  0
  6 12  1  0  0  0
 12 13  1  0  0  0
 13 14  2  0  0  0
 14 15  1  0  0  0
 15 16  2  0  0  0
 16 17  1  0  0  0
 17 18  2  0  0  0
  6  7  1  0  0  0
  7  8  1  0  0  0
  7  9  2  0  0  0
  2  4  2  0  0  0
 23 24  1  0  0  0
 24 25  1  0  0  0
 25 26  1  0  0  0
 26 27  1  0  0  0
 27 22  1  0  0  0
 35 30  1  0  0  0
 18 13  1  0  0  0
 19 20  1  0  0  0
  3  5  1  0  0  0
  8 10  1  0  0  0
  8 11  1  0  0  0
M  END
> <minimizedAffinity>
-7.41261

> <CNNscore>
0.3199954033

> <CNNaffinity>
6.0607390404

> <CNN_VS>
1.9394086599

> <CNNaffinity_variance>
0.0366567820

$$$$
[H]c1c([H])c([H])c(C([H])([H])[C@@]([H])(C(=O)N([H])[H])N([H])C(=O)[C@@]([H])(N([H])[C@]2([H])C([H])([H])C([H])([H])C([H])([H])C([H])([H])[C@]2([H])C([H])([H])[H])C([H])([H])C([H])([H])n2c([H])c([H])c([H])c([H])c2=O)c([H])c1[H]


 36 38  0  0  0  0  0  0  0  0999 V2000
  156.7823  140.2952  183.9893 C   0  0  0  0  0  0  0  0  0  0  0  0
  155.6389  139.4927  184.6006 C   0  0  0  0  0  0  0  0  0  0  0  0
  155.8884  138.3798  185.4255 N   0  0  0  0  0  0  0  0  0  0  0  0
  154.4866  139.8556  184.3426 O   0  0  0  0  0  0  0  0  0  0  0  0
  156.8999  138.0845  185.6235 H   0  0  0  0  0  0  0  0  0  0  0  0
  154.8157  137.6124  186.0195 C   0  0  0  0  0  0  0  0  0  0  0  0
  153.9192  137.1704  184.9392 C   0  0  0  0  0  0  0  0  0  0  0  0
  152.5420  137.5887  184.9959 N   0  0  0  0  0  0  0  0  0  0  0  0
  154.2466  136.4545  183.9602 O   0  0  0  0  0  0  0  0  0  0  0  0
  152.2615  138.5386  184.7363 H   0  0  0  0  0  0  0  0  0  0  0  0
  151.8670  136.8656  185.3129 H   0  0  0  0  0  0  0  0  0  0  0  0
  154.0864  138.3902  187.1124 C   0  0  0  0  0  0  0  0  0  0  0  0
  154.7694  138.2637  188.4145 C   0  0  0  0  0  0  0  0  0  0  0  0
  154.2832  138.8017  189.5890 C   0  0  0  0  0  0  0  0  0  0  0  0
  154.9905  138.6491  190.7690 C   0  0  0  0  0  0  0  0  0  0  0  0
  156.1913  137.9644  190.8170 C   0  0  0  0  0  0  0  0  0  0  0  0
  156.6741  137.4304  189.6503 C   0  0  0  0  0  0  0  0  0  0  0  0
  155.9847  137.5695  188.4604 C   0  0  0  0  0  0  0  0  0  0  0  0
  156.2100  141.2749  183.2146 N   0  0  0  0  0  0  0  0  0  0  0  0
  155.3720  141.7435  183.6425 H   0  0  0  0  0  0  0  0  0  0  0  0
  158.4039  143.2885  182.7594 C   0  0  0  0  0  0  0  0  0  0  0  0
  157.1315  143.1603  181.9514 C   0  0  0  0  0  0  0  0  0  0  0  0
  156.6041  141.7206  181.9676 C   0  0  0  0  0  0  0  0  0  0  0  0
  157.9294  140.9152  181.6631 C   0  0  0  0  0  0  0  0  0  0  0  0
  158.3809  141.1937  180.2765 C   0  0  0  0  0  0  0  0  0  0  0  0
  158.5159  142.6384  179.9286 C   0  0  0  0  0  0  0  0  0  0  0  0
  157.4206  143.4940  180.5166 C   0  0  0  0  0  0  0  0  0  0  0  0
  157.7340  140.5973  185.0889 C   0  0  0  0  0  0  0  0  0  0  0  0
  159.1514  140.4533  184.7053 C   0  0  0  0  0  0  0  0  0  0  0  0
  160.0008  141.4837  185.3436 N   0  0  0  0  0  0  0  0  0  0  0  0
  159.6445  142.0775  186.4906 C   0  0  0  0  0  0  0  0  0  0  0  0
  160.4011  143.0408  187.1118 C   0  0  0  0  0  0  0  0  0  0  0  0
  161.5882  143.4385  186.5557 C   0  0  0  0  0  0  0  0  0  0  0  0
  161.9774  142.8356  185.3643 C   0  0  0  0  0  0  0  0  0  0  0  0
  161.1606  141.8596  184.7815 C   0  0  0  0  0  0  0  0  0  0  0  0
  161.5866  141.3652  183.7059 O   0  0  0  0  0  0  0  0  0  0  0  0
 21 22  1  0  0  0
 22 23  1  0  0  0
 23 19  1  0  0  0
 19  1  1  0  0  0
  1 28  1  0  0  0
 28 29  1  0  0  0
 29 30  1  0  0  0
 30 31  1  0  0  0
 31 32  2  0  0  0
 32 33  1  0  0  0
 33 34  2  0  0  0
 34 35  1  0  0  0
 35 36  2  0  0  0
  1  2  1  0  0  0
  2  3  1  0  0  0
  3  6  1  0  0  0
  6 12  1  0  0  0
 12 13  1  0  0  0
 13 14  2  0  0  0
 14 15  1  0  0  0
 15 16  2  0  0  0
 16 17  1  0  0  0
 17 18  2  0  0  0
  6  7  1  0  0  0
  7  8  1  0  0  0
  7  9  2  0  0  0
  2  4  2  0  0  0
 23 24  1  0  0  0
 24 25  1  0  0  0
 25 26  1  0  0  0
 26 27  1  0  0  0
 27 22  1  0  0  0
 35 30  1  0  0  0
 18 13  1  0  0  0
 19 20  1  0  0  0
  3  5  1  0  0  0
  8 10  1  0  0  0
  8 11  1  0  0  0
M  END
> <minimizedAffinity>
-8.71312

> <CNNscore>
0.3152175248

> <CNNaffinity>
6.6700935364

> <CNN_VS>
2.1025304794

> <CNNaffinity_variance>
0.0470219031

$$$$
[H]c1nc([H])c([N+](=O)[O-])c([H])c1Oc1c([H])c([H])c(-c2c([H])c([H])c(C(=O)N([H])C([H])([H])[H])c([H])c2[H])c(C(F)(F)F)c1[H]


 31 33  0  0  0  0  0  0  0  0999 V2000
  155.9226  140.0153  183.8070 C   0  0  0  0  0  0  0  0  0  0  0  0
  155.4636  138.7484  184.2125 C   0  0  0  0  0  0  0  0  0  0  0  0
  154.1834  138.3206  183.9543 C   0  0  0  0  0  0  0  0  0  0  0  0
  153.3041  139.1389  183.2795 C   0  0  0  0  0  0  0  0  0  0  0  0
  153.7252  140.3781  182.8727 C   0  0  0  0  0  0  0  0  0  0  0  0
  155.0381  140.8135  183.1384 C   0  0  0  0  0  0  0  0  0  0  0  0
  159.8917  141.3195  184.6942 C   0  0  0  0  0  0  0  0  0  0  0  0
  158.8479  141.5230  185.5962 C   0  0  0  0  0  0  0  0  0  0  0  0
  157.6071  141.0863  185.2888 C   0  0  0  0  0  0  0  0  0  0  0  0
  157.2724  140.4332  184.1175 C   0  0  0  0  0  0  0  0  0  0  0  0
  158.2999  140.2347  183.2317 C   0  0  0  0  0  0  0  0  0  0  0  0
  159.5996  140.6730  183.5157 C   0  0  0  0  0  0  0  0  0  0  0  0
  162.8778  142.8267  186.6115 C   0  0  0  0  0  0  0  0  0  0  0  0
  161.5362  142.3551  186.2782 N   0  0  0  0  0  0  0  0  0  0  0  0
  161.2346  141.7896  185.0226 C   0  0  0  0  0  0  0  0  0  0  0  0
  162.1482  141.6940  184.1793 O   0  0  0  0  0  0  0  0  0  0  0  0
  160.8353  142.4653  187.0199 H   0  0  0  0  0  0  0  0  0  0  0  0
  155.4362  142.1492  182.6579 C   0  0  0  0  0  0  0  0  0  0  0  0
  156.2629  142.0127  181.5318 F   0  0  0  0  0  0  0  0  0  0  0  0
  154.2801  142.7643  182.1086 F   0  0  0  0  0  0  0  0  0  0  0  0
  155.9082  143.0136  183.5766 F   0  0  0  0  0  0  0  0  0  0  0  0
  151.9991  138.7538  182.9940 O   0  0  0  0  0  0  0  0  0  0  0  0
  151.5170  138.9974  181.7230 C   0  0  0  0  0  0  0  0  0  0  0  0
  152.3860  139.4507  180.7541 C   0  0  0  0  0  0  0  0  0  0  0  0
  151.9483  139.6936  179.5204 N   0  0  0  0  0  0  0  0  0  0  0  0
  150.6777  139.5153  179.1671 C   0  0  0  0  0  0  0  0  0  0  0  0
  149.7713  139.0708  180.0743 C   0  0  0  0  0  0  0  0  0  0  0  0
  150.1738  138.8001  181.3818 C   0  0  0  0  0  0  0  0  0  0  0  0
  148.4229  138.8729  179.7313 N   0  0  0  0  0  0  0  0  0  0  0  0
  147.3940  139.3035  180.5541 O   0  0  0  0  0  0  0  0  0  0  0  0
  148.1312  138.3018  178.6721 O   0  0  0  0  0  0  0  0  0  0  0  0
 13 14  1  0  0  0
 14 15  1  0  0  0
 15 16  2  0  0  0
 15  7  1  0  0  0
  7  8  2  0  0  0
  8  9  1  0  0  0
  9 10  2  0  0  0
 10 11  1  0  0  0
 11 12  2  0  0  0
 10  1  1  0  0  0
  1  2  2  0  0  0
  2  3  1  0  0  0
  3  4  2  0  0  0
  4 22  1  0  0  0
 22 23  1  0  0  0
 23 24  2  0  0  0
 24 25  1  0  0  0
 25 26  2  0  0  0
 26 27  1  0  0  0
 27 28  2  0  0  0
 27 29  1  0  0  0
 29 30  1  0  0  0
 29 31  2  0  0  0
  4  5  1  0  0  0
  5  6  2  0  0  0
  6 18  1  0  0  0
 18 19  1  0  0  0
 18 20  1  0  0  0
 18 21  1  0  0  0
 12  7  1  0  0  0
  6  1  1  0  0  0
 28 23  1  0  0  0
 14 17  1  0  0  0
M  CHG 1  29   1
M  CHG 1  30  -1
M  END
> <minimizedAffinity>
-8.65096

> <CNNscore>
0.3929734826

> <CNNaffinity>
6.2115345001

> <CNN_VS>
2.4409682751

> <CNNaffinity_variance>
0.0910422802

$$$$
[H]c1nc([H])c([N+](=O)[O-])c([H])c1Oc1c([H])c([H])c(-c2c([H])c([H])c(C(=O)N([H])C([H])([H])[H])c([H])c2[H])c(C(F)(F)F)c1[H]


 31 33  0  0  0  0  0  0  0  0999 V2000
  156.7982  141.9142  183.4193 C   0  0  0  0  0  0  0  0  0  0  0  0
  155.6114  142.1240  184.1456 C   0  0  0  0  0  0  0  0  0  0  0  0
  154.3714  142.0018  183.5660 C   0  0  0  0  0  0  0  0  0  0  0  0
  154.2610  141.6646  182.2348 C   0  0  0  0  0  0  0  0  0  0  0  0
  155.4010  141.4543  181.5037 C   0  0  0  0  0  0  0  0  0  0  0  0
  156.6704  141.5798  182.1008 C   0  0  0  0  0  0  0  0  0  0  0  0
  160.6224  142.3312  185.2748 C   0  0  0  0  0  0  0  0  0  0  0  0
  160.2756  143.0937  184.1600 C   0  0  0  0  0  0  0  0  0  0  0  0
  159.0526  142.9453  183.6057 C   0  0  0  0  0  0  0  0  0  0  0  0
  158.0833  142.0732  184.0644 C   0  0  0  0  0  0  0  0  0  0  0  0
  158.4265  141.3239  185.1601 C   0  0  0  0  0  0  0  0  0  0  0  0
  159.6849  141.4504  185.7622 C   0  0  0  0  0  0  0  0  0  0  0  0
  163.4277  142.8176  187.8744 C   0  0  0  0  0  0  0  0  0  0  0  0
  162.1090  142.6597  187.2668 N   0  0  0  0  0  0  0  0  0  0  0  0
  161.9431  142.4886  185.8774 C   0  0  0  0  0  0  0  0  0  0  0  0
  162.9597  142.4732  185.1554 O   0  0  0  0  0  0  0  0  0  0  0  0
  161.3186  142.6825  187.9213 H   0  0  0  0  0  0  0  0  0  0  0  0
  157.8579  141.3219  181.2660 C   0  0  0  0  0  0  0  0  0  0  0  0
  158.4559  140.1164  181.6650 F   0  0  0  0  0  0  0  0  0  0  0  0
  157.3980  141.0105  179.9590 F   0  0  0  0  0  0  0  0  0  0  0  0
  158.7303  142.3367  181.1140 F   0  0  0  0  0  0  0  0  0  0  0  0
  153.0308  141.5289  181.6012 O   0  0  0  0  0  0  0  0  0  0  0  0
  152.4883  140.2624  181.5084 C   0  0  0  0  0  0  0  0  0  0  0  0
  152.9666  139.2681  182.3342 C   0  0  0  0  0  0  0  0  0  0  0  0
  152.4617  138.0381  182.2661 N   0  0  0  0  0  0  0  0  0  0  0  0
  151.4908  137.7125  181.4160 C   0  0  0  0  0  0  0  0  0  0  0  0
  150.9760  138.6456  180.5755 C   0  0  0  0  0  0  0  0  0  0  0  0
  151.4669  139.9505  180.6032 C   0  0  0  0  0  0  0  0  0  0  0  0
  149.9506  138.3321  179.6671 N   0  0  0  0  0  0  0  0  0  0  0  0
  149.6445  139.1652  178.6025 O   0  0  0  0  0  0  0  0  0  0  0  0
  149.2962  137.2905  179.8078 O   0  0  0  0  0  0  0  0  0  0  0  0
 13 14  1  0  0  0
 14 15  1  0  0  0
 15 16  2  0  0  0
 15  7  1  0  0  0
  7  8  2  0  0  0
  8  9  1  0  0  0
  9 10  2  0  0  0
 10 11  1  0  0  0
 11 12  2  0  0  0
 10  1  1  0  0  0
  1  2  2  0  0  0
  2  3  1  0  0  0
  3  4  2  0  0  0
  4 22  1  0  0  0
 22 23  1  0  0  0
 23 24  2  0  0  0
 24 25  1  0  0  0
 25 26  2  0  0  0
 26 27  1  0  0  0
 27 28  2  0  0  0
 27 29  1  0  0  0
 29 30  1  0  0  0
 29 31  2  0  0  0
  4  5  1  0  0  0
  5  6  2  0  0  0
  6 18  1  0  0  0
 18 19  1  0  0  0
 18 20  1  0  0  0
 18 21  1  0  0  0
 12  7  1  0  0  0
  6  1  1  0  0  0
 28 23  1  0  0  0
 14 17  1  0  0  0
M  CHG 1  29   1
M  CHG 1  30  -1
M  END
> <minimizedAffinity>
-8.26289

> <CNNscore>
0.3620100319

> <CNNaffinity>
6.4305925369

> <CNN_VS>
2.3279390335

> <CNNaffinity_variance>
0.1093509048

$$$$
[H]c1nc([H])c([N+](=O)[O-])c([H])c1Oc1c([H])c([H])c(-c2c([H])c([H])c(C(=O)N([H])C([H])([H])[H])c([H])c2[H])c(C(F)(F)F)c1[H]


 31 33  0  0  0  0  0  0  0  0999 V2000
  155.5450  140.0958  183.4291 C   0  0  0  0  0  0  0  0  0  0  0  0
  156.8509  139.5725  183.4021 C   0  0  0  0  0  0  0  0  0  0  0  0
  157.9091  140.2814  182.8864 C   0  0  0  0  0  0  0  0  0  0  0  0
  157.7106  141.5449  182.3742 C   0  0  0  0  0  0  0  0  0  0  0  0
  156.4485  142.0790  182.3882 C   0  0  0  0  0  0  0  0  0  0  0  0
  155.3660  141.3501  182.9180 C   0  0  0  0  0  0  0  0  0  0  0  0
  152.3795  137.7052  185.0122 C   0  0  0  0  0  0  0  0  0  0  0  0
  153.2417  138.4075  185.8533 C   0  0  0  0  0  0  0  0  0  0  0  0
  154.2246  139.1643  185.3183 C   0  0  0  0  0  0  0  0  0  0  0  0
  154.4564  139.3067  183.9631 C   0  0  0  0  0  0  0  0  0  0  0  0
  153.6080  138.6148  183.1378 C   0  0  0  0  0  0  0  0  0  0  0  0
  152.5771  137.8202  183.6557 C   0  0  0  0  0  0  0  0  0  0  0  0
  150.0854  135.9403  187.5591 C   0  0  0  0  0  0  0  0  0  0  0  0
  151.1480  136.7580  186.9801 N   0  0  0  0  0  0  0  0  0  0  0  0
  151.3154  136.8863  185.5862 C   0  0  0  0  0  0  0  0  0  0  0  0
  150.5269  136.2791  184.8349 O   0  0  0  0  0  0  0  0  0  0  0  0
  151.7587  137.2284  187.6579 H   0  0  0  0  0  0  0  0  0  0  0  0
  154.0366  141.9873  182.9217 C   0  0  0  0  0  0  0  0  0  0  0  0
  153.6502  142.2528  184.2448 F   0  0  0  0  0  0  0  0  0  0  0  0
  154.1909  143.2936  182.3864 F   0  0  0  0  0  0  0  0  0  0  0  0
  153.0756  141.4009  182.1826 F   0  0  0  0  0  0  0  0  0  0  0  0
  158.7470  142.3029  181.8408 O   0  0  0  0  0  0  0  0  0  0  0  0
  159.4169  143.1661  182.6853 C   0  0  0  0  0  0  0  0  0  0  0  0
  159.2769  144.5247  182.5008 C   0  0  0  0  0  0  0  0  0  0  0  0
  159.9112  145.3796  183.3003 N   0  0  0  0  0  0  0  0  0  0  0  0
  160.6957  144.9755  184.2966 C   0  0  0  0  0  0  0  0  0  0  0  0
  160.8756  143.6510  184.5315 C   0  0  0  0  0  0  0  0  0  0  0  0
  160.2357  142.7101  183.7253 C   0  0  0  0  0  0  0  0  0  0  0  0
  161.6976  143.1937  185.5756 N   0  0  0  0  0  0  0  0  0  0  0  0
  161.6084  143.7219  186.8539 O   0  0  0  0  0  0  0  0  0  0  0  0
  162.5261  142.2981  185.3642 O   0  0  0  0  0  0  0  0  0  0  0  0
 13 14  1  0  0  0
 14 15  1  0  0  0
 15 16  2  0  0  0
 15  7  1  0  0  0
  7  8  2  0  0  0
  8  9  1  0  0  0
  9 10  2  0  0  0
 10 11  1  0  0  0
 11 12  2  0  0  0
 10  1  1  0  0  0
  1  2  2  0  0  0
  2  3  1  0  0  0
  3  4  2  0  0  0
  4 22  1  0  0  0
 22 23  1  0  0  0
 23 24  2  0  0  0
 24 25  1  0  0  0
 25 26  2  0  0  0
 26 27  1  0  0  0
 27 28  2  0  0  0
 27 29  1  0  0  0
 29 30  1  0  0  0
 29 31  2  0  0  0
  4  5  1  0  0  0
  5  6  2  0  0  0
  6 18  1  0  0  0
 18 19  1  0  0  0
 18 20  1  0  0  0
 18 21  1  0  0  0
 12  7  1  0  0  0
  6  1  1  0  0  0
 28 23  1  0  0  0
 14 17  1  0  0  0
M  CHG 1  29   1
M  CHG 1  30  -1
M  END
> <minimizedAffinity>
-8.01460

> <CNNscore>
0.2941090763

> <CNNaffinity>
6.2894034386

> <CNN_VS>
1.8497706652

> <CNNaffinity_variance>
0.0964396745

$$$$
[H]c1nc([H])c([N+](=O)[O-])c([H])c1Oc1c([H])c([H])c(-c2c([H])c([H])c(C(=O)N([H])C([H])([H])[H])c([H])c2[H])c(C(F)(F)F)c1[H]


 31 33  0  0  0  0  0  0  0  0999 V2000
  156.2920  141.0174  183.3272 C   0  0  0  0  0  0  0  0  0  0  0  0
  155.6291  139.8151  183.6358 C   0  0  0  0  0  0  0  0  0  0  0  0
  154.3461  139.5617  183.2139 C   0  0  0  0  0  0  0  0  0  0  0  0
  153.6673  140.4978  182.4649 C   0  0  0  0  0  0  0  0  0  0  0  0
  154.2894  141.6776  182.1496 C   0  0  0  0  0  0  0  0  0  0  0  0
  155.6047  141.9341  182.5831 C   0  0  0  0  0  0  0  0  0  0  0  0
  160.2492  141.7839  184.7395 C   0  0  0  0  0  0  0  0  0  0  0  0
  159.1579  141.8048  185.6073 C   0  0  0  0  0  0  0  0  0  0  0  0
  157.9214  141.5453  185.1291 C   0  0  0  0  0  0  0  0  0  0  0  0
  157.6359  141.2511  183.8090 C   0  0  0  0  0  0  0  0  0  0  0  0
  158.7102  141.2317  182.9573 C   0  0  0  0  0  0  0  0  0  0  0  0
  160.0070  141.4953  183.4165 C   0  0  0  0  0  0  0  0  0  0  0  0
  163.1326  142.8127  187.0829 C   0  0  0  0  0  0  0  0  0  0  0  0
  161.7961  142.5318  186.5655 N   0  0  0  0  0  0  0  0  0  0  0  0
  161.5876  142.0634  185.2522 C   0  0  0  0  0  0  0  0  0  0  0  0
  162.5812  141.8874  184.5197 O   0  0  0  0  0  0  0  0  0  0  0  0
  161.0263  142.6993  187.2235 H   0  0  0  0  0  0  0  0  0  0  0  0
  156.2255  143.2137  182.1950 C   0  0  0  0  0  0  0  0  0  0  0  0
  156.9724  143.0327  181.0204 F   0  0  0  0  0  0  0  0  0  0  0  0
  155.1842  144.0751  181.7585 F   0  0  0  0  0  0  0  0  0  0  0  0
  156.8813  143.8914  183.1565 F   0  0  0  0  0  0  0  0  0  0  0  0
  152.3684  140.2904  182.0142 O   0  0  0  0  0  0  0  0  0  0  0  0
  151.8848  138.9969  182.0103 C   0  0  0  0  0  0  0  0  0  0  0  0
  150.5220  138.7928  181.9858 C   0  0  0  0  0  0  0  0  0  0  0  0
  150.0284  137.5564  181.9814 N   0  0  0  0  0  0  0  0  0  0  0  0
  150.8079  136.4778  182.0001 C   0  0  0  0  0  0  0  0  0  0  0  0
  152.1584  136.6102  182.0247 C   0  0  0  0  0  0  0  0  0  0  0  0
  152.7310  137.8818  182.0304 C   0  0  0  0  0  0  0  0  0  0  0  0
  153.0074  135.4905  182.0447 N   0  0  0  0  0  0  0  0  0  0  0  0
  152.8772  134.4643  181.1221 O   0  0  0  0  0  0  0  0  0  0  0  0
  153.8978  135.4042  182.9008 O   0  0  0  0  0  0  0  0  0  0  0  0
 13 14  1  0  0  0
 14 15  1  0  0  0
 15 16  2  0  0  0
 15  7  1  0  0  0
  7  8  2  0  0  0
  8  9  1  0  0  0
  9 10  2  0  0  0
 10 11  1  0  0  0
 11 12  2  0  0  0
 10  1  1  0  0  0
  1  2  2  0  0  0
  2  3  1  0  0  0
  3  4  2  0  0  0
  4 22  1  0  0  0
 22 23  1  0  0  0
 23 24  2  0  0  0
 24 25  1  0  0  0
 25 26  2  0  0  0
 26 27  1  0  0  0
 27 28  2  0  0  0
 27 29  1  0  0  0
 29 30  1  0  0  0
 29 31  2  0  0  0
  4  5  1  0  0  0
  5  6  2  0  0  0
  6 18  1  0  0  0
 18 19  1  0  0  0
 18 20  1  0  0  0
 18 21  1  0  0  0
 12  7  1  0  0  0
  6  1  1  0  0  0
 28 23  1  0  0  0
 14 17  1  0  0  0
M  CHG 1  29   1
M  CHG 1  30  -1
M  END
> <minimizedAffinity>
-8.59941

> <CNNscore>
0.2799920738

> <CNNaffinity>
6.1385841370

> <CNN_VS>
1.7187548876

> <CNNaffinity_variance>
0.1659805477

$$$$
[H]c1nc([H])c([N+](=O)[O-])c([H])c1Oc1c([H])c([H])c(-c2c([H])c([H])c(C(=O)N([H])C([H])([H])[H])c([H])c2[H])c(C(F)(F)F)c1[H]


 31 33  0  0  0  0  0  0  0  0999 V2000
  153.1788  138.3701  184.4600 C   0  0  0  0  0  0  0  0  0  0  0  0
  153.5823  139.4472  183.6493 C   0  0  0  0  0  0  0  0  0  0  0  0
  153.1173  139.6070  182.3661 C   0  0  0  0  0  0  0  0  0  0  0  0
  152.2285  138.6983  181.8347 C   0  0  0  0  0  0  0  0  0  0  0  0
  151.8186  137.6397  182.6027 C   0  0  0  0  0  0  0  0  0  0  0  0
  152.2965  137.4789  183.9178 C   0  0  0  0  0  0  0  0  0  0  0  0
  154.7733  138.0262  188.4073 C   0  0  0  0  0  0  0  0  0  0  0  0
  153.5142  138.5825  188.1849 C   0  0  0  0  0  0  0  0  0  0  0  0
  153.0351  138.6643  186.9244 C   0  0  0  0  0  0  0  0  0  0  0  0
  153.7089  138.2292  185.7987 C   0  0  0  0  0  0  0  0  0  0  0  0
  154.9471  137.6832  186.0194 C   0  0  0  0  0  0  0  0  0  0  0  0
  155.4768  137.5812  187.3121 C   0  0  0  0  0  0  0  0  0  0  0  0
  156.6183  136.7566  191.5455 C   0  0  0  0  0  0  0  0  0  0  0  0
  156.0943  136.8520  190.1855 N   0  0  0  0  0  0  0  0  0  0  0  0
  155.2948  137.9355  189.7682 C   0  0  0  0  0  0  0  0  0  0  0  0
  155.0337  138.8333  190.5932 O   0  0  0  0  0  0  0  0  0  0  0  0
  156.3493  136.0779  189.5615 H   0  0  0  0  0  0  0  0  0  0  0  0
  151.8030  136.3304  184.6993 C   0  0  0  0  0  0  0  0  0  0  0  0
  150.9105  136.7844  185.6830 F   0  0  0  0  0  0  0  0  0  0  0  0
  150.9534  135.5732  183.8500 F   0  0  0  0  0  0  0  0  0  0  0  0
  152.7247  135.4636  185.1607 F   0  0  0  0  0  0  0  0  0  0  0  0
  151.7289  138.8145  180.5425 O   0  0  0  0  0  0  0  0  0  0  0  0
  150.3581  138.8600  180.3815 C   0  0  0  0  0  0  0  0  0  0  0  0
  149.5891  139.4481  181.3624 C   0  0  0  0  0  0  0  0  0  0  0  0
  148.2652  139.5057  181.2331 N   0  0  0  0  0  0  0  0  0  0  0  0
  147.6305  139.0096  180.1738 C   0  0  0  0  0  0  0  0  0  0  0  0
  148.3298  138.4175  179.1726 C   0  0  0  0  0  0  0  0  0  0  0  0
  149.7191  138.3288  179.2549 C   0  0  0  0  0  0  0  0  0  0  0  0
  147.6879  137.8845  178.0417 N   0  0  0  0  0  0  0  0  0  0  0  0
  147.9810  138.3314  176.7629 O   0  0  0  0  0  0  0  0  0  0  0  0
  146.8380  136.9940  178.1747 O   0  0  0  0  0  0  0  0  0  0  0  0
 13 14  1  0  0  0
 14 15  1  0  0  0
 15 16  2  0  0  0
 15  7  1  0  0  0
  7  8  2  0  0  0
  8  9  1  0  0  0
  9 10  2  0  0  0
 10 11  1  0  0  0
 11 12  2  0  0  0
 10  1  1  0  0  0
  1  2  2  0  0  0
  2  3  1  0  0  0
  3  4  2  0  0  0
  4 22  1  0  0  0
 22 23  1  0  0  0
 23 24  2  0  0  0
 24 25  1  0  0  0
 25 26  2  0  0  0
 26 27  1  0  0  0
 27 28  2  0  0  0
 27 29  1  0  0  0
 29 30  1  0  0  0
 29 31  2  0  0  0
  4  5  1  0  0  0
  5  6  2  0  0  0
  6 18  1  0  0  0
 18 19  1  0  0  0
 18 20  1  0  0  0
 18 21  1  0  0  0
 12  7  1  0  0  0
  6  1  1  0  0  0
 28 23  1  0  0  0
 14 17  1  0  0  0
M  CHG 1  29   1
M  CHG 1  30  -1
M  END
> <minimizedAffinity>
-6.74525

> <CNNscore>
0.2410479486

> <CNNaffinity>
5.3536348343

> <CNN_VS>
1.2904826403

> <CNNaffinity_variance>
0.0409454405

$$$$
[H]c1nc([H])c([N+](=O)[O-])c([H])c1Oc1c([H])c([H])c(-c2c([H])c([H])c(C(=O)N([H])C([H])([H])[H])c([H])c2[H])c(C(F)(F)F)c1[H]


 31 33  0  0  0  0  0  0  0  0999 V2000
  156.6720  141.8047  183.5794 C   0  0  0  0  0  0  0  0  0  0  0  0
  156.0549  142.9351  183.0123 C   0  0  0  0  0  0  0  0  0  0  0  0
  154.7966  142.8792  182.4629 C   0  0  0  0  0  0  0  0  0  0  0  0
  154.0979  141.6918  182.4550 C   0  0  0  0  0  0  0  0  0  0  0  0
  154.6753  140.5752  183.0010 C   0  0  0  0  0  0  0  0  0  0  0  0
  155.9649  140.6358  183.5638 C   0  0  0  0  0  0  0  0  0  0  0  0
  160.6027  142.1744  185.2086 C   0  0  0  0  0  0  0  0  0  0  0  0
  159.4912  142.0211  186.0365 C   0  0  0  0  0  0  0  0  0  0  0  0
  158.2636  141.8943  185.4870 C   0  0  0  0  0  0  0  0  0  0  0  0
  158.0066  141.9038  184.1289 C   0  0  0  0  0  0  0  0  0  0  0  0
  159.1006  142.0554  183.3167 C   0  0  0  0  0  0  0  0  0  0  0  0
  160.3891  142.1894  183.8498 C   0  0  0  0  0  0  0  0  0  0  0  0
  163.4365  142.7603  187.7563 C   0  0  0  0  0  0  0  0  0  0  0  0
  162.1096  142.6222  187.1618 N   0  0  0  0  0  0  0  0  0  0  0  0
  161.9315  142.3115  185.7983 C   0  0  0  0  0  0  0  0  0  0  0  0
  162.9441  142.1519  185.0883 O   0  0  0  0  0  0  0  0  0  0  0  0
  161.3230  142.7671  187.8052 H   0  0  0  0  0  0  0  0  0  0  0  0
  156.5231  139.4048  184.1525 C   0  0  0  0  0  0  0  0  0  0  0  0
  156.4750  139.4937  185.5526 F   0  0  0  0  0  0  0  0  0  0  0  0
  155.6056  138.3539  183.8870 F   0  0  0  0  0  0  0  0  0  0  0  0
  157.7098  138.9827  183.6756 F   0  0  0  0  0  0  0  0  0  0  0  0
  152.8229  141.5823  181.9114 O   0  0  0  0  0  0  0  0  0  0  0  0
  152.3722  140.3224  181.5701 C   0  0  0  0  0  0  0  0  0  0  0  0
  152.0694  140.0550  180.2525 C   0  0  0  0  0  0  0  0  0  0  0  0
  151.6329  138.8489  179.8954 N   0  0  0  0  0  0  0  0  0  0  0  0
  151.4701  137.8615  180.7728 C   0  0  0  0  0  0  0  0  0  0  0  0
  151.7506  138.0599  182.0858 C   0  0  0  0  0  0  0  0  0  0  0  0
  152.2112  139.3036  182.5167 C   0  0  0  0  0  0  0  0  0  0  0  0
  151.5889  137.0369  183.0357 N   0  0  0  0  0  0  0  0  0  0  0  0
  150.8627  137.2354  184.1994 O   0  0  0  0  0  0  0  0  0  0  0  0
  152.1012  135.9263  182.8426 O   0  0  0  0  0  0  0  0  0  0  0  0
 13 14  1  0  0  0
 14 15  1  0  0  0
 15 16  2  0  0  0
 15  7  1  0  0  0
  7  8  2  0  0  0
  8  9  1  0  0  0
  9 10  2  0  0  0
 10 11  1  0  0  0
 11 12  2  0  0  0
 10  1  1  0  0  0
  1  2  2  0  0  0
  2  3  1  0  0  0
  3  4  2  0  0  0
  4 22  1  0  0  0
 22 23  1  0  0  0
 23 24  2  0  0  0
 24 25  1  0  0  0
 25 26  2  0  0  0
 26 27  1  0  0  0
 27 28  2  0  0  0
 27 29  1  0  0  0
 29 30  1  0  0  0
 29 31  2  0  0  0
  4  5  1  0  0  0
  5  6  2  0  0  0
  6 18  1  0  0  0
 18 19  1  0  0  0
 18 20  1  0  0  0
 18 21  1  0  0  0
 12  7  1  0  0  0
  6  1  1  0  0  0
 28 23  1  0  0  0
 14 17  1  0  0  0
M  CHG 1  29   1
M  CHG 1  30  -1
M  END
> <minimizedAffinity>
-8.03412

> <CNNscore>
0.2374667525

> <CNNaffinity>
6.0979127884

> <CNN_VS>
1.4480515718

> <CNNaffinity_variance>
0.1269520372

$$$$
[H]c1nc([H])c([N+](=O)[O-])c([H])c1Oc1c([H])c([H])c(-c2c([H])c([H])c(C(=O)N([H])C([H])([H])[H])c([H])c2[H])c(C(F)(F)F)c1[H]


 31 33  0  0  0  0  0  0  0  0999 V2000
  152.6404  139.8022  181.9992 C   0  0  0  0  0  0  0  0  0  0  0  0
  153.1791  141.1018  181.9660 C   0  0  0  0  0  0  0  0  0  0  0  0
  154.2888  141.4492  182.6983 C   0  0  0  0  0  0  0  0  0  0  0  0
  154.9104  140.5143  183.4968 C   0  0  0  0  0  0  0  0  0  0  0  0
  154.4068  139.2406  183.5476 C   0  0  0  0  0  0  0  0  0  0  0  0
  153.2695  138.8875  182.7955 C   0  0  0  0  0  0  0  0  0  0  0  0
  149.1688  138.7905  179.7264 C   0  0  0  0  0  0  0  0  0  0  0  0
  149.1352  138.8159  181.1201 C   0  0  0  0  0  0  0  0  0  0  0  0
  150.2484  139.1526  181.8074 C   0  0  0  0  0  0  0  0  0  0  0  0
  151.4584  139.4852  181.2277 C   0  0  0  0  0  0  0  0  0  0  0  0
  151.4896  139.4588  179.8573 C   0  0  0  0  0  0  0  0  0  0  0  0
  150.3553  139.1150  179.1106 C   0  0  0  0  0  0  0  0  0  0  0  0
  146.8150  137.7577  176.8528 C   0  0  0  0  0  0  0  0  0  0  0  0
  148.0135  138.1214  177.6042 N   0  0  0  0  0  0  0  0  0  0  0  0
  147.9677  138.4275  178.9795 C   0  0  0  0  0  0  0  0  0  0  0  0
  146.8657  138.3831  179.5614 O   0  0  0  0  0  0  0  0  0  0  0  0
  148.8842  138.1373  177.0609 H   0  0  0  0  0  0  0  0  0  0  0  0
  152.7880  137.4966  182.8782 C   0  0  0  0  0  0  0  0  0  0  0  0
  152.7211  136.9485  181.5877 F   0  0  0  0  0  0  0  0  0  0  0  0
  153.8188  136.7259  183.4784 F   0  0  0  0  0  0  0  0  0  0  0  0
  151.6864  137.2742  183.6205 F   0  0  0  0  0  0  0  0  0  0  0  0
  156.0350  140.8149  184.2571 O   0  0  0  0  0  0  0  0  0  0  0  0
  157.1970  141.1466  183.5885 C   0  0  0  0  0  0  0  0  0  0  0  0
  157.9755  140.1391  183.0610 C   0  0  0  0  0  0  0  0  0  0  0  0
  159.1007  140.4303  182.4117 N   0  0  0  0  0  0  0  0  0  0  0  0
  159.5223  141.6811  182.2422 C   0  0  0  0  0  0  0  0  0  0  0  0
  158.8015  142.7190  182.7375 C   0  0  0  0  0  0  0  0  0  0  0  0
  157.6143  142.4730  183.4266 C   0  0  0  0  0  0  0  0  0  0  0  0
  159.2208  144.0504  182.5746 N   0  0  0  0  0  0  0  0  0  0  0  0
  159.9695  144.6992  183.5440 O   0  0  0  0  0  0  0  0  0  0  0  0
  158.9222  144.6719  181.5462 O   0  0  0  0  0  0  0  0  0  0  0  0
 13 14  1  0  0  0
 14 15  1  0  0  0
 15 16  2  0  0  0
 15  7  1  0  0  0
  7  8  2  0  0  0
  8  9  1  0  0  0
  9 10  2  0  0  0
 10 11  1  0  0  0
 11 12  2  0  0  0
 10  1  1  0  0  0
  1  2  2  0  0  0
  2  3  1  0  0  0
  3  4  2  0  0  0
  4 22  1  0  0  0
 22 23  1  0  0  0
 23 24  2  0  0  0
 24 25  1  0  0  0
 25 26  2  0  0  0
 26 27  1  0  0  0
 27 28  2  0  0  0
 27 29  1  0  0  0
 29 30  1  0  0  0
 29 31  2  0  0  0
  4  5  1  0  0  0
  5  6  2  0  0  0
  6 18  1  0  0  0
 18 19  1  0  0  0
 18 20  1  0  0  0
 18 21  1  0  0  0
 12  7  1  0  0  0
  6  1  1  0  0  0
 28 23  1  0  0  0
 14 17  1  0  0  0
M  CHG 1  29   1
M  CHG 1  30  -1
M  END
> <minimizedAffinity>
-8.75238

> <CNNscore>
0.2039697766

> <CNNaffinity>
5.6770439148

> <CNN_VS>
1.1579453945

> <CNNaffinity_variance>
0.1651596129

$$$$
[H]c1nc([H])c([N+](=O)[O-])c([H])c1Oc1c([H])c([H])c(-c2c([H])c([H])c(C(=O)N([H])C([H])([H])[H])c([H])c2[H])c(C(F)(F)F)c1[H]


 31 33  0  0  0  0  0  0  0  0999 V2000
  156.3209  141.0787  183.3232 C   0  0  0  0  0  0  0  0  0  0  0  0
  155.6308  139.8984  183.6560 C   0  0  0  0  0  0  0  0  0  0  0  0
  154.3465  139.6606  183.2292 C   0  0  0  0  0  0  0  0  0  0  0  0
  153.6934  140.5910  182.4507 C   0  0  0  0  0  0  0  0  0  0  0  0
  154.3423  141.7495  182.1114 C   0  0  0  0  0  0  0  0  0  0  0  0
  155.6589  141.9901  182.5500 C   0  0  0  0  0  0  0  0  0  0  0  0
  160.2820  141.7998  184.7485 C   0  0  0  0  0  0  0  0  0  0  0  0
  159.1803  141.9085  185.5964 C   0  0  0  0  0  0  0  0  0  0  0  0
  157.9424  141.6610  185.1153 C   0  0  0  0  0  0  0  0  0  0  0  0
  157.6652  141.2972  183.8110 C   0  0  0  0  0  0  0  0  0  0  0  0
  158.7497  141.1916  182.9787 C   0  0  0  0  0  0  0  0  0  0  0  0
  160.0483  141.4400  183.4415 C   0  0  0  0  0  0  0  0  0  0  0  0
  163.1725  142.7660  187.1098 C   0  0  0  0  0  0  0  0  0  0  0  0
  161.8344  142.4985  186.5891 N   0  0  0  0  0  0  0  0  0  0  0  0
  161.6218  142.0660  185.2643 C   0  0  0  0  0  0  0  0  0  0  0  0
  162.6132  141.9106  184.5240 O   0  0  0  0  0  0  0  0  0  0  0  0
  161.0667  142.6476  187.2540 H   0  0  0  0  0  0  0  0  0  0  0  0
  156.3092  143.2465  182.1353 C   0  0  0  0  0  0  0  0  0  0  0  0
  157.0656  143.0196  180.9749 F   0  0  0  0  0  0  0  0  0  0  0  0
  155.2901  144.1160  181.6639 F   0  0  0  0  0  0  0  0  0  0  0  0
  156.9673  143.9370  183.0862 F   0  0  0  0  0  0  0  0  0  0  0  0
  152.3944  140.3987  181.9937 O   0  0  0  0  0  0  0  0  0  0  0  0
  151.8992  139.1096  181.9784 C   0  0  0  0  0  0  0  0  0  0  0  0
  152.6688  138.1043  181.4340 C   0  0  0  0  0  0  0  0  0  0  0  0
  152.2162  136.8526  181.4062 N   0  0  0  0  0  0  0  0  0  0  0  0
  151.0239  136.5151  181.8917 C   0  0  0  0  0  0  0  0  0  0  0  0
  150.2173  137.4581  182.4415 C   0  0  0  0  0  0  0  0  0  0  0  0
  150.6400  138.7858  182.4974 C   0  0  0  0  0  0  0  0  0  0  0  0
  148.9533  137.1324  182.9624 N   0  0  0  0  0  0  0  0  0  0  0  0
  148.0643  138.1123  183.3757 O   0  0  0  0  0  0  0  0  0  0  0  0
  148.6111  135.9465  183.0606 O   0  0  0  0  0  0  0  0  0  0  0  0
 13 14  1  0  0  0
 14 15  1  0  0  0
 15 16  2  0  0  0
 15  7  1  0  0  0
  7  8  2  0  0  0
  8  9  1  0  0  0
  9 10  2  0  0  0
 10 11  1  0  0  0
 11 12  2  0  0  0
 10  1  1  0  0  0
  1  2  2  0  0  0
  2  3  1  0  0  0
  3  4  2  0  0  0
  4 22  1  0  0  0
 22 23  1  0  0  0
 23 24  2  0  0  0
 24 25  1  0  0  0
 25 26  2  0  0  0
 26 27  1  0  0  0
 27 28  2  0  0  0
 27 29  1  0  0  0
 29 30  1  0  0  0
 29 31  2  0  0  0
  4  5  1  0  0  0
  5  6  2  0  0  0
  6 18  1  0  0  0
 18 19  1  0  0  0
 18 20  1  0  0  0
 18 21  1  0  0  0
 12  7  1  0  0  0
  6  1  1  0  0  0
 28 23  1  0  0  0
 14 17  1  0  0  0
M  CHG 1  29   1
M  CHG 1  30  -1
M  END
> <minimizedAffinity>
-8.31063

> <CNNscore>
0.1977719963

> <CNNaffinity>
6.0565180779

> <CNN_VS>
1.1978096962

> <CNNaffinity_variance>
0.1377374381

$$$$
[H]c1nc([H])c([N+](=O)[O-])c([H])c1Oc1c([H])c([H])c(-c2c([H])c([H])c(C(=O)N([H])C([H])([H])[H])c([H])c2[H])c(C(F)(F)F)c1[H]


 31 33  0  0  0  0  0  0  0  0999 V2000
  155.1580  141.4672  182.1208 C   0  0  0  0  0  0  0  0  0  0  0  0
  156.3267  141.0773  181.4410 C   0  0  0  0  0  0  0  0  0  0  0  0
  157.3854  141.9348  181.2616 C   0  0  0  0  0  0  0  0  0  0  0  0
  157.3244  143.2205  181.7530 C   0  0  0  0  0  0  0  0  0  0  0  0
  156.1978  143.6265  182.4195 C   0  0  0  0  0  0  0  0  0  0  0  0
  155.1145  142.7451  182.6022 C   0  0  0  0  0  0  0  0  0  0  0  0
  151.9491  138.6756  182.5098 C   0  0  0  0  0  0  0  0  0  0  0  0
  153.0808  138.5898  183.3199 C   0  0  0  0  0  0  0  0  0  0  0  0
  154.0716  139.4971  183.1786 C   0  0  0  0  0  0  0  0  0  0  0  0
  154.0590  140.5381  182.2693 C   0  0  0  0  0  0  0  0  0  0  0  0
  152.9458  140.6203  181.4733 C   0  0  0  0  0  0  0  0  0  0  0  0
  151.8980  139.6981  181.5910 C   0  0  0  0  0  0  0  0  0  0  0  0
  150.0715  135.3566  183.0784 C   0  0  0  0  0  0  0  0  0  0  0  0
  151.1417  136.3390  182.9278 N   0  0  0  0  0  0  0  0  0  0  0  0
  150.8755  137.6971  182.6594 C   0  0  0  0  0  0  0  0  0  0  0  0
  149.6873  138.0590  182.5494 O   0  0  0  0  0  0  0  0  0  0  0  0
  152.0940  135.9701  183.0311 H   0  0  0  0  0  0  0  0  0  0  0  0
  153.9389  143.2356  183.3443 C   0  0  0  0  0  0  0  0  0  0  0  0
  153.5931  142.3063  184.3377 F   0  0  0  0  0  0  0  0  0  0  0  0
  154.3587  144.3538  184.1126 F   0  0  0  0  0  0  0  0  0  0  0  0
  152.8917  143.6660  182.6150 F   0  0  0  0  0  0  0  0  0  0  0  0
  158.3675  144.1266  181.5979 O   0  0  0  0  0  0  0  0  0  0  0  0
  159.2470  144.2856  182.6506 C   0  0  0  0  0  0  0  0  0  0  0  0
  159.8586  145.5073  182.8319 C   0  0  0  0  0  0  0  0  0  0  0  0
  160.7108  145.6885  183.8386 N   0  0  0  0  0  0  0  0  0  0  0  0
  161.0094  144.7211  184.7023 C   0  0  0  0  0  0  0  0  0  0  0  0
  160.4413  143.4947  184.5791 C   0  0  0  0  0  0  0  0  0  0  0  0
  159.5410  143.2479  183.5431 C   0  0  0  0  0  0  0  0  0  0  0  0
  160.7367  142.4533  185.4754 N   0  0  0  0  0  0  0  0  0  0  0  0
  159.7732  141.5365  185.8656 O   0  0  0  0  0  0  0  0  0  0  0  0
  161.8803  142.3389  185.9359 O   0  0  0  0  0  0  0  0  0  0  0  0
 13 14  1  0  0  0
 14 15  1  0  0  0
 15 16  2  0  0  0
 15  7  1  0  0  0
  7  8  2  0  0  0
  8  9  1  0  0  0
  9 10  2  0  0  0
 10 11  1  0  0  0
 11 12  2  0  0  0
 10  1  1  0  0  0
  1  2  2  0  0  0
  2  3  1  0  0  0
  3  4  2  0  0  0
  4 22  1  0  0  0
 22 23  1  0  0  0
 23 24  2  0  0  0
 24 25  1  0  0  0
 25 26  2  0  0  0
 26 27  1  0  0  0
 27 28  2  0  0  0
 27 29  1  0  0  0
 29 30  1  0  0  0
 29 31  2  0  0  0
  4  5  1  0  0  0
  5  6  2  0  0  0
  6 18  1  0  0  0
 18 19  1  0  0  0
 18 20  1  0  0  0
 18 21  1  0  0  0
 12  7  1  0  0  0
  6  1  1  0  0  0
 28 23  1  0  0  0
 14 17  1  0  0  0
M  CHG 1  29   1
M  CHG 1  30  -1
M  END
> <minimizedAffinity>
-7.51885

> <CNNscore>
0.1944115609

> <CNNaffinity>
6.2384018898

> <CNN_VS>
1.2128174305

> <CNNaffinity_variance>
0.0862071291

$$$$
[H]c1nc(OC2([H])C([H])([H])C([H])([H])OC([H])([H])C2([H])[H])c([H])c([H])c1-c1nc2c([H])c([H])c(-c3nc(C([H])([H])[H])no3)c([H])c2n1[H]


 29 33  0  0  0  0  0  0  0  0999 V2000
  149.9550  138.6198  179.7474 C   0  0  0  0  0  0  0  0  0  0  0  0
  150.8942  139.5715  179.4105 C   0  0  0  0  0  0  0  0  0  0  0  0
  151.9952  139.8445  180.1793 C   0  0  0  0  0  0  0  0  0  0  0  0
  152.1395  139.1014  181.3557 C   0  0  0  0  0  0  0  0  0  0  0  0
  153.0913  139.1488  182.2808 N   0  0  0  0  0  0  0  0  0  0  0  0
  152.8150  138.2349  183.2552 C   0  0  0  0  0  0  0  0  0  0  0  0
  151.6619  137.6315  182.8882 N   0  0  0  0  0  0  0  0  0  0  0  0
  151.2342  138.1495  181.7279 C   0  0  0  0  0  0  0  0  0  0  0  0
  150.1270  137.9065  180.9113 C   0  0  0  0  0  0  0  0  0  0  0  0
  151.1796  136.8751  183.4309 H   0  0  0  0  0  0  0  0  0  0  0  0
  146.8875  138.1954  175.7602 C   0  0  0  0  0  0  0  0  0  0  0  0
  147.4823  138.1981  177.1185 C   0  0  0  0  0  0  0  0  0  0  0  0
  146.8139  137.8366  178.2267 N   0  0  0  0  0  0  0  0  0  0  0  0
  147.6150  137.9477  179.2660 O   0  0  0  0  0  0  0  0  0  0  0  0
  148.7940  138.3716  178.8819 C   0  0  0  0  0  0  0  0  0  0  0  0
  148.7113  138.5269  177.5487 N   0  0  0  0  0  0  0  0  0  0  0  0
  153.6172  137.9863  184.4332 C   0  0  0  0  0  0  0  0  0  0  0  0
  153.3498  136.9112  185.2446 C   0  0  0  0  0  0  0  0  0  0  0  0
  154.1543  136.7131  186.3726 C   0  0  0  0  0  0  0  0  0  0  0  0
  155.1907  137.5638  186.6756 C   0  0  0  0  0  0  0  0  0  0  0  0
  155.4110  138.6021  185.8484 N   0  0  0  0  0  0  0  0  0  0  0  0
  154.6533  138.8166  184.7571 C   0  0  0  0  0  0  0  0  0  0  0  0
  155.9886  137.3958  187.7649 O   0  0  0  0  0  0  0  0  0  0  0  0
  156.0386  138.2123  188.8903 C   0  0  0  0  0  0  0  0  0  0  0  0
  156.9325  137.6697  189.9820 C   0  0  0  0  0  0  0  0  0  0  0  0
  156.2284  136.6241  190.8111 C   0  0  0  0  0  0  0  0  0  0  0  0
  155.1041  137.0975  191.4394 O   0  0  0  0  0  0  0  0  0  0  0  0
  154.6466  138.3094  190.9616 C   0  0  0  0  0  0  0  0  0  0  0  0
  154.6650  138.3904  189.4494 C   0  0  0  0  0  0  0  0  0  0  0  0
 11 12  1  0  0  0
 12 13  2  0  0  0
 13 14  1  0  0  0
 14 15  1  0  0  0
 15 16  2  0  0  0
 15  1  1  0  0  0
  1  2  2  0  0  0
  2  3  1  0  0  0
  3  4  2  0  0  0
  4  5  1  0  0  0
  5  6  2  0  0  0
  6  7  1  0  0  0
  7  8  1  0  0  0
  8  9  2  0  0  0
  6 17  1  0  0  0
 17 18  2  0  0  0
 18 19  1  0  0  0
 19 20  2  0  0  0
 20 23  1  0  0  0
 23 24  1  0  0  0
 24 25  1  0  0  0
 25 26  1  0  0  0
 26 27  1  0  0  0
 27 28  1  0  0  0
 28 29  1  0  0  0
 20 21  1  0  0  0
 21 22  2  0  0  0
 16 12  1  0  0  0
  9  1  1  0  0  0
 22 17  1  0  0  0
  8  4  1  0  0  0
 29 24  1  0  0  0
  7 10  1  0  0  0
M  END
> <minimizedAffinity>
-7.42107

> <CNNscore>
0.5938742757

> <CNNaffinity>
5.5905299187

> <CNN_VS>
3.3200719357

> <CNNaffinity_variance>
0.1285616010

$$$$
[H]c1nc(OC2([H])C([H])([H])C([H])([H])OC([H])([H])C2([H])[H])c([H])c([H])c1-c1nc2c([H])c([H])c(-c3nc(C([H])([H])[H])no3)c([H])c2n1[H]


 29 33  0  0  0  0  0  0  0  0999 V2000
  152.3627  139.4355  181.7719 C   0  0  0  0  0  0  0  0  0  0  0  0
  153.3282  140.4179  181.8351 C   0  0  0  0  0  0  0  0  0  0  0  0
  154.2003  140.5469  182.8842 C   0  0  0  0  0  0  0  0  0  0  0  0
  154.0745  139.6185  183.9230 C   0  0  0  0  0  0  0  0  0  0  0  0
  154.7701  139.5011  185.0483 N   0  0  0  0  0  0  0  0  0  0  0  0
  154.2906  138.4427  185.7632 C   0  0  0  0  0  0  0  0  0  0  0  0
  153.2795  137.9225  185.0316 N   0  0  0  0  0  0  0  0  0  0  0  0
  153.1331  138.6297  183.9020 C   0  0  0  0  0  0  0  0  0  0  0  0
  152.2659  138.5382  182.8105 C   0  0  0  0  0  0  0  0  0  0  0  0
  152.7011  137.0931  185.3090 H   0  0  0  0  0  0  0  0  0  0  0  0
  148.5507  138.2328  178.6883 C   0  0  0  0  0  0  0  0  0  0  0  0
  149.7767  138.7999  179.2997 C   0  0  0  0  0  0  0  0  0  0  0  0
  150.5910  139.6662  178.6735 N   0  0  0  0  0  0  0  0  0  0  0  0
  151.5849  139.9791  179.4788 O   0  0  0  0  0  0  0  0  0  0  0  0
  151.4554  139.3476  180.6197 C   0  0  0  0  0  0  0  0  0  0  0  0
  150.3328  138.6157  180.5083 N   0  0  0  0  0  0  0  0  0  0  0  0
  154.7880  137.9936  187.0453 C   0  0  0  0  0  0  0  0  0  0  0  0
  154.1608  138.3704  188.2074 C   0  0  0  0  0  0  0  0  0  0  0  0
  154.6800  137.9099  189.4227 C   0  0  0  0  0  0  0  0  0  0  0  0
  155.7895  137.0998  189.4704 C   0  0  0  0  0  0  0  0  0  0  0  0
  156.3672  136.7594  188.3036 N   0  0  0  0  0  0  0  0  0  0  0  0
  155.8893  137.1876  187.1207 C   0  0  0  0  0  0  0  0  0  0  0  0
  156.3159  136.6375  190.6369 O   0  0  0  0  0  0  0  0  0  0  0  0
  156.0414  135.4162  191.2442 C   0  0  0  0  0  0  0  0  0  0  0  0
  157.2542  134.5212  191.3596 C   0  0  0  0  0  0  0  0  0  0  0  0
  157.5274  133.7835  190.0722 C   0  0  0  0  0  0  0  0  0  0  0  0
  156.4914  132.9728  189.6818 O   0  0  0  0  0  0  0  0  0  0  0  0
  155.2976  133.2133  190.3324 C   0  0  0  0  0  0  0  0  0  0  0  0
  154.9901  134.6898  190.4707 C   0  0  0  0  0  0  0  0  0  0  0  0
 11 12  1  0  0  0
 12 13  2  0  0  0
 13 14  1  0  0  0
 14 15  1  0  0  0
 15 16  2  0  0  0
 15  1  1  0  0  0
  1  2  2  0  0  0
  2  3  1  0  0  0
  3  4  2  0  0  0
  4  5  1  0  0  0
  5  6  2  0  0  0
  6  7  1  0  0  0
  7  8  1  0  0  0
  8  9  2  0  0  0
  6 17  1  0  0  0
 17 18  2  0  0  0
 18 19  1  0  0  0
 19 20  2  0  0  0
 20 23  1  0  0  0
 23 24  1  0  0  0
 24 25  1  0  0  0
 25 26  1  0  0  0
 26 27  1  0  0  0
 27 28  1  0  0  0
 28 29  1  0  0  0
 20 21  1  0  0  0
 21 22  2  0  0  0
 16 12  1  0  0  0
  9  1  1  0  0  0
 22 17  1  0  0  0
  8  4  1  0  0  0
 29 24  1  0  0  0
  7 10  1  0  0  0
M  END
> <minimizedAffinity>
-7.13224

> <CNNscore>
0.4589623511

> <CNNaffinity>
5.3515038490

> <CNN_VS>
2.4561388493

> <CNNaffinity_variance>
0.1618407965

$$$$
[H]c1nc(OC2([H])C([H])([H])C([H])([H])OC([H])([H])C2([H])[H])c([H])c([H])c1-c1nc2c([H])c([H])c(-c3nc(C([H])([H])[H])no3)c([H])c2n1[H]


 29 33  0  0  0  0  0  0  0  0999 V2000
  151.8483  138.7806  181.9163 C   0  0  0  0  0  0  0  0  0  0  0  0
  153.0164  139.5048  182.0275 C   0  0  0  0  0  0  0  0  0  0  0  0
  153.8228  139.4634  183.1347 C   0  0  0  0  0  0  0  0  0  0  0  0
  153.4081  138.6349  184.1828 C   0  0  0  0  0  0  0  0  0  0  0  0
  153.9790  138.3999  185.3587 N   0  0  0  0  0  0  0  0  0  0  0  0
  153.2118  137.5170  186.0608 C   0  0  0  0  0  0  0  0  0  0  0  0
  152.1554  137.2250  185.2691 N   0  0  0  0  0  0  0  0  0  0  0  0
  152.2590  137.9004  184.1155 C   0  0  0  0  0  0  0  0  0  0  0  0
  151.4693  137.9754  182.9656 C   0  0  0  0  0  0  0  0  0  0  0  0
  151.3767  136.5702  185.5224 H   0  0  0  0  0  0  0  0  0  0  0  0
  148.1964  138.1594  178.4864 C   0  0  0  0  0  0  0  0  0  0  0  0
  149.4123  138.5713  179.2283 C   0  0  0  0  0  0  0  0  0  0  0  0
  150.3322  139.4209  178.7409 N   0  0  0  0  0  0  0  0  0  0  0  0
  151.2842  139.5822  179.6364 O   0  0  0  0  0  0  0  0  0  0  0  0
  151.0246  138.8661  180.7028 C   0  0  0  0  0  0  0  0  0  0  0  0
  149.8626  138.2387  180.4492 N   0  0  0  0  0  0  0  0  0  0  0  0
  153.5004  137.0140  187.3862 C   0  0  0  0  0  0  0  0  0  0  0  0
  154.4747  137.5990  188.1571 C   0  0  0  0  0  0  0  0  0  0  0  0
  154.7165  137.0761  189.4326 C   0  0  0  0  0  0  0  0  0  0  0  0
  154.0058  136.0041  189.9175 C   0  0  0  0  0  0  0  0  0  0  0  0
  153.0620  135.4671  189.1227 N   0  0  0  0  0  0  0  0  0  0  0  0
  152.8083  135.9495  187.8922 C   0  0  0  0  0  0  0  0  0  0  0  0
  154.2195  135.4752  191.1530 O   0  0  0  0  0  0  0  0  0  0  0  0
  153.7715  135.9913  192.3649 C   0  0  0  0  0  0  0  0  0  0  0  0
  152.9816  134.9949  193.1824 C   0  0  0  0  0  0  0  0  0  0  0  0
  151.5465  134.9106  192.7243 C   0  0  0  0  0  0  0  0  0  0  0  0
  150.8750  136.1031  192.8243 O   0  0  0  0  0  0  0  0  0  0  0  0
  151.6860  137.2051  193.0087 C   0  0  0  0  0  0  0  0  0  0  0  0
  152.9123  137.1884  192.1201 C   0  0  0  0  0  0  0  0  0  0  0  0
 11 12  1  0  0  0
 12 13  2  0  0  0
 13 14  1  0  0  0
 14 15  1  0  0  0
 15 16  2  0  0  0
 15  1  1  0  0  0
  1  2  2  0  0  0
  2  3  1  0  0  0
  3  4  2  0  0  0
  4  5  1  0  0  0
  5  6  2  0  0  0
  6  7  1  0  0  0
  7  8  1  0  0  0
  8  9  2  0  0  0
  6 17  1  0  0  0
 17 18  2  0  0  0
 18 19  1  0  0  0
 19 20  2  0  0  0
 20 23  1  0  0  0
 23 24  1  0  0  0
 24 25  1  0  0  0
 25 26  1  0  0  0
 26 27  1  0  0  0
 27 28  1  0  0  0
 28 29  1  0  0  0
 20 21  1  0  0  0
 21 22  2  0  0  0
 16 12  1  0  0  0
  9  1  1  0  0  0
 22 17  1  0  0  0
  8  4  1  0  0  0
 29 24  1  0  0  0
  7 10  1  0  0  0
M  END
> <minimizedAffinity>
-6.25703

> <CNNscore>
0.3279920220

> <CNNaffinity>
5.3206315041

> <CNN_VS>
1.7451246977

> <CNNaffinity_variance>
0.1059737206

$$$$
[H]c1nc(OC2([H])C([H])([H])C([H])([H])OC([H])([H])C2([H])[H])c([H])c([H])c1-c1nc2c([H])c([H])c(-c3nc(C([H])([H])[H])no3)c([H])c2n1[H]


 29 33  0  0  0  0  0  0  0  0999 V2000
  150.5208  138.7286  181.0813 C   0  0  0  0  0  0  0  0  0  0  0  0
  151.4338  139.7423  180.8807 C   0  0  0  0  0  0  0  0  0  0  0  0
  152.5613  139.8987  181.6436 C   0  0  0  0  0  0  0  0  0  0  0  0
  152.7621  138.9653  182.6660 C   0  0  0  0  0  0  0  0  0  0  0  0
  153.7497  138.8695  183.5489 N   0  0  0  0  0  0  0  0  0  0  0  0
  153.5242  137.7949  184.3586 C   0  0  0  0  0  0  0  0  0  0  0  0
  152.3649  137.2424  183.9353 N   0  0  0  0  0  0  0  0  0  0  0  0
  151.8844  137.9459  182.9000 C   0  0  0  0  0  0  0  0  0  0  0  0
  150.7484  137.8273  182.0957 C   0  0  0  0  0  0  0  0  0  0  0  0
  151.9143  136.3940  184.3554 H   0  0  0  0  0  0  0  0  0  0  0  0
  147.3993  137.8637  177.2090 C   0  0  0  0  0  0  0  0  0  0  0  0
  147.9953  138.2233  178.5182 C   0  0  0  0  0  0  0  0  0  0  0  0
  147.2836  138.6832  179.5611 N   0  0  0  0  0  0  0  0  0  0  0  0
  148.0989  138.9084  180.5705 O   0  0  0  0  0  0  0  0  0  0  0  0
  149.3291  138.6123  180.2299 C   0  0  0  0  0  0  0  0  0  0  0  0
  149.2645  138.1870  178.9558 N   0  0  0  0  0  0  0  0  0  0  0  0
  154.3762  137.3608  185.4442 C   0  0  0  0  0  0  0  0  0  0  0  0
  155.1940  138.2557  186.0893 C   0  0  0  0  0  0  0  0  0  0  0  0
  155.9995  137.7871  187.1335 C   0  0  0  0  0  0  0  0  0  0  0  0
  155.9850  136.4672  187.5169 C   0  0  0  0  0  0  0  0  0  0  0  0
  155.1660  135.6310  186.8528 N   0  0  0  0  0  0  0  0  0  0  0  0
  154.3808  136.0542  185.8451 C   0  0  0  0  0  0  0  0  0  0  0  0
  156.7570  135.9841  188.5280 O   0  0  0  0  0  0  0  0  0  0  0  0
  156.7082  134.7034  189.0695 C   0  0  0  0  0  0  0  0  0  0  0  0
  155.9047  134.6262  190.3477 C   0  0  0  0  0  0  0  0  0  0  0  0
  156.7140  135.0661  191.5426 C   0  0  0  0  0  0  0  0  0  0  0  0
  157.8340  134.3011  191.7498 O   0  0  0  0  0  0  0  0  0  0  0  0
  158.1886  133.5010  190.6819 C   0  0  0  0  0  0  0  0  0  0  0  0
  158.0926  134.2187  189.3518 C   0  0  0  0  0  0  0  0  0  0  0  0
 11 12  1  0  0  0
 12 13  2  0  0  0
 13 14  1  0  0  0
 14 15  1  0  0  0
 15 16  2  0  0  0
 15  1  1  0  0  0
  1  2  2  0  0  0
  2  3  1  0  0  0
  3  4  2  0  0  0
  4  5  1  0  0  0
  5  6  2  0  0  0
  6  7  1  0  0  0
  7  8  1  0  0  0
  8  9  2  0  0  0
  6 17  1  0  0  0
 17 18  2  0  0  0
 18 19  1  0  0  0
 19 20  2  0  0  0
 20 23  1  0  0  0
 23 24  1  0  0  0
 24 25  1  0  0  0
 25 26  1  0  0  0
 26 27  1  0  0  0
 27 28  1  0  0  0
 28 29  1  0  0  0
 20 21  1  0  0  0
 21 22  2  0  0  0
 16 12  1  0  0  0
  9  1  1  0  0  0
 22 17  1  0  0  0
  8  4  1  0  0  0
 29 24  1  0  0  0
  7 10  1  0  0  0
M  END
> <minimizedAffinity>
-6.62340

> <CNNscore>
0.3167662024

> <CNNaffinity>
5.1265192032

> <CNN_VS>
1.6239080429

> <CNNaffinity_variance>
0.0978385583

$$$$
[H]c1nc(OC2([H])C([H])([H])C([H])([H])OC([H])([H])C2([H])[H])c([H])c([H])c1-c1nc2c([H])c([H])c(-c3nc(C([H])([H])[H])no3)c([H])c2n1[H]


 29 33  0  0  0  0  0  0  0  0999 V2000
  159.6911  142.2958  184.2125 C   0  0  0  0  0  0  0  0  0  0  0  0
  159.4008  143.2662  183.2768 C   0  0  0  0  0  0  0  0  0  0  0  0
  158.2265  143.3011  182.5713 C   0  0  0  0  0  0  0  0  0  0  0  0
  157.3017  142.2867  182.8407 C   0  0  0  0  0  0  0  0  0  0  0  0
  156.0999  142.0702  182.3185 N   0  0  0  0  0  0  0  0  0  0  0  0
  155.5580  140.9554  182.8883 C   0  0  0  0  0  0  0  0  0  0  0  0
  156.4738  140.5036  183.7746 N   0  0  0  0  0  0  0  0  0  0  0  0
  157.5475  141.3064  183.7587 C   0  0  0  0  0  0  0  0  0  0  0  0
  158.7595  141.3123  184.4535 C   0  0  0  0  0  0  0  0  0  0  0  0
  156.3579  139.6551  184.3795 H   0  0  0  0  0  0  0  0  0  0  0  0
  163.2215  142.7045  187.7980 C   0  0  0  0  0  0  0  0  0  0  0  0
  162.4836  142.4984  186.5286 C   0  0  0  0  0  0  0  0  0  0  0  0
  163.0726  142.1584  185.3696 N   0  0  0  0  0  0  0  0  0  0  0  0
  162.1508  142.0521  184.4352 O   0  0  0  0  0  0  0  0  0  0  0  0
  160.9686  142.3108  184.9379 C   0  0  0  0  0  0  0  0  0  0  0  0
  161.1755  142.5878  186.2375 N   0  0  0  0  0  0  0  0  0  0  0  0
  154.2596  140.3955  182.5822 C   0  0  0  0  0  0  0  0  0  0  0  0
  153.4235  141.0206  181.6900 C   0  0  0  0  0  0  0  0  0  0  0  0
  152.1777  140.4397  181.4271 C   0  0  0  0  0  0  0  0  0  0  0  0
  151.7846  139.2726  182.0378 C   0  0  0  0  0  0  0  0  0  0  0  0
  152.6406  138.6998  182.9038 N   0  0  0  0  0  0  0  0  0  0  0  0
  153.8446  139.2363  183.1754 C   0  0  0  0  0  0  0  0  0  0  0  0
  150.5800  138.6857  181.8013 O   0  0  0  0  0  0  0  0  0  0  0  0
  149.5563  139.1856  181.0026 C   0  0  0  0  0  0  0  0  0  0  0  0
  148.2139  139.2075  181.6973 C   0  0  0  0  0  0  0  0  0  0  0  0
  147.5428  137.8569  181.6567 C   0  0  0  0  0  0  0  0  0  0  0  0
  147.3049  137.4081  180.3820 O   0  0  0  0  0  0  0  0  0  0  0  0
  147.9887  138.0909  179.3959 C   0  0  0  0  0  0  0  0  0  0  0  0
  149.4328  138.3629  179.7620 C   0  0  0  0  0  0  0  0  0  0  0  0
 11 12  1  0  0  0
 12 13  2  0  0  0
 13 14  1  0  0  0
 14 15  1  0  0  0
 15 16  2  0  0  0
 15  1  1  0  0  0
  1  2  2  0  0  0
  2  3  1  0  0  0
  3  4  2  0  0  0
  4  5  1  0  0  0
  5  6  2  0  0  0
  6  7  1  0  0  0
  7  8  1  0  0  0
  8  9  2  0  0  0
  6 17  1  0  0  0
 17 18  2  0  0  0
 18 19  1  0  0  0
 19 20  2  0  0  0
 20 23  1  0  0  0
 23 24  1  0  0  0
 24 25  1  0  0  0
 25 26  1  0  0  0
 26 27  1  0  0  0
 27 28  1  0  0  0
 28 29  1  0  0  0
 20 21  1  0  0  0
 21 22  2  0  0  0
 16 12  1  0  0  0
  9  1  1  0  0  0
 22 17  1  0  0  0
  8  4  1  0  0  0
 29 24  1  0  0  0
  7 10  1  0  0  0
M  END
> <minimizedAffinity>
-9.22751

> <CNNscore>
0.3131691217

> <CNNaffinity>
6.2879133224

> <CNN_VS>
1.9691803455

> <CNNaffinity_variance>
0.0930544659

$$$$
[H]c1nc(OC2([H])C([H])([H])C([H])([H])OC([H])([H])C2([H])[H])c([H])c([H])c1-c1nc2c([H])c([H])c(-c3nc(C([H])([H])[H])no3)c([H])c2n1[H]


 29 33  0  0  0  0  0  0  0  0999 V2000
  150.4084  138.6847  181.1407 C   0  0  0  0  0  0  0  0  0  0  0  0
  150.6437  137.7764  182.1510 C   0  0  0  0  0  0  0  0  0  0  0  0
  151.7587  137.8113  182.9470 C   0  0  0  0  0  0  0  0  0  0  0  0
  152.6803  138.8324  182.6923 C   0  0  0  0  0  0  0  0  0  0  0  0
  153.8319  139.1087  183.2934 N   0  0  0  0  0  0  0  0  0  0  0  0
  154.3937  140.2032  182.7039 C   0  0  0  0  0  0  0  0  0  0  0  0
  153.5419  140.5809  181.7240 N   0  0  0  0  0  0  0  0  0  0  0  0
  152.4876  139.7529  181.7024 C   0  0  0  0  0  0  0  0  0  0  0  0
  151.3351  139.6767  180.9165 C   0  0  0  0  0  0  0  0  0  0  0  0
  153.6876  141.3967  181.0817 H   0  0  0  0  0  0  0  0  0  0  0  0
  147.1617  137.8401  177.3681 C   0  0  0  0  0  0  0  0  0  0  0  0
  147.8036  138.2140  178.6513 C   0  0  0  0  0  0  0  0  0  0  0  0
  147.1381  138.7400  179.6934 N   0  0  0  0  0  0  0  0  0  0  0  0
  147.9860  138.9599  180.6768 O   0  0  0  0  0  0  0  0  0  0  0  0
  149.1932  138.5962  180.3197 C   0  0  0  0  0  0  0  0  0  0  0  0
  149.0797  138.1332  179.0622 N   0  0  0  0  0  0  0  0  0  0  0  0
  155.6515  140.8126  183.0775 C   0  0  0  0  0  0  0  0  0  0  0  0
  156.0396  142.0072  182.5224 C   0  0  0  0  0  0  0  0  0  0  0  0
  157.2651  142.5565  182.9163 C   0  0  0  0  0  0  0  0  0  0  0  0
  158.0727  141.9292  183.8349 C   0  0  0  0  0  0  0  0  0  0  0  0
  157.6467  140.7609  184.3490 N   0  0  0  0  0  0  0  0  0  0  0  0
  156.4730  140.2099  183.9885 C   0  0  0  0  0  0  0  0  0  0  0  0
  159.2685  142.4398  184.2361 O   0  0  0  0  0  0  0  0  0  0  0  0
  160.1824  141.8357  185.0938 C   0  0  0  0  0  0  0  0  0  0  0  0
  159.9082  142.1187  186.5532 C   0  0  0  0  0  0  0  0  0  0  0  0
  160.4513  143.4624  186.9724 C   0  0  0  0  0  0  0  0  0  0  0  0
  161.8096  143.5720  186.8118 O   0  0  0  0  0  0  0  0  0  0  0  0
  162.3750  142.5925  186.0198 C   0  0  0  0  0  0  0  0  0  0  0  0
  161.5645  142.3031  184.7736 C   0  0  0  0  0  0  0  0  0  0  0  0
 11 12  1  0  0  0
 12 13  2  0  0  0
 13 14  1  0  0  0
 14 15  1  0  0  0
 15 16  2  0  0  0
 15  1  1  0  0  0
  1  2  2  0  0  0
  2  3  1  0  0  0
  3  4  2  0  0  0
  4  5  1  0  0  0
  5  6  2  0  0  0
  6  7  1  0  0  0
  7  8  1  0  0  0
  8  9  2  0  0  0
  6 17  1  0  0  0
 17 18  2  0  0  0
 18 19  1  0  0  0
 19 20  2  0  0  0
 20 23  1  0  0  0
 23 24  1  0  0  0
 24 25  1  0  0  0
 25 26  1  0  0  0
 26 27  1  0  0  0
 27 28  1  0  0  0
 28 29  1  0  0  0
 20 21  1  0  0  0
 21 22  2  0  0  0
 16 12  1  0  0  0
  9  1  1  0  0  0
 22 17  1  0  0  0
  8  4  1  0  0  0
 29 24  1  0  0  0
  7 10  1  0  0  0
M  END
> <minimizedAffinity>
-8.73836

> <CNNscore>
0.2969125211

> <CNNaffinity>
5.7879104614

> <CNN_VS>
1.7185031176

> <CNNaffinity_variance>
0.0120646805

$$$$
[H]c1nc(OC2([H])C([H])([H])C([H])([H])OC([H])([H])C2([H])[H])c([H])c([H])c1-c1nc2c([H])c([H])c(-c3nc(C([H])([H])[H])no3)c([H])c2n1[H]


 29 33  0  0  0  0  0  0  0  0999 V2000
  152.8717  139.2289  182.2059 C   0  0  0  0  0  0  0  0  0  0  0  0
  153.6763  140.2808  182.5900 C   0  0  0  0  0  0  0  0  0  0  0  0
  154.4798  140.2450  183.6994 C   0  0  0  0  0  0  0  0  0  0  0  0
  154.4560  139.0674  184.4542 C   0  0  0  0  0  0  0  0  0  0  0  0
  155.1193  138.7525  185.5609 N   0  0  0  0  0  0  0  0  0  0  0  0
  154.7774  137.4885  185.9438 C   0  0  0  0  0  0  0  0  0  0  0  0
  153.8833  137.0481  185.0301 N   0  0  0  0  0  0  0  0  0  0  0  0
  153.6747  138.0016  184.1109 C   0  0  0  0  0  0  0  0  0  0  0  0
  152.8719  138.0851  182.9707 C   0  0  0  0  0  0  0  0  0  0  0  0
  153.4257  136.1049  185.0423 H   0  0  0  0  0  0  0  0  0  0  0  0
  149.1692  138.6456  178.8240 C   0  0  0  0  0  0  0  0  0  0  0  0
  150.3969  139.0480  179.5516 C   0  0  0  0  0  0  0  0  0  0  0  0
  151.3125  139.8984  179.0575 N   0  0  0  0  0  0  0  0  0  0  0  0
  152.2777  140.0498  179.9405 O   0  0  0  0  0  0  0  0  0  0  0  0
  152.0310  139.3264  181.0050 C   0  0  0  0  0  0  0  0  0  0  0  0
  150.8634  138.7046  180.7633 N   0  0  0  0  0  0  0  0  0  0  0  0
  155.2887  136.7887  187.1022 C   0  0  0  0  0  0  0  0  0  0  0  0
  156.0241  137.4553  188.0511 C   0  0  0  0  0  0  0  0  0  0  0  0
  156.4966  136.7343  189.1537 C   0  0  0  0  0  0  0  0  0  0  0  0
  156.2401  135.3916  189.2990 C   0  0  0  0  0  0  0  0  0  0  0  0
  155.5149  134.7853  188.3413 N   0  0  0  0  0  0  0  0  0  0  0  0
  155.0480  135.4539  187.2708 C   0  0  0  0  0  0  0  0  0  0  0  0
  156.6866  134.6658  190.3599 O   0  0  0  0  0  0  0  0  0  0  0  0
  157.9715  134.1629  190.5389 C   0  0  0  0  0  0  0  0  0  0  0  0
  158.6390  133.7566  189.2448 C   0  0  0  0  0  0  0  0  0  0  0  0
  158.1987  132.3848  188.7970 C   0  0  0  0  0  0  0  0  0  0  0  0
  158.4936  131.3982  189.7039 O   0  0  0  0  0  0  0  0  0  0  0  0
  158.8318  131.8568  190.9616 C   0  0  0  0  0  0  0  0  0  0  0  0
  157.9298  132.9742  191.4425 C   0  0  0  0  0  0  0  0  0  0  0  0
 11 12  1  0  0  0
 12 13  2  0  0  0
 13 14  1  0  0  0
 14 15  1  0  0  0
 15 16  2  0  0  0
 15  1  1  0  0  0
  1  2  2  0  0  0
  2  3  1  0  0  0
  3  4  2  0  0  0
  4  5  1  0  0  0
  5  6  2  0  0  0
  6  7  1  0  0  0
  7  8  1  0  0  0
  8  9  2  0  0  0
  6 17  1  0  0  0
 17 18  2  0  0  0
 18 19  1  0  0  0
 19 20  2  0  0  0
 20 23  1  0  0  0
 23 24  1  0  0  0
 24 25  1  0  0  0
 25 26  1  0  0  0
 26 27  1  0  0  0
 27 28  1  0  0  0
 28 29  1  0  0  0
 20 21  1  0  0  0
 21 22  2  0  0  0
 16 12  1  0  0  0
  9  1  1  0  0  0
 22 17  1  0  0  0
  8  4  1  0  0  0
 29 24  1  0  0  0
  7 10  1  0  0  0
M  END
> <minimizedAffinity>
-6.96121

> <CNNscore>
0.2762856483

> <CNNaffinity>
5.2212362289

> <CNN_VS>
1.4425526857

> <CNNaffinity_variance>
0.0868790895

$$$$
[H]c1nc(OC2([H])C([H])([H])C([H])([H])OC([H])([H])C2([H])[H])c([H])c([H])c1-c1nc2c([H])c([H])c(-c3nc(C([H])([H])[H])no3)c([H])c2n1[H]


 29 33  0  0  0  0  0  0  0  0999 V2000
  157.4851  140.9976  184.3547 C   0  0  0  0  0  0  0  0  0  0  0  0
  157.1069  139.9060  185.1075 C   0  0  0  0  0  0  0  0  0  0  0  0
  155.9597  139.1940  184.8735 C   0  0  0  0  0  0  0  0  0  0  0  0
  155.1588  139.6254  183.8108 C   0  0  0  0  0  0  0  0  0  0  0  0
  154.0094  139.1370  183.3586 N   0  0  0  0  0  0  0  0  0  0  0  0
  153.5913  139.8852  182.2972 C   0  0  0  0  0  0  0  0  0  0  0  0
  154.5278  140.8446  182.1218 N   0  0  0  0  0  0  0  0  0  0  0  0
  155.4947  140.7009  183.0395 C   0  0  0  0  0  0  0  0  0  0  0  0
  156.6746  141.3956  183.3166 C   0  0  0  0  0  0  0  0  0  0  0  0
  154.4984  141.5855  181.3806 H   0  0  0  0  0  0  0  0  0  0  0  0
  161.5365  142.9117  186.6805 C   0  0  0  0  0  0  0  0  0  0  0  0
  160.4868  142.5402  185.7014 C   0  0  0  0  0  0  0  0  0  0  0  0
  160.4772  142.9559  184.4236 N   0  0  0  0  0  0  0  0  0  0  0  0
  159.4200  142.4560  183.8180 O   0  0  0  0  0  0  0  0  0  0  0  0
  158.7280  141.7216  184.6541 C   0  0  0  0  0  0  0  0  0  0  0  0
  159.3905  141.7740  185.8231 N   0  0  0  0  0  0  0  0  0  0  0  0
  152.3818  139.6679  181.5338 C   0  0  0  0  0  0  0  0  0  0  0  0
  152.3500  139.9343  180.1871 C   0  0  0  0  0  0  0  0  0  0  0  0
  151.1563  139.7077  179.4924 C   0  0  0  0  0  0  0  0  0  0  0  0
  150.0341  139.2305  180.1267 C   0  0  0  0  0  0  0  0  0  0  0  0
  150.1175  138.9855  181.4473 N   0  0  0  0  0  0  0  0  0  0  0  0
  151.2522  139.1942  182.1402 C   0  0  0  0  0  0  0  0  0  0  0  0
  148.8607  139.0011  179.4770 O   0  0  0  0  0  0  0  0  0  0  0  0
  148.2733  137.7626  179.2383 C   0  0  0  0  0  0  0  0  0  0  0  0
  146.8575  137.6634  179.7589 C   0  0  0  0  0  0  0  0  0  0  0  0
  146.8266  137.3578  181.2360 C   0  0  0  0  0  0  0  0  0  0  0  0
  147.4344  136.1701  181.5564 O   0  0  0  0  0  0  0  0  0  0  0  0
  148.2252  135.6414  180.5557 C   0  0  0  0  0  0  0  0  0  0  0  0
  149.0872  136.6838  179.8746 C   0  0  0  0  0  0  0  0  0  0  0  0
 11 12  1  0  0  0
 12 13  2  0  0  0
 13 14  1  0  0  0
 14 15  1  0  0  0
 15 16  2  0  0  0
 15  1  1  0  0  0
  1  2  2  0  0  0
  2  3  1  0  0  0
  3  4  2  0  0  0
  4  5  1  0  0  0
  5  6  2  0  0  0
  6  7  1  0  0  0
  7  8  1  0  0  0
  8  9  2  0  0  0
  6 17  1  0  0  0
 17 18  2  0  0  0
 18 19  1  0  0  0
 19 20  2  0  0  0
 20 23  1  0  0  0
 23 24  1  0  0  0
 24 25  1  0  0  0
 25 26  1  0  0  0
 26 27  1  0  0  0
 27 28  1  0  0  0
 28 29  1  0  0  0
 20 21  1  0  0  0
 21 22  2  0  0  0
 16 12  1  0  0  0
  9  1  1  0  0  0
 22 17  1  0  0  0
  8  4  1  0  0  0
 29 24  1  0  0  0
  7 10  1  0  0  0
M  END
> <minimizedAffinity>
-8.61364

> <CNNscore>
0.2711983621

> <CNNaffinity>
5.6914081573

> <CNN_VS>
1.5435005426

> <CNNaffinity_variance>
0.0371531472

$$$$
[H]c1nc(OC2([H])C([H])([H])C([H])([H])OC([H])([H])C2([H])[H])c([H])c([H])c1-c1nc2c([H])c([H])c(-c3nc(C([H])([H])[H])no3)c([H])c2n1[H]


 29 33  0  0  0  0  0  0  0  0999 V2000
  156.2540  140.0124  183.5235 C   0  0  0  0  0  0  0  0  0  0  0  0
  154.8979  140.0029  183.2740 C   0  0  0  0  0  0  0  0  0  0  0  0
  153.9761  139.5016  184.1554 C   0  0  0  0  0  0  0  0  0  0  0  0
  154.4726  138.9829  185.3559 C   0  0  0  0  0  0  0  0  0  0  0  0
  153.8252  138.4398  186.3806 N   0  0  0  0  0  0  0  0  0  0  0  0
  154.7267  138.0739  187.3369 C   0  0  0  0  0  0  0  0  0  0  0  0
  155.9436  138.4144  186.8559 N   0  0  0  0  0  0  0  0  0  0  0  0
  155.8072  138.9721  185.6443 C   0  0  0  0  0  0  0  0  0  0  0  0
  156.7091  139.4944  184.7142 C   0  0  0  0  0  0  0  0  0  0  0  0
  156.8522  138.2636  187.3570 H   0  0  0  0  0  0  0  0  0  0  0  0
  158.2651  142.2188  179.4524 C   0  0  0  0  0  0  0  0  0  0  0  0
  158.0382  141.5332  180.7474 C   0  0  0  0  0  0  0  0  0  0  0  0
  159.0276  141.1433  181.5689 N   0  0  0  0  0  0  0  0  0  0  0  0
  158.5018  140.5680  182.6304 O   0  0  0  0  0  0  0  0  0  0  0  0
  157.1945  140.5640  182.5389 C   0  0  0  0  0  0  0  0  0  0  0  0
  156.9071  141.1633  181.3699 N   0  0  0  0  0  0  0  0  0  0  0  0
  154.4097  137.4485  188.6024 C   0  0  0  0  0  0  0  0  0  0  0  0
  154.5777  138.1341  189.7803 C   0  0  0  0  0  0  0  0  0  0  0  0
  154.2570  137.4858  190.9785 C   0  0  0  0  0  0  0  0  0  0  0  0
  153.7844  136.1951  190.9942 C   0  0  0  0  0  0  0  0  0  0  0  0
  153.6378  135.5673  189.8130 N   0  0  0  0  0  0  0  0  0  0  0  0
  153.9383  136.1664  188.6459 C   0  0  0  0  0  0  0  0  0  0  0  0
  153.4648  135.5404  192.1435 O   0  0  0  0  0  0  0  0  0  0  0  0
  152.6411  136.0078  193.1627 C   0  0  0  0  0  0  0  0  0  0  0  0
  152.5556  135.0645  194.3408 C   0  0  0  0  0  0  0  0  0  0  0  0
  151.5661  133.9525  194.0943 C   0  0  0  0  0  0  0  0  0  0  0  0
  150.2890  134.4028  193.8734 O   0  0  0  0  0  0  0  0  0  0  0  0
  150.1954  135.7528  193.5996 C   0  0  0  0  0  0  0  0  0  0  0  0
  151.2612  136.2331  192.6369 C   0  0  0  0  0  0  0  0  0  0  0  0
 11 12  1  0  0  0
 12 13  2  0  0  0
 13 14  1  0  0  0
 14 15  1  0  0  0
 15 16  2  0  0  0
 15  1  1  0  0  0
  1  2  2  0  0  0
  2  3  1  0  0  0
  3  4  2  0  0  0
  4  5  1  0  0  0
  5  6  2  0  0  0
  6  7  1  0  0  0
  7  8  1  0  0  0
  8  9  2  0  0  0
  6 17  1  0  0  0
 17 18  2  0  0  0
 18 19  1  0  0  0
 19 20  2  0  0  0
 20 23  1  0  0  0
 23 24  1  0  0  0
 24 25  1  0  0  0
 25 26  1  0  0  0
 26 27  1  0  0  0
 27 28  1  0  0  0
 28 29  1  0  0  0
 20 21  1  0  0  0
 21 22  2  0  0  0
 16 12  1  0  0  0
  9  1  1  0  0  0
 22 17  1  0  0  0
  8  4  1  0  0  0
 29 24  1  0  0  0
  7 10  1  0  0  0
M  END
> <minimizedAffinity>
-8.00187

> <CNNscore>
0.2571833134

> <CNNaffinity>
5.4016518593

> <CNN_VS>
1.3892147541

> <CNNaffinity_variance>
0.0989196524

$$$$
[H]OC(=O)c1[se]c(-c2c([H])c([H])c(-c3c([H])c([H])c(Cl)c([H])c3[H])c(O[H])c2[H])nc1C([H])([H])[H]


 25 27  0  0  0  0  0  0  0  0999 V2000
  155.0819  139.3589  184.7232 C   0  0  0  0  0  0  0  0  0  0  0  0
  156.4340  139.4521  184.9275 C   0  0  0  0  0  0  0  0  0  0  0  0
  157.2095  140.1843  184.0486 C   0  0  0  0  0  0  0  0  0  0  0  0
  156.6313  140.8245  182.9632 C   0  0  0  0  0  0  0  0  0  0  0  0
  155.2711  140.7311  182.7569 C   0  0  0  0  0  0  0  0  0  0  0  0
  154.6758  141.3677  181.6721 O   0  0  0  0  0  0  0  0  0  0  0  0
  154.5249  139.9887  183.6585 C   0  0  0  0  0  0  0  0  0  0  0  0
  153.7045  141.3359  181.4736 H   0  0  0  0  0  0  0  0  0  0  0  0
  157.4441  141.6043  182.0265 C   0  0  0  0  0  0  0  0  0  0  0  0
  157.6986  142.9499  182.2822 C   0  0  0  0  0  0  0  0  0  0  0  0
  158.4526  143.7048  181.4257 C   0  0  0  0  0  0  0  0  0  0  0  0
  158.9813  143.1493  180.2834 C   0  0  0  0  0  0  0  0  0  0  0  0
  159.9529  144.1057  179.1715 Cl  0  0  0  0  0  0  0  0  0  0  0  0
  158.7549  141.8381  179.9987 C   0  0  0  0  0  0  0  0  0  0  0  0
  157.9868  141.0799  180.8764 C   0  0  0  0  0  0  0  0  0  0  0  0
  153.5675  137.6763  189.1836 C   0  0  0  0  0  0  0  0  0  0  0  0
  153.4987  137.6374  187.6283 C   0  0  0  0  0  0  0  0  0  0  0  0
  154.2046  138.3921  186.9303 N   0  0  0  0  0  0  0  0  0  0  0  0
  154.3552  138.5768  185.6878 C   0  0  0  0  0  0  0  0  0  0  0  0
  152.9443  137.1111  185.1134 Se  0  0  0  0  0  0  0  0  0  0  0  0
  152.6157  136.7229  187.1427 C   0  0  0  0  0  0  0  0  0  0  0  0
  151.7025  135.7558  187.6554 C   0  0  0  0  0  0  0  0  0  0  0  0
  152.0970  134.5397  188.2098 O   0  0  0  0  0  0  0  0  0  0  0  0
  150.4788  136.0241  187.5995 O   0  0  0  0  0  0  0  0  0  0  0  0
  152.9923  134.1513  187.9573 H   0  0  0  0  0  0  0  0  0  0  0  0
 16 17  1  0  0  0
 17 18  1  0  0  0
 18 19  2  0  0  0
 19 20  1  0  0  0
 20 21  1  0  0  0
 21 22  1  0  0  0
 22 23  1  0  0  0
 22 24  2  0  0  0
 19  1  1  0  0  0
  1  2  2  0  0  0
  2  3  1  0  0  0
  3  4  2  0  0  0
  4  9  1  0  0  0
  9 10  2  0  0  0
 10 11  1  0  0  0
 11 12  2  0  0  0
 12 13  1  0  0  0
 12 14  1  0  0  0
 14 15  2  0  0  0
  4  5  1  0  0  0
  5  6  1  0  0  0
  5  7  2  0  0  0
 21 17  2  0  0  0
  7  1  1  0  0  0
 15  9  1  0  0  0
 23 25  1  0  0  0
  6  8  1  0  0  0
M  END
> <minimizedAffinity>
-7.51287

> <CNNscore>
0.4050482810

> <CNNaffinity>
5.3006815910

> <CNN_VS>
2.1470320225

> <CNNaffinity_variance>
0.1607191712

$$$$
[H]OC(=O)c1[se]c(-c2c([H])c([H])c(-c3c([H])c([H])c(Cl)c([H])c3[H])c(O[H])c2[H])nc1C([H])([H])[H]


 25 27  0  0  0  0  0  0  0  0999 V2000
  154.7011  139.6348  183.3114 C   0  0  0  0  0  0  0  0  0  0  0  0
  154.6630  140.8882  183.8646 C   0  0  0  0  0  0  0  0  0  0  0  0
  155.8438  141.5262  184.1946 C   0  0  0  0  0  0  0  0  0  0  0  0
  157.0650  140.9091  183.9707 C   0  0  0  0  0  0  0  0  0  0  0  0
  157.1041  139.6480  183.4144 C   0  0  0  0  0  0  0  0  0  0  0  0
  158.3217  139.0151  183.1837 O   0  0  0  0  0  0  0  0  0  0  0  0
  155.9006  139.0387  183.0960 C   0  0  0  0  0  0  0  0  0  0  0  0
  158.4116  138.1105  182.7870 H   0  0  0  0  0  0  0  0  0  0  0  0
  158.3223  141.5772  184.3155 C   0  0  0  0  0  0  0  0  0  0  0  0
  158.8123  142.5964  183.5019 C   0  0  0  0  0  0  0  0  0  0  0  0
  159.9842  143.2381  183.7965 C   0  0  0  0  0  0  0  0  0  0  0  0
  160.7120  142.8898  184.9111 C   0  0  0  0  0  0  0  0  0  0  0  0
  162.2207  143.7047  185.3044 Cl  0  0  0  0  0  0  0  0  0  0  0  0
  160.2663  141.8991  185.7304 C   0  0  0  0  0  0  0  0  0  0  0  0
  159.0735  141.2533  185.4212 C   0  0  0  0  0  0  0  0  0  0  0  0
  150.1304  137.7391  184.0428 C   0  0  0  0  0  0  0  0  0  0  0  0
  151.2933  138.1363  183.0861 C   0  0  0  0  0  0  0  0  0  0  0  0
  152.3470  138.6401  183.5228 N   0  0  0  0  0  0  0  0  0  0  0  0
  153.4245  139.0485  183.0004 C   0  0  0  0  0  0  0  0  0  0  0  0
  152.8538  138.5835  181.0187 Se  0  0  0  0  0  0  0  0  0  0  0  0
  151.0344  137.8800  181.7749 C   0  0  0  0  0  0  0  0  0  0  0  0
  149.9756  137.3362  180.9906 C   0  0  0  0  0  0  0  0  0  0  0  0
  150.1545  136.3277  180.0457 O   0  0  0  0  0  0  0  0  0  0  0  0
  148.8234  137.7980  181.1686 O   0  0  0  0  0  0  0  0  0  0  0  0
  151.0661  136.1922  179.6374 H   0  0  0  0  0  0  0  0  0  0  0  0
 16 17  1  0  0  0
 17 18  1  0  0  0
 18 19  2  0  0  0
 19 20  1  0  0  0
 20 21  1  0  0  0
 21 22  1  0  0  0
 22 23  1  0  0  0
 22 24  2  0  0  0
 19  1  1  0  0  0
  1  2  2  0  0  0
  2  3  1  0  0  0
  3  4  2  0  0  0
  4  9  1  0  0  0
  9 10  2  0  0  0
 10 11  1  0  0  0
 11 12  2  0  0  0
 12 13  1  0  0  0
 12 14  1  0  0  0
 14 15  2  0  0  0
  4  5  1  0  0  0
  5  6  1  0  0  0
  5  7  2  0  0  0
 21 17  2  0  0  0
  7  1  1  0  0  0
 15  9  1  0  0  0
 23 25  1  0  0  0
  6  8  1  0  0  0
M  END
> <minimizedAffinity>
-3.30258

> <CNNscore>
0.4023949802

> <CNNaffinity>
5.5691671371

> <CNN_VS>
2.2410049438

> <CNNaffinity_variance>
1.3239201307

$$$$
[H]OC(=O)c1[se]c(-c2c([H])c([H])c(-c3c([H])c([H])c(Cl)c([H])c3[H])c(O[H])c2[H])nc1C([H])([H])[H]


 25 27  0  0  0  0  0  0  0  0999 V2000
  155.2507  139.6748  184.2163 C   0  0  0  0  0  0  0  0  0  0  0  0
  154.6641  140.6451  183.4463 C   0  0  0  0  0  0  0  0  0  0  0  0
  155.4430  141.4082  182.5971 C   0  0  0  0  0  0  0  0  0  0  0  0
  156.8115  141.2002  182.5181 C   0  0  0  0  0  0  0  0  0  0  0  0
  157.4025  140.2242  183.2925 C   0  0  0  0  0  0  0  0  0  0  0  0
  158.7747  140.0034  183.2248 O   0  0  0  0  0  0  0  0  0  0  0  0
  156.5905  139.4784  184.1323 C   0  0  0  0  0  0  0  0  0  0  0  0
  159.2541  139.3171  183.7568 H   0  0  0  0  0  0  0  0  0  0  0  0
  157.6459  142.0025  181.6202 C   0  0  0  0  0  0  0  0  0  0  0  0
  157.8880  141.5632  180.3205 C   0  0  0  0  0  0  0  0  0  0  0  0
  158.6642  142.2893  179.4590 C   0  0  0  0  0  0  0  0  0  0  0  0
  159.2283  143.4790  179.8584 C   0  0  0  0  0  0  0  0  0  0  0  0
  160.2290  144.4249  178.7635 Cl  0  0  0  0  0  0  0  0  0  0  0  0
  159.0153  143.9414  181.1203 C   0  0  0  0  0  0  0  0  0  0  0  0
  158.2244  143.1950  181.9879 C   0  0  0  0  0  0  0  0  0  0  0  0
  153.2021  137.9205  188.4288 C   0  0  0  0  0  0  0  0  0  0  0  0
  153.2514  137.9865  186.8736 C   0  0  0  0  0  0  0  0  0  0  0  0
  154.0945  138.6896  186.2822 N   0  0  0  0  0  0  0  0  0  0  0  0
  154.3629  138.9306  185.0696 C   0  0  0  0  0  0  0  0  0  0  0  0
  152.8374  137.6889  184.2950 Se  0  0  0  0  0  0  0  0  0  0  0  0
  152.3069  137.2199  186.2636 C   0  0  0  0  0  0  0  0  0  0  0  0
  151.2479  136.3434  186.6411 C   0  0  0  0  0  0  0  0  0  0  0  0
  149.9258  136.7539  186.7995 O   0  0  0  0  0  0  0  0  0  0  0  0
  151.5329  135.1383  186.8391 O   0  0  0  0  0  0  0  0  0  0  0  0
  149.7317  137.7238  186.9937 H   0  0  0  0  0  0  0  0  0  0  0  0
 16 17  1  0  0  0
 17 18  1  0  0  0
 18 19  2  0  0  0
 19 20  1  0  0  0
 20 21  1  0  0  0
 21 22  1  0  0  0
 22 23  1  0  0  0
 22 24  2  0  0  0
 19  1  1  0  0  0
  1  2  2  0  0  0
  2  3  1  0  0  0
  3  4  2  0  0  0
  4  9  1  0  0  0
  9 10  2  0  0  0
 10 11  1  0  0  0
 11 12  2  0  0  0
 12 13  1  0  0  0
 12 14  1  0  0  0
 14 15  2  0  0  0
  4  5  1  0  0  0
  5  6  1  0  0  0
  5  7  2  0  0  0
 21 17  2  0  0  0
  7  1  1  0  0  0
 15  9  1  0  0  0
 23 25  1  0  0  0
  6  8  1  0  0  0
M  END
> <minimizedAffinity>
-7.59074

> <CNNscore>
0.3949779272

> <CNNaffinity>
5.4171614647

> <CNN_VS>
2.1396591663

> <CNNaffinity_variance>
0.2959410548

$$$$
[H]OC(=O)c1[se]c(-c2c([H])c([H])c(-c3c([H])c([H])c(Cl)c([H])c3[H])c(O[H])c2[H])nc1C([H])([H])[H]


 25 27  0  0  0  0  0  0  0  0999 V2000
  155.5285  140.4524  183.2619 C   0  0  0  0  0  0  0  0  0  0  0  0
  156.1118  139.6598  184.2159 C   0  0  0  0  0  0  0  0  0  0  0  0
  157.3053  140.0504  184.7932 C   0  0  0  0  0  0  0  0  0  0  0  0
  157.9163  141.2362  184.4154 C   0  0  0  0  0  0  0  0  0  0  0  0
  157.3301  142.0341  183.4556 C   0  0  0  0  0  0  0  0  0  0  0  0
  157.9311  143.2271  183.0654 O   0  0  0  0  0  0  0  0  0  0  0  0
  156.1337  141.6109  182.8985 C   0  0  0  0  0  0  0  0  0  0  0  0
  157.5567  143.8403  182.3817 H   0  0  0  0  0  0  0  0  0  0  0  0
  159.1805  141.6601  185.0221 C   0  0  0  0  0  0  0  0  0  0  0  0
  159.2060  142.0822  186.3495 C   0  0  0  0  0  0  0  0  0  0  0  0
  160.3706  142.4855  186.9437 C   0  0  0  0  0  0  0  0  0  0  0  0
  161.5527  142.4839  186.2396 C   0  0  0  0  0  0  0  0  0  0  0  0
  163.0590  142.9993  186.9884 Cl  0  0  0  0  0  0  0  0  0  0  0  0
  161.5686  142.0785  184.9408 C   0  0  0  0  0  0  0  0  0  0  0  0
  160.3787  141.6706  184.3467 C   0  0  0  0  0  0  0  0  0  0  0  0
  151.6638  140.0142  180.1168 C   0  0  0  0  0  0  0  0  0  0  0  0
  152.4071  139.5825  181.4155 C   0  0  0  0  0  0  0  0  0  0  0  0
  153.4865  140.1103  181.7490 N   0  0  0  0  0  0  0  0  0  0  0  0
  154.2887  139.9667  182.7167 C   0  0  0  0  0  0  0  0  0  0  0  0
  153.1612  138.4504  183.6647 Se  0  0  0  0  0  0  0  0  0  0  0  0
  151.7674  138.6040  182.1121 C   0  0  0  0  0  0  0  0  0  0  0  0
  150.5756  137.8298  182.0002 C   0  0  0  0  0  0  0  0  0  0  0  0
  150.5219  136.5806  181.3852 O   0  0  0  0  0  0  0  0  0  0  0  0
  149.5231  138.3088  182.4852 O   0  0  0  0  0  0  0  0  0  0  0  0
  151.2235  136.3372  180.7035 H   0  0  0  0  0  0  0  0  0  0  0  0
 16 17  1  0  0  0
 17 18  1  0  0  0
 18 19  2  0  0  0
 19 20  1  0  0  0
 20 21  1  0  0  0
 21 22  1  0  0  0
 22 23  1  0  0  0
 22 24  2  0  0  0
 19  1  1  0  0  0
  1  2  2  0  0  0
  2  3  1  0  0  0
  3  4  2  0  0  0
  4  9  1  0  0  0
  9 10  2  0  0  0
 10 11  1  0  0  0
 11 12  2  0  0  0
 12 13  1  0  0  0
 12 14  1  0  0  0
 14 15  2  0  0  0
  4  5  1  0  0  0
  5  6  1  0  0  0
  5  7  2  0  0  0
 21 17  2  0  0  0
  7  1  1  0  0  0
 15  9  1  0  0  0
 23 25  1  0  0  0
  6  8  1  0  0  0
M  END
> <minimizedAffinity>
-9.18061

> <CNNscore>
0.3706134260

> <CNNaffinity>
5.6284723282

> <CNN_VS>
2.0859873295

> <CNNaffinity_variance>
0.0671410635

$$$$
[H]OC(=O)c1[se]c(-c2c([H])c([H])c(-c3c([H])c([H])c(Cl)c([H])c3[H])c(O[H])c2[H])nc1C([H])([H])[H]


 25 27  0  0  0  0  0  0  0  0999 V2000
  155.5420  139.4992  184.7170 C   0  0  0  0  0  0  0  0  0  0  0  0
  154.8682  140.2441  183.7843 C   0  0  0  0  0  0  0  0  0  0  0  0
  155.5780  140.9883  182.8611 C   0  0  0  0  0  0  0  0  0  0  0  0
  156.9644  140.9874  182.8708 C   0  0  0  0  0  0  0  0  0  0  0  0
  157.6429  140.2383  183.8089 C   0  0  0  0  0  0  0  0  0  0  0  0
  159.0343  140.2271  183.8320 O   0  0  0  0  0  0  0  0  0  0  0  0
  156.8986  139.5044  184.7189 C   0  0  0  0  0  0  0  0  0  0  0  0
  159.5752  139.7085  184.4818 H   0  0  0  0  0  0  0  0  0  0  0  0
  157.7263  141.7715  181.8957 C   0  0  0  0  0  0  0  0  0  0  0  0
  158.1481  143.0594  182.2186 C   0  0  0  0  0  0  0  0  0  0  0  0
  158.8597  143.8170  181.3288 C   0  0  0  0  0  0  0  0  0  0  0  0
  159.1779  143.3216  180.0852 C   0  0  0  0  0  0  0  0  0  0  0  0
  160.0922  144.2824  178.9293 Cl  0  0  0  0  0  0  0  0  0  0  0  0
  158.7836  142.0680  179.7326 C   0  0  0  0  0  0  0  0  0  0  0  0
  158.0605  141.3065  180.6451 C   0  0  0  0  0  0  0  0  0  0  0  0
  151.4430  137.4100  186.6801 C   0  0  0  0  0  0  0  0  0  0  0  0
  152.9713  137.7043  186.7367 C   0  0  0  0  0  0  0  0  0  0  0  0
  153.5350  138.3724  185.8474 N   0  0  0  0  0  0  0  0  0  0  0  0
  154.7217  138.7570  185.6371 C   0  0  0  0  0  0  0  0  0  0  0  0
  155.5159  137.8575  187.3775 Se  0  0  0  0  0  0  0  0  0  0  0  0
  153.5913  137.1692  187.8236 C   0  0  0  0  0  0  0  0  0  0  0  0
  153.2427  136.3912  188.9660 C   0  0  0  0  0  0  0  0  0  0  0  0
  152.6259  136.9176  190.0992 O   0  0  0  0  0  0  0  0  0  0  0  0
  153.5104  135.1664  188.9394 O   0  0  0  0  0  0  0  0  0  0  0  0
  152.7186  137.9016  190.2976 H   0  0  0  0  0  0  0  0  0  0  0  0
 16 17  1  0  0  0
 17 18  1  0  0  0
 18 19  2  0  0  0
 19 20  1  0  0  0
 20 21  1  0  0  0
 21 22  1  0  0  0
 22 23  1  0  0  0
 22 24  2  0  0  0
 19  1  1  0  0  0
  1  2  2  0  0  0
  2  3  1  0  0  0
  3  4  2  0  0  0
  4  9  1  0  0  0
  9 10  2  0  0  0
 10 11  1  0  0  0
 11 12  2  0  0  0
 12 13  1  0  0  0
 12 14  1  0  0  0
 14 15  2  0  0  0
  4  5  1  0  0  0
  5  6  1  0  0  0
  5  7  2  0  0  0
 21 17  2  0  0  0
  7  1  1  0  0  0
 15  9  1  0  0  0
 23 25  1  0  0  0
  6  8  1  0  0  0
M  END
> <minimizedAffinity>
-7.59504

> <CNNscore>
0.3677445948

> <CNNaffinity>
5.3914461136

> <CNN_VS>
1.9826751947

> <CNNaffinity_variance>
0.1594948918

$$$$
[H]OC(=O)c1[se]c(-c2c([H])c([H])c(-c3c([H])c([H])c(Cl)c([H])c3[H])c(O[H])c2[H])nc1C([H])([H])[H]


 25 27  0  0  0  0  0  0  0  0999 V2000
  154.6484  135.7742  186.1962 C   0  0  0  0  0  0  0  0  0  0  0  0
  155.1790  136.5124  187.2219 C   0  0  0  0  0  0  0  0  0  0  0  0
  155.8805  135.8779  188.2295 C   0  0  0  0  0  0  0  0  0  0  0  0
  156.0515  134.5022  188.2110 C   0  0  0  0  0  0  0  0  0  0  0  0
  155.5179  133.7587  187.1795 C   0  0  0  0  0  0  0  0  0  0  0  0
  155.6807  132.3771  187.1467 O   0  0  0  0  0  0  0  0  0  0  0  0
  154.8208  134.4286  186.1864 C   0  0  0  0  0  0  0  0  0  0  0  0
  155.3202  131.7918  186.4318 H   0  0  0  0  0  0  0  0  0  0  0  0
  156.7946  133.8199  189.2734 C   0  0  0  0  0  0  0  0  0  0  0  0
  158.1585  133.5795  189.1219 C   0  0  0  0  0  0  0  0  0  0  0  0
  158.8793  132.9434  190.0954 C   0  0  0  0  0  0  0  0  0  0  0  0
  158.2704  132.5229  191.2553 C   0  0  0  0  0  0  0  0  0  0  0  0
  159.1825  131.7035  192.5169 Cl  0  0  0  0  0  0  0  0  0  0  0  0
  156.9398  132.7393  191.4404 C   0  0  0  0  0  0  0  0  0  0  0  0
  156.2166  133.3870  190.4440 C   0  0  0  0  0  0  0  0  0  0  0  0
  153.5834  139.4727  183.0014 C   0  0  0  0  0  0  0  0  0  0  0  0
  153.2321  138.1001  183.6480 C   0  0  0  0  0  0  0  0  0  0  0  0
  153.9664  137.5865  184.5152 N   0  0  0  0  0  0  0  0  0  0  0  0
  153.9349  136.5186  185.1927 C   0  0  0  0  0  0  0  0  0  0  0  0
  152.1284  135.8190  184.3463 Se  0  0  0  0  0  0  0  0  0  0  0  0
  152.0798  137.5518  183.1751 C   0  0  0  0  0  0  0  0  0  0  0  0
  151.0634  137.8741  182.2289 C   0  0  0  0  0  0  0  0  0  0  0  0
  151.1217  137.5188  180.8828 O   0  0  0  0  0  0  0  0  0  0  0  0
  150.0662  138.5128  182.6413 O   0  0  0  0  0  0  0  0  0  0  0  0
  152.0185  137.3353  180.4607 H   0  0  0  0  0  0  0  0  0  0  0  0
 16 17  1  0  0  0
 17 18  1  0  0  0
 18 19  2  0  0  0
 19 20  1  0  0  0
 20 21  1  0  0  0
 21 22  1  0  0  0
 22 23  1  0  0  0
 22 24  2  0  0  0
 19  1  1  0  0  0
  1  2  2  0  0  0
  2  3  1  0  0  0
  3  4  2  0  0  0
  4  9  1  0  0  0
  9 10  2  0  0  0
 10 11  1  0  0  0
 11 12  2  0  0  0
 12 13  1  0  0  0
 12 14  1  0  0  0
 14 15  2  0  0  0
  4  5  1  0  0  0
  5  6  1  0  0  0
  5  7  2  0  0  0
 21 17  2  0  0  0
  7  1  1  0  0  0
 15  9  1  0  0  0
 23 25  1  0  0  0
  6  8  1  0  0  0
M  END
> <minimizedAffinity>
-3.87670

> <CNNscore>
0.3468600214

> <CNNaffinity>
4.7239751816

> <CNN_VS>
1.6385581493

> <CNNaffinity_variance>
0.5329627395

$$$$
[H]OC(=O)c1[se]c(-c2c([H])c([H])c(-c3c([H])c([H])c(Cl)c([H])c3[H])c(O[H])c2[H])nc1C([H])([H])[H]


 25 27  0  0  0  0  0  0  0  0999 V2000
  155.8630  139.1957  185.0921 C   0  0  0  0  0  0  0  0  0  0  0  0
  157.2051  139.4432  185.2184 C   0  0  0  0  0  0  0  0  0  0  0  0
  157.8521  140.2082  184.2664 C   0  0  0  0  0  0  0  0  0  0  0  0
  157.1550  140.7266  183.1858 C   0  0  0  0  0  0  0  0  0  0  0  0
  155.8047  140.4779  183.0579 C   0  0  0  0  0  0  0  0  0  0  0  0
  155.0910  140.9908  181.9790 O   0  0  0  0  0  0  0  0  0  0  0  0
  155.1891  139.7071  184.0314 C   0  0  0  0  0  0  0  0  0  0  0  0
  154.1206  140.8454  181.8350 H   0  0  0  0  0  0  0  0  0  0  0  0
  157.8309  141.5398  182.1720 C   0  0  0  0  0  0  0  0  0  0  0  0
  158.1593  142.8646  182.4509 C   0  0  0  0  0  0  0  0  0  0  0  0
  158.7892  143.6498  181.5242 C   0  0  0  0  0  0  0  0  0  0  0  0
  159.1156  143.1464  180.2861 C   0  0  0  0  0  0  0  0  0  0  0  0
  159.9254  144.1423  179.0831 Cl  0  0  0  0  0  0  0  0  0  0  0  0
  158.8112  141.8570  179.9758 C   0  0  0  0  0  0  0  0  0  0  0  0
  158.1707  141.0676  180.9255 C   0  0  0  0  0  0  0  0  0  0  0  0
  155.5386  135.8026  188.7529 C   0  0  0  0  0  0  0  0  0  0  0  0
  154.8761  136.8793  187.8433 C   0  0  0  0  0  0  0  0  0  0  0  0
  155.5361  137.4939  186.9821 N   0  0  0  0  0  0  0  0  0  0  0  0
  155.2742  138.3908  186.1292 C   0  0  0  0  0  0  0  0  0  0  0  0
  153.2298  138.5418  186.6454 Se  0  0  0  0  0  0  0  0  0  0  0  0
  153.5502  137.0621  188.0893 C   0  0  0  0  0  0  0  0  0  0  0  0
  152.5532  136.5408  188.9647 C   0  0  0  0  0  0  0  0  0  0  0  0
  152.4903  136.8355  190.3252 O   0  0  0  0  0  0  0  0  0  0  0  0
  151.6898  135.7757  188.4731 O   0  0  0  0  0  0  0  0  0  0  0  0
  153.3259  137.1355  190.8027 H   0  0  0  0  0  0  0  0  0  0  0  0
 16 17  1  0  0  0
 17 18  1  0  0  0
 18 19  2  0  0  0
 19 20  1  0  0  0
 20 21  1  0  0  0
 21 22  1  0  0  0
 22 23  1  0  0  0
 22 24  2  0  0  0
 19  1  1  0  0  0
  1  2  2  0  0  0
  2  3  1  0  0  0
  3  4  2  0  0  0
  4  9  1  0  0  0
  9 10  2  0  0  0
 10 11  1  0  0  0
 11 12  2  0  0  0
 12 13  1  0  0  0
 12 14  1  0  0  0
 14 15  2  0  0  0
  4  5  1  0  0  0
  5  6  1  0  0  0
  5  7  2  0  0  0
 21 17  2  0  0  0
  7  1  1  0  0  0
 15  9  1  0  0  0
 23 25  1  0  0  0
  6  8  1  0  0  0
M  END
> <minimizedAffinity>
-7.67062

> <CNNscore>
0.2738213539

> <CNNaffinity>
5.2413663864

> <CNN_VS>
1.4351980686

> <CNNaffinity_variance>
0.1502750218

$$$$
[H]OC(=O)c1[se]c(-c2c([H])c([H])c(-c3c([H])c([H])c(Cl)c([H])c3[H])c(O[H])c2[H])nc1C([H])([H])[H]


 25 27  0  0  0  0  0  0  0  0999 V2000
  153.9183  140.0553  182.5622 C   0  0  0  0  0  0  0  0  0  0  0  0
  154.6343  139.1789  183.3353 C   0  0  0  0  0  0  0  0  0  0  0  0
  155.8626  139.5597  183.8417 C   0  0  0  0  0  0  0  0  0  0  0  0
  156.3755  140.8197  183.5743 C   0  0  0  0  0  0  0  0  0  0  0  0
  155.6557  141.7020  182.7965 C   0  0  0  0  0  0  0  0  0  0  0  0
  156.1569  142.9702  182.5188 O   0  0  0  0  0  0  0  0  0  0  0  0
  154.4280  141.2861  182.3058 C   0  0  0  0  0  0  0  0  0  0  0  0
  155.6850  143.6456  181.9667 H   0  0  0  0  0  0  0  0  0  0  0  0
  157.6756  141.2338  184.1074 C   0  0  0  0  0  0  0  0  0  0  0  0
  158.7619  141.3842  183.2481 C   0  0  0  0  0  0  0  0  0  0  0  0
  159.9890  141.7680  183.7160 C   0  0  0  0  0  0  0  0  0  0  0  0
  160.1809  142.0164  185.0556 C   0  0  0  0  0  0  0  0  0  0  0  0
  161.7521  142.5106  185.6738 Cl  0  0  0  0  0  0  0  0  0  0  0  0
  159.1444  141.8803  185.9266 C   0  0  0  0  0  0  0  0  0  0  0  0
  157.9011  141.4895  185.4399 C   0  0  0  0  0  0  0  0  0  0  0  0
  149.1605  138.5147  182.6649 C   0  0  0  0  0  0  0  0  0  0  0  0
  150.4641  138.8293  181.8730 C   0  0  0  0  0  0  0  0  0  0  0  0
  151.4878  139.2452  182.4509 N   0  0  0  0  0  0  0  0  0  0  0  0
  152.6516  139.5734  182.0788 C   0  0  0  0  0  0  0  0  0  0  0  0
  152.3080  139.1737  180.0316 Se  0  0  0  0  0  0  0  0  0  0  0  0
  150.3580  138.6068  180.5347 C   0  0  0  0  0  0  0  0  0  0  0  0
  149.3710  138.1550  179.6106 C   0  0  0  0  0  0  0  0  0  0  0  0
  148.7065  136.9356  179.7263 O   0  0  0  0  0  0  0  0  0  0  0  0
  149.0930  138.9038  178.6439 O   0  0  0  0  0  0  0  0  0  0  0  0
  149.1350  136.1897  180.2517 H   0  0  0  0  0  0  0  0  0  0  0  0
 16 17  1  0  0  0
 17 18  1  0  0  0
 18 19  2  0  0  0
 19 20  1  0  0  0
 20 21  1  0  0  0
 21 22  1  0  0  0
 22 23  1  0  0  0
 22 24  2  0  0  0
 19  1  1  0  0  0
  1  2  2  0  0  0
  2  3  1  0  0  0
  3  4  2  0  0  0
  4  9  1  0  0  0
  9 10  2  0  0  0
 10 11  1  0  0  0
 11 12  2  0  0  0
 12 13  1  0  0  0
 12 14  1  0  0  0
 14 15  2  0  0  0
  4  5  1  0  0  0
  5  6  1  0  0  0
  5  7  2  0  0  0
 21 17  2  0  0  0
  7  1  1  0  0  0
 15  9  1  0  0  0
 23 25  1  0  0  0
  6  8  1  0  0  0
M  END
> <minimizedAffinity>
-7.51388

> <CNNscore>
0.2703562975

> <CNNaffinity>
5.3159046173

> <CNN_VS>
1.4371882677

> <CNNaffinity_variance>
0.0474409238

$$$$
[H]OC(=O)c1[se]c(-c2c([H])c([H])c(-c3c([H])c([H])c(Cl)c([H])c3[H])c(O[H])c2[H])nc1C([H])([H])[H]


 25 27  0  0  0  0  0  0  0  0999 V2000
  154.8489  134.3231  182.3770 C   0  0  0  0  0  0  0  0  0  0  0  0
  153.9067  134.9090  181.5723 C   0  0  0  0  0  0  0  0  0  0  0  0
  152.6644  135.2226  182.0904 C   0  0  0  0  0  0  0  0  0  0  0  0
  152.3641  134.9496  183.4162 C   0  0  0  0  0  0  0  0  0  0  0  0
  153.3114  134.3601  184.2264 C   0  0  0  0  0  0  0  0  0  0  0  0
  153.0253  134.0794  185.5590 O   0  0  0  0  0  0  0  0  0  0  0  0
  154.5461  134.0596  183.6730 C   0  0  0  0  0  0  0  0  0  0  0  0
  153.6656  133.6573  186.1879 H   0  0  0  0  0  0  0  0  0  0  0  0
  151.0509  135.2794  183.9756 C   0  0  0  0  0  0  0  0  0  0  0  0
  150.0745  134.2915  184.0830 C   0  0  0  0  0  0  0  0  0  0  0  0
  148.8383  134.5688  184.5995 C   0  0  0  0  0  0  0  0  0  0  0  0
  148.5276  135.8387  185.0284 C   0  0  0  0  0  0  0  0  0  0  0  0
  146.9430  136.2122  185.6950 Cl  0  0  0  0  0  0  0  0  0  0  0  0
  149.4547  136.8308  184.9398 C   0  0  0  0  0  0  0  0  0  0  0  0
  150.7083  136.5377  184.4129 C   0  0  0  0  0  0  0  0  0  0  0  0
  158.3904  131.7141  179.9958 C   0  0  0  0  0  0  0  0  0  0  0  0
  157.8996  133.0329  180.6629 C   0  0  0  0  0  0  0  0  0  0  0  0
  156.7609  133.1198  181.1638 N   0  0  0  0  0  0  0  0  0  0  0  0
  156.1122  134.0324  181.7529 C   0  0  0  0  0  0  0  0  0  0  0  0
  157.6574  135.4691  181.6199 Se  0  0  0  0  0  0  0  0  0  0  0  0
  158.8198  134.0351  180.6353 C   0  0  0  0  0  0  0  0  0  0  0  0
  160.1474  134.2417  180.1590 C   0  0  0  0  0  0  0  0  0  0  0  0
  160.9040  135.3751  180.4500 O   0  0  0  0  0  0  0  0  0  0  0  0
  160.6528  133.3479  179.4391 O   0  0  0  0  0  0  0  0  0  0  0  0
  160.4329  136.2286  180.7067 H   0  0  0  0  0  0  0  0  0  0  0  0
 16 17  1  0  0  0
 17 18  1  0  0  0
 18 19  2  0  0  0
 19 20  1  0  0  0
 20 21  1  0  0  0
 21 22  1  0  0  0
 22 23  1  0  0  0
 22 24  2  0  0  0
 19  1  1  0  0  0
  1  2  2  0  0  0
  2  3  1  0  0  0
  3  4  2  0  0  0
  4  9  1  0  0  0
  9 10  2  0  0  0
 10 11  1  0  0  0
 11 12  2  0  0  0
 12 13  1  0  0  0
 12 14  1  0  0  0
 14 15  2  0  0  0
  4  5  1  0  0  0
  5  6  1  0  0  0
  5  7  2  0  0  0
 21 17  2  0  0  0
  7  1  1  0  0  0
 15  9  1  0  0  0
 23 25  1  0  0  0
  6  8  1  0  0  0
M  END
> <minimizedAffinity>
20.80279

> <CNNscore>
0.2560827434

> <CNNaffinity>
4.2498621941

> <CNN_VS>
1.0883163214

> <CNNaffinity_variance>
0.7604368925

$$$$
[H]N=C(N([H])[H])N([H])C([H])([H])C([H])([H])C([H])([H])[C@@]([H])(C(=O)c1nc2c([H])c([H])c([H])c([H])c2s1)N([H])C(=O)[C@]([H])(N([H])C(=O)[C@@]([H])(N([H])C(=O)[C@@]([H])(N([H])C(=O)[C@@]([H])(N([H])C(=O)C([H])([H])[H])C([H])([H])C([H])([H])C([H])([H])C([H])([H])N([H])[H])C([H])([H])[H])C([H])(C([H])([H])[H])C([H])([H])[H])C([H])([H])C([H])(C([H])([H])[H])C([H])([H])[H]


 63 64  0  0  0  0  0  0  0  0999 V2000
  152.1046  138.7925  182.2366 C   0  0  0  0  0  0  0  0  0  0  0  0
  152.5127  136.5056  183.2158 C   0  0  0  0  0  0  0  0  0  0  0  0
  152.9865  136.1675  182.1109 O   0  0  0  0  0  0  0  0  0  0  0  0
  152.0368  137.8627  183.3137 N   0  0  0  0  0  0  0  0  0  0  0  0
  151.6372  138.1118  184.2229 H   0  0  0  0  0  0  0  0  0  0  0  0
  152.4747  135.5184  184.2793 C   0  0  0  0  0  0  0  0  0  0  0  0
  152.9141  136.2220  185.4784 N   0  0  0  0  0  0  0  0  0  0  0  0
  154.0745  135.9296  186.1791 C   0  0  0  0  0  0  0  0  0  0  0  0
  154.7721  134.9525  185.7383 O   0  0  0  0  0  0  0  0  0  0  0  0
  152.2969  136.9937  185.8044 H   0  0  0  0  0  0  0  0  0  0  0  0
  154.5495  136.6445  187.3498 C   0  0  0  0  0  0  0  0  0  0  0  0
  156.0879  136.3750  187.5118 C   0  0  0  0  0  0  0  0  0  0  0  0
  153.9992  136.0370  188.5736 N   0  0  0  0  0  0  0  0  0  0  0  0
  153.7463  136.8336  189.7163 C   0  0  0  0  0  0  0  0  0  0  0  0
  153.9933  138.0615  189.7428 O   0  0  0  0  0  0  0  0  0  0  0  0
  153.7949  135.0069  188.5987 H   0  0  0  0  0  0  0  0  0  0  0  0
  153.1628  136.1667  190.9358 C   0  0  0  0  0  0  0  0  0  0  0  0
  154.0163  135.0358  191.3009 N   0  0  0  0  0  0  0  0  0  0  0  0
  153.4628  133.7166  191.3900 C   0  0  0  0  0  0  0  0  0  0  0  0
  154.2959  132.5448  191.7492 C   0  0  0  0  0  0  0  0  0  0  0  0
  152.2122  133.5845  191.1450 O   0  0  0  0  0  0  0  0  0  0  0  0
  155.0156  135.1790  191.4994 H   0  0  0  0  0  0  0  0  0  0  0  0
  153.3140  137.1608  192.0812 C   0  0  0  0  0  0  0  0  0  0  0  0
  152.0682  137.3439  192.8409 C   0  0  0  0  0  0  0  0  0  0  0  0
  151.5404  136.2034  193.6151 C   0  0  0  0  0  0  0  0  0  0  0  0
  150.1996  135.7267  193.1483 C   0  0  0  0  0  0  0  0  0  0  0  0
  149.2761  135.5506  194.2090 N   0  0  0  0  0  0  0  0  0  0  0  0
  148.3515  136.0198  194.0106 H   0  0  0  0  0  0  0  0  0  0  0  0
  149.0495  134.5770  194.4693 H   0  0  0  0  0  0  0  0  0  0  0  0
  150.3842  135.6386  185.5630 C   0  0  0  0  0  0  0  0  0  0  0  0
  151.1186  134.8845  184.4762 C   0  0  0  0  0  0  0  0  0  0  0  0
  150.2855  134.7708  183.2479 C   0  0  0  0  0  0  0  0  0  0  0  0
  153.3567  139.5846  182.3146 C   0  0  0  0  0  0  0  0  0  0  0  0
  153.6483  140.3016  181.2689 O   0  0  0  0  0  0  0  0  0  0  0  0
  154.2869  139.6833  183.3477 N   0  0  0  0  0  0  0  0  0  0  0  0
  154.1668  139.1625  184.2257 H   0  0  0  0  0  0  0  0  0  0  0  0
  155.4909  140.5215  183.2288 C   0  0  0  0  0  0  0  0  0  0  0  0
  156.4104  140.1054  184.2814 C   0  0  0  0  0  0  0  0  0  0  0  0
  156.0465  139.1275  185.0363 O   0  0  0  0  0  0  0  0  0  0  0  0
  157.7262  140.6833  184.5792 C   0  0  0  0  0  0  0  0  0  0  0  0
  158.1871  141.3492  185.6068 N   0  0  0  0  0  0  0  0  0  0  0  0
  159.4180  141.7784  185.6439 C   0  0  0  0  0  0  0  0  0  0  0  0
  160.0095  142.5091  186.6967 C   0  0  0  0  0  0  0  0  0  0  0  0
  161.3162  142.9011  186.5945 C   0  0  0  0  0  0  0  0  0  0  0  0
  162.1230  142.6296  185.5138 C   0  0  0  0  0  0  0  0  0  0  0  0
  161.5503  141.9197  184.4899 C   0  0  0  0  0  0  0  0  0  0  0  0
  160.2095  141.4980  184.5539 C   0  0  0  0  0  0  0  0  0  0  0  0
  159.1291  140.6390  183.5551 S   0  0  0  0  0  0  0  0  0  0  0  0
  155.0416  141.9707  183.5584 C   0  0  0  0  0  0  0  0  0  0  0  0
  155.5872  142.9863  182.6280 C   0  0  0  0  0  0  0  0  0  0  0  0
  156.4245  142.3422  181.5183 C   0  0  0  0  0  0  0  0  0  0  0  0
  157.5165  143.2190  181.1457 N   0  0  0  0  0  0  0  0  0  0  0  0
  157.7101  144.1080  181.6663 H   0  0  0  0  0  0  0  0  0  0  0  0
  158.3876  142.9294  180.0559 C   0  0  0  0  0  0  0  0  0  0  0  0
  159.5563  143.6765  179.7611 N   0  0  0  0  0  0  0  0  0  0  0  0
  158.0791  141.9094  179.2910 N   0  0  0  0  0  0  0  0  0  0  0  0
  160.4751  143.1849  179.6903 H   0  0  0  0  0  0  0  0  0  0  0  0
  159.5287  144.7068  179.6119 H   0  0  0  0  0  0  0  0  0  0  0  0
  158.7005  141.6633  178.4756 H   0  0  0  0  0  0  0  0  0  0  0  0
  151.5384  138.5278  180.9447 C   0  0  0  0  0  0  0  0  0  0  0  0
  150.5406  139.3189  180.2426 C   0  0  0  0  0  0  0  0  0  0  0  0
  149.3589  138.4692  179.7740 C   0  0  0  0  0  0  0  0  0  0  0  0
  150.9093  140.2226  179.1307 C   0  0  0  0  0  0  0  0  0  0  0  0
 30 31  1  0  0  0
 31 32  1  0  0  0
 31  6  1  0  0  0
  6  7  1  0  0  0
  7  8  1  0  0  0
  8  9  2  0  0  0
  8 11  1  0  0  0
 11 12  1  0  0  0
 11 13  1  0  0  0
 13 14  1  0  0  0
 14 15  2  0  0  0
 14 17  1  0  0  0
 17 23  1  0  0  0
 23 24  1  0  0  0
 24 25  1  0  0  0
 25 26  1  0  0  0
 26 27  1  0  0  0
 17 18  1  0  0  0
 18 19  1  0  0  0
 19 20  1  0  0  0
 19 21  2  0  0  0
  6  2  1  0  0  0
  2  3  2  0  0  0
  2  4  1  0  0  0
  4  1  1  0  0  0
  1 60  1  0  0  0
 60 61  1  0  0  0
 61 62  1  0  0  0
 61 63  1  0  0  0
  1 33  1  0  0  0
 33 34  2  0  0  0
 33 35  1  0  0  0
 35 37  1  0  0  0
 37 49  1  0  0  0
 49 50  1  0  0  0
 50 51  1  0  0  0
 51 52  1  0  0  0
 52 54  1  0  0  0
 54 55  1  0  0  0
 54 56  2  0  0  0
 37 38  1  0  0  0
 38 39  2  0  0  0
 38 40  1  0  0  0
 40 41  2  0  0  0
 41 42  1  0  0  0
 42 43  2  0  0  0
 43 44  1  0  0  0
 44 45  2  0  0  0
 45 46  1  0  0  0
 46 47  2  0  0  0
 47 48  1  0  0  0
 48 40  1  0  0  0
 47 42  1  0  0  0
  7 10  1  0  0  0
 13 16  1  0  0  0
 27 28  1  0  0  0
 27 29  1  0  0  0
 18 22  1  0  0  0
  4  5  1  0  0  0
 35 36  1  0  0  0
 52 53  1  0  0  0
 55 57  1  0  0  0
 55 58  1  0  0  0
 56 59  1  0  0  0
M  END
> <minimizedAffinity>
-7.98224

> <CNNscore>
0.3476127684

> <CNNaffinity>
7.3314690590

> <CNN_VS>
2.5485122204

> <CNNaffinity_variance>
0.3923451006

$$$$
[H]N=C(N([H])[H])N([H])C([H])([H])C([H])([H])C([H])([H])[C@@]([H])(C(=O)c1nc2c([H])c([H])c([H])c([H])c2s1)N([H])C(=O)[C@]([H])(N([H])C(=O)[C@@]([H])(N([H])C(=O)[C@@]([H])(N([H])C(=O)[C@@]([H])(N([H])C(=O)C([H])([H])[H])C([H])([H])C([H])([H])C([H])([H])C([H])([H])N([H])[H])C([H])([H])[H])C([H])(C([H])([H])[H])C([H])([H])[H])C([H])([H])C([H])(C([H])([H])[H])C([H])([H])[H]


 63 64  0  0  0  0  0  0  0  0999 V2000
  152.0208  139.0953  181.8833 C   0  0  0  0  0  0  0  0  0  0  0  0
  152.2933  137.2551  183.5847 C   0  0  0  0  0  0  0  0  0  0  0  0
  153.1916  136.7798  182.8589 O   0  0  0  0  0  0  0  0  0  0  0  0
  151.6572  138.4556  183.1030 N   0  0  0  0  0  0  0  0  0  0  0  0
  150.9125  138.8171  183.7057 H   0  0  0  0  0  0  0  0  0  0  0  0
  151.9690  136.5646  184.8196 C   0  0  0  0  0  0  0  0  0  0  0  0
  152.7618  137.2217  185.8519 N   0  0  0  0  0  0  0  0  0  0  0  0
  153.8463  136.6445  186.4951 C   0  0  0  0  0  0  0  0  0  0  0  0
  154.1296  135.4428  186.1613 O   0  0  0  0  0  0  0  0  0  0  0  0
  152.4730  138.1904  186.0990 H   0  0  0  0  0  0  0  0  0  0  0  0
  154.6724  137.2966  187.4948 C   0  0  0  0  0  0  0  0  0  0  0  0
  156.1478  136.7818  187.3394 C   0  0  0  0  0  0  0  0  0  0  0  0
  154.3173  136.8140  188.8404 N   0  0  0  0  0  0  0  0  0  0  0  0
  154.3292  137.7001  189.9444 C   0  0  0  0  0  0  0  0  0  0  0  0
  154.6551  138.9044  189.8311 O   0  0  0  0  0  0  0  0  0  0  0  0
  154.0553  135.8065  188.9813 H   0  0  0  0  0  0  0  0  0  0  0  0
  153.9369  137.1606  191.2962 C   0  0  0  0  0  0  0  0  0  0  0  0
  152.5225  136.7883  191.2560 N   0  0  0  0  0  0  0  0  0  0  0  0
  151.7761  136.6669  192.4736 C   0  0  0  0  0  0  0  0  0  0  0  0
  150.3404  136.2994  192.4741 C   0  0  0  0  0  0  0  0  0  0  0  0
  152.3984  136.8900  193.5712 O   0  0  0  0  0  0  0  0  0  0  0  0
  152.0558  136.6078  190.3571 H   0  0  0  0  0  0  0  0  0  0  0  0
  154.6864  135.8444  191.4661 C   0  0  0  0  0  0  0  0  0  0  0  0
  156.0675  136.0350  191.9338 C   0  0  0  0  0  0  0  0  0  0  0  0
  157.0852  135.0359  191.5527 C   0  0  0  0  0  0  0  0  0  0  0  0
  156.9156  134.5023  190.1636 C   0  0  0  0  0  0  0  0  0  0  0  0
  156.7239  133.0984  190.1309 N   0  0  0  0  0  0  0  0  0  0  0  0
  155.8935  132.8262  189.5387 H   0  0  0  0  0  0  0  0  0  0  0  0
  157.5153  132.5305  189.7871 H   0  0  0  0  0  0  0  0  0  0  0  0
  149.8454  135.3630  184.5397 C   0  0  0  0  0  0  0  0  0  0  0  0
  150.4980  136.5792  185.1594 C   0  0  0  0  0  0  0  0  0  0  0  0
  150.1815  136.6746  186.6108 C   0  0  0  0  0  0  0  0  0  0  0  0
  153.2432  139.9146  182.0728 C   0  0  0  0  0  0  0  0  0  0  0  0
  153.5917  140.6659  181.0697 O   0  0  0  0  0  0  0  0  0  0  0  0
  154.0928  140.0076  183.1737 N   0  0  0  0  0  0  0  0  0  0  0  0
  153.9224  139.4608  184.0272 H   0  0  0  0  0  0  0  0  0  0  0  0
  155.2804  140.8770  183.1645 C   0  0  0  0  0  0  0  0  0  0  0  0
  156.2610  140.2752  184.0607 C   0  0  0  0  0  0  0  0  0  0  0  0
  155.9191  139.1986  184.6792 O   0  0  0  0  0  0  0  0  0  0  0  0
  157.6163  140.7652  184.3383 C   0  0  0  0  0  0  0  0  0  0  0  0
  158.1295  141.4219  185.3469 N   0  0  0  0  0  0  0  0  0  0  0  0
  159.3880  141.7632  185.3680 C   0  0  0  0  0  0  0  0  0  0  0  0
  160.0361  142.4757  186.3997 C   0  0  0  0  0  0  0  0  0  0  0  0
  161.3668  142.7711  186.2821 C   0  0  0  0  0  0  0  0  0  0  0  0
  162.1458  142.4161  185.2052 C   0  0  0  0  0  0  0  0  0  0  0  0
  161.5179  141.7237  184.2019 C   0  0  0  0  0  0  0  0  0  0  0  0
  160.1510  141.4002  184.2821 C   0  0  0  0  0  0  0  0  0  0  0  0
  159.0063  140.5958  183.3097 S   0  0  0  0  0  0  0  0  0  0  0  0
  154.8366  142.2198  183.8052 C   0  0  0  0  0  0  0  0  0  0  0  0
  154.9031  143.3708  182.8748 C   0  0  0  0  0  0  0  0  0  0  0  0
  156.1648  143.3220  182.0070 C   0  0  0  0  0  0  0  0  0  0  0  0
  157.1998  144.1551  182.5856 N   0  0  0  0  0  0  0  0  0  0  0  0
  156.9971  144.8167  183.3732 H   0  0  0  0  0  0  0  0  0  0  0  0
  158.5471  144.1274  182.1226 C   0  0  0  0  0  0  0  0  0  0  0  0
  158.9501  143.5199  180.9062 N   0  0  0  0  0  0  0  0  0  0  0  0
  159.4557  144.7021  182.8743 N   0  0  0  0  0  0  0  0  0  0  0  0
  159.4764  144.0831  180.2015 H   0  0  0  0  0  0  0  0  0  0  0  0
  158.7369  142.5236  180.6907 H   0  0  0  0  0  0  0  0  0  0  0  0
  160.4633  144.7032  182.5640 H   0  0  0  0  0  0  0  0  0  0  0  0
  151.7800  138.5083  180.5961 C   0  0  0  0  0  0  0  0  0  0  0  0
  150.7213  138.8472  179.6586 C   0  0  0  0  0  0  0  0  0  0  0  0
  150.8444  140.2829  179.1470 C   0  0  0  0  0  0  0  0  0  0  0  0
  149.2967  138.6077  179.9779 C   0  0  0  0  0  0  0  0  0  0  0  0
 30 31  1  0  0  0
 31 32  1  0  0  0
 31  6  1  0  0  0
  6  7  1  0  0  0
  7  8  1  0  0  0
  8  9  2  0  0  0
  8 11  1  0  0  0
 11 12  1  0  0  0
 11 13  1  0  0  0
 13 14  1  0  0  0
 14 15  2  0  0  0
 14 17  1  0  0  0
 17 23  1  0  0  0
 23 24  1  0  0  0
 24 25  1  0  0  0
 25 26  1  0  0  0
 26 27  1  0  0  0
 17 18  1  0  0  0
 18 19  1  0  0  0
 19 20  1  0  0  0
 19 21  2  0  0  0
  6  2  1  0  0  0
  2  3  2  0  0  0
  2  4  1  0  0  0
  4  1  1  0  0  0
  1 60  1  0  0  0
 60 61  1  0  0  0
 61 62  1  0  0  0
 61 63  1  0  0  0
  1 33  1  0  0  0
 33 34  2  0  0  0
 33 35  1  0  0  0
 35 37  1  0  0  0
 37 49  1  0  0  0
 49 50  1  0  0  0
 50 51  1  0  0  0
 51 52  1  0  0  0
 52 54  1  0  0  0
 54 55  1  0  0  0
 54 56  2  0  0  0
 37 38  1  0  0  0
 38 39  2  0  0  0
 38 40  1  0  0  0
 40 41  2  0  0  0
 41 42  1  0  0  0
 42 43  2  0  0  0
 43 44  1  0  0  0
 44 45  2  0  0  0
 45 46  1  0  0  0
 46 47  2  0  0  0
 47 48  1  0  0  0
 48 40  1  0  0  0
 47 42  1  0  0  0
  7 10  1  0  0  0
 13 16  1  0  0  0
 27 28  1  0  0  0
 27 29  1  0  0  0
 18 22  1  0  0  0
  4  5  1  0  0  0
 35 36  1  0  0  0
 52 53  1  0  0  0
 55 57  1  0  0  0
 55 58  1  0  0  0
 56 59  1  0  0  0
M  END
> <minimizedAffinity>
-7.82800

> <CNNscore>
0.2911425829

> <CNNaffinity>
7.3652315140

> <CNN_VS>
2.1443324089

> <CNNaffinity_variance>
0.6188219190

$$$$
[H]N=C(N([H])[H])N([H])C([H])([H])C([H])([H])C([H])([H])[C@@]([H])(C(=O)c1nc2c([H])c([H])c([H])c([H])c2s1)N([H])C(=O)[C@]([H])(N([H])C(=O)[C@@]([H])(N([H])C(=O)[C@@]([H])(N([H])C(=O)[C@@]([H])(N([H])C(=O)C([H])([H])[H])C([H])([H])C([H])([H])C([H])([H])C([H])([H])N([H])[H])C([H])([H])[H])C([H])(C([H])([H])[H])C([H])([H])[H])C([H])([H])C([H])(C([H])([H])[H])C([H])([H])[H]


 63 64  0  0  0  0  0  0  0  0999 V2000
  154.1585  136.8259  185.6298 C   0  0  0  0  0  0  0  0  0  0  0  0
  154.4572  136.3288  188.0831 C   0  0  0  0  0  0  0  0  0  0  0  0
  153.2426  136.0412  188.1256 O   0  0  0  0  0  0  0  0  0  0  0  0
  154.9652  136.7490  186.8012 N   0  0  0  0  0  0  0  0  0  0  0  0
  155.9589  136.9961  186.7945 H   0  0  0  0  0  0  0  0  0  0  0  0
  155.2319  136.2261  189.3063 C   0  0  0  0  0  0  0  0  0  0  0  0
  156.2845  135.2589  189.0195 N   0  0  0  0  0  0  0  0  0  0  0  0
  156.4676  134.0702  189.7099 C   0  0  0  0  0  0  0  0  0  0  0  0
  155.6622  133.8470  190.6780 O   0  0  0  0  0  0  0  0  0  0  0  0
  156.9240  135.5022  188.2355 H   0  0  0  0  0  0  0  0  0  0  0  0
  157.4830  133.0762  189.4131 C   0  0  0  0  0  0  0  0  0  0  0  0
  156.8715  132.0119  188.4338 C   0  0  0  0  0  0  0  0  0  0  0  0
  157.7667  132.2668  190.6105 N   0  0  0  0  0  0  0  0  0  0  0  0
  159.0282  131.6449  190.7713 C   0  0  0  0  0  0  0  0  0  0  0  0
  159.9333  131.7374  189.9100 O   0  0  0  0  0  0  0  0  0  0  0  0
  157.0280  132.1495  191.3483 H   0  0  0  0  0  0  0  0  0  0  0  0
  159.2747  130.8452  192.0251 C   0  0  0  0  0  0  0  0  0  0  0  0
  160.7066  130.8781  192.3240 N   0  0  0  0  0  0  0  0  0  0  0  0
  161.4546  129.6574  192.3942 C   0  0  0  0  0  0  0  0  0  0  0  0
  162.9074  129.6496  192.6867 C   0  0  0  0  0  0  0  0  0  0  0  0
  160.8183  128.5638  192.1925 O   0  0  0  0  0  0  0  0  0  0  0  0
  161.1847  131.7740  192.4891 H   0  0  0  0  0  0  0  0  0  0  0  0
  158.6167  131.6181  193.1622 C   0  0  0  0  0  0  0  0  0  0  0  0
  158.7067  130.9159  194.4512 C   0  0  0  0  0  0  0  0  0  0  0  0
  157.6131  130.0012  194.8337 C   0  0  0  0  0  0  0  0  0  0  0  0
  156.3665  130.1797  194.0230 C   0  0  0  0  0  0  0  0  0  0  0  0
  155.1896  129.8471  194.7393 N   0  0  0  0  0  0  0  0  0  0  0  0
  154.4556  130.6023  194.6667 H   0  0  0  0  0  0  0  0  0  0  0  0
  154.7182  128.9674  194.4732 H   0  0  0  0  0  0  0  0  0  0  0  0
  154.7018  138.5779  189.7755 C   0  0  0  0  0  0  0  0  0  0  0  0
  155.8035  137.5410  189.7795 C   0  0  0  0  0  0  0  0  0  0  0  0
  156.4918  137.4973  191.0986 C   0  0  0  0  0  0  0  0  0  0  0  0
  154.0410  138.2328  185.1736 C   0  0  0  0  0  0  0  0  0  0  0  0
  153.4908  139.0634  186.0102 O   0  0  0  0  0  0  0  0  0  0  0  0
  154.4320  138.8158  183.9696 N   0  0  0  0  0  0  0  0  0  0  0  0
  154.8776  138.2610  183.2278 H   0  0  0  0  0  0  0  0  0  0  0  0
  154.2135  140.2449  183.6937 C   0  0  0  0  0  0  0  0  0  0  0  0
  153.7490  140.3509  182.3154 C   0  0  0  0  0  0  0  0  0  0  0  0
  154.4530  141.0610  181.5038 O   0  0  0  0  0  0  0  0  0  0  0  0
  152.5521  139.7263  181.7399 C   0  0  0  0  0  0  0  0  0  0  0  0
  151.6326  138.9451  182.2459 N   0  0  0  0  0  0  0  0  0  0  0  0
  150.6444  138.4981  181.5217 C   0  0  0  0  0  0  0  0  0  0  0  0
  149.6092  137.6482  181.9666 C   0  0  0  0  0  0  0  0  0  0  0  0
  148.6375  137.2525  181.0886 C   0  0  0  0  0  0  0  0  0  0  0  0
  148.5887  137.6307  179.7668 C   0  0  0  0  0  0  0  0  0  0  0  0
  149.5935  138.4566  179.3326 C   0  0  0  0  0  0  0  0  0  0  0  0
  150.6128  138.8864  180.2020 C   0  0  0  0  0  0  0  0  0  0  0  0
  152.0039  139.8645  180.0969 S   0  0  0  0  0  0  0  0  0  0  0  0
  155.6123  140.9155  183.7593 C   0  0  0  0  0  0  0  0  0  0  0  0
  156.7329  139.9470  183.7916 C   0  0  0  0  0  0  0  0  0  0  0  0
  157.8708  140.3704  182.8571 C   0  0  0  0  0  0  0  0  0  0  0  0
  157.3448  140.6918  181.5456 N   0  0  0  0  0  0  0  0  0  0  0  0
  156.4431  140.2841  181.1996 H   0  0  0  0  0  0  0  0  0  0  0  0
  158.0162  141.5749  180.6514 C   0  0  0  0  0  0  0  0  0  0  0  0
  158.9241  142.5806  181.0703 N   0  0  0  0  0  0  0  0  0  0  0  0
  157.7720  141.4371  179.3699 N   0  0  0  0  0  0  0  0  0  0  0  0
  159.8895  142.5982  180.6721 H   0  0  0  0  0  0  0  0  0  0  0  0
  158.6583  143.3074  181.7672 H   0  0  0  0  0  0  0  0  0  0  0  0
  158.2513  142.0714  178.6775 H   0  0  0  0  0  0  0  0  0  0  0  0
  154.1110  135.7794  184.6488 C   0  0  0  0  0  0  0  0  0  0  0  0
  153.2671  135.7198  183.4661 C   0  0  0  0  0  0  0  0  0  0  0  0
  151.7979  135.4866  183.8194 C   0  0  0  0  0  0  0  0  0  0  0  0
  153.5960  134.8412  182.3222 C   0  0  0  0  0  0  0  0  0  0  0  0
 30 31  1  0  0  0
 31 32  1  0  0  0
 31  6  1  0  0  0
  6  7  1  0  0  0
  7  8  1  0  0  0
  8  9  2  0  0  0
  8 11  1  0  0  0
 11 12  1  0  0  0
 11 13  1  0  0  0
 13 14  1  0  0  0
 14 15  2  0  0  0
 14 17  1  0  0  0
 17 23  1  0  0  0
 23 24  1  0  0  0
 24 25  1  0  0  0
 25 26  1  0  0  0
 26 27  1  0  0  0
 17 18  1  0  0  0
 18 19  1  0  0  0
 19 20  1  0  0  0
 19 21  2  0  0  0
  6  2  1  0  0  0
  2  3  2  0  0  0
  2  4  1  0  0  0
  4  1  1  0  0  0
  1 60  1  0  0  0
 60 61  1  0  0  0
 61 62  1  0  0  0
 61 63  1  0  0  0
  1 33  1  0  0  0
 33 34  2  0  0  0
 33 35  1  0  0  0
 35 37  1  0  0  0
 37 49  1  0  0  0
 49 50  1  0  0  0
 50 51  1  0  0  0
 51 52  1  0  0  0
 52 54  1  0  0  0
 54 55  1  0  0  0
 54 56  2  0  0  0
 37 38  1  0  0  0
 38 39  2  0  0  0
 38 40  1  0  0  0
 40 41  2  0  0  0
 41 42  1  0  0  0
 42 43  2  0  0  0
 43 44  1  0  0  0
 44 45  2  0  0  0
 45 46  1  0  0  0
 46 47  2  0  0  0
 47 48  1  0  0  0
 48 40  1  0  0  0
 47 42  1  0  0  0
  7 10  1  0  0  0
 13 16  1  0  0  0
 27 28  1  0  0  0
 27 29  1  0  0  0
 18 22  1  0  0  0
  4  5  1  0  0  0
 35 36  1  0  0  0
 52 53  1  0  0  0
 55 57  1  0  0  0
 55 58  1  0  0  0
 56 59  1  0  0  0
M  END
> <minimizedAffinity>
-6.56616

> <CNNscore>
0.2810305059

> <CNNaffinity>
6.4420485497

> <CNN_VS>
1.8104121685

> <CNNaffinity_variance>
0.3181225061

$$$$
[H]N=C(N([H])[H])N([H])C([H])([H])C([H])([H])C([H])([H])[C@@]([H])(C(=O)c1nc2c([H])c([H])c([H])c([H])c2s1)N([H])C(=O)[C@]([H])(N([H])C(=O)[C@@]([H])(N([H])C(=O)[C@@]([H])(N([H])C(=O)[C@@]([H])(N([H])C(=O)C([H])([H])[H])C([H])([H])C([H])([H])C([H])([H])C([H])([H])N([H])[H])C([H])([H])[H])C([H])(C([H])([H])[H])C([H])([H])[H])C([H])([H])C([H])(C([H])([H])[H])C([H])([H])[H]


 63 64  0  0  0  0  0  0  0  0999 V2000
  152.1648  138.9964  182.3708 C   0  0  0  0  0  0  0  0  0  0  0  0
  152.6266  137.0275  183.8760 C   0  0  0  0  0  0  0  0  0  0  0  0
  152.5788  137.8150  184.8441 O   0  0  0  0  0  0  0  0  0  0  0  0
  152.4235  137.6103  182.5733 N   0  0  0  0  0  0  0  0  0  0  0  0
  152.4843  136.9488  181.7941 H   0  0  0  0  0  0  0  0  0  0  0  0
  152.8873  135.6246  184.1423 C   0  0  0  0  0  0  0  0  0  0  0  0
  152.7218  135.4652  185.5821 N   0  0  0  0  0  0  0  0  0  0  0  0
  153.7482  135.1519  186.4603 C   0  0  0  0  0  0  0  0  0  0  0  0
  154.9021  134.9667  185.9408 O   0  0  0  0  0  0  0  0  0  0  0  0
  151.7575  135.6060  185.9470 H   0  0  0  0  0  0  0  0  0  0  0  0
  153.6114  135.0295  187.9003 C   0  0  0  0  0  0  0  0  0  0  0  0
  152.9941  136.3604  188.4601 C   0  0  0  0  0  0  0  0  0  0  0  0
  154.9395  135.0136  188.5370 N   0  0  0  0  0  0  0  0  0  0  0  0
  155.1423  134.3148  189.7514 C   0  0  0  0  0  0  0  0  0  0  0  0
  154.2151  133.7084  190.3362 O   0  0  0  0  0  0  0  0  0  0  0  0
  155.7398  135.5249  188.0879 H   0  0  0  0  0  0  0  0  0  0  0  0
  156.5257  134.3120  190.3503 C   0  0  0  0  0  0  0  0  0  0  0  0
  157.4419  134.9552  189.4082 N   0  0  0  0  0  0  0  0  0  0  0  0
  158.5344  134.2150  188.8487 C   0  0  0  0  0  0  0  0  0  0  0  0
  159.4791  134.8284  187.8857 C   0  0  0  0  0  0  0  0  0  0  0  0
  158.6663  132.9935  189.2124 O   0  0  0  0  0  0  0  0  0  0  0  0
  157.3116  135.9409  189.1441 H   0  0  0  0  0  0  0  0  0  0  0  0
  156.4741  135.2484  191.5518 C   0  0  0  0  0  0  0  0  0  0  0  0
  155.5390  136.3668  191.3590 C   0  0  0  0  0  0  0  0  0  0  0  0
  156.0912  137.7204  191.1552 C   0  0  0  0  0  0  0  0  0  0  0  0
  155.6672  138.3570  189.8675 C   0  0  0  0  0  0  0  0  0  0  0  0
  156.3031  137.7893  188.7352 N   0  0  0  0  0  0  0  0  0  0  0  0
  155.6120  137.5384  187.9776 H   0  0  0  0  0  0  0  0  0  0  0  0
  157.0305  138.3618  188.2766 H   0  0  0  0  0  0  0  0  0  0  0  0
  152.8303  133.9397  182.3562 C   0  0  0  0  0  0  0  0  0  0  0  0
  151.9927  134.6807  183.3752 C   0  0  0  0  0  0  0  0  0  0  0  0
  151.2036  133.7335  184.2094 C   0  0  0  0  0  0  0  0  0  0  0  0
  153.4277  139.7728  182.4308 C   0  0  0  0  0  0  0  0  0  0  0  0
  153.8017  140.3466  181.3247 O   0  0  0  0  0  0  0  0  0  0  0  0
  154.2927  139.9877  183.5022 N   0  0  0  0  0  0  0  0  0  0  0  0
  154.1050  139.5844  184.4289 H   0  0  0  0  0  0  0  0  0  0  0  0
  155.5211  140.7854  183.3583 C   0  0  0  0  0  0  0  0  0  0  0  0
  156.4841  140.2708  184.3250 C   0  0  0  0  0  0  0  0  0  0  0  0
  156.1479  139.2276  185.0012 O   0  0  0  0  0  0  0  0  0  0  0  0
  157.8156  140.8153  184.6157 C   0  0  0  0  0  0  0  0  0  0  0  0
  158.2994  141.4671  185.6418 N   0  0  0  0  0  0  0  0  0  0  0  0
  159.5408  141.8656  185.6719 C   0  0  0  0  0  0  0  0  0  0  0  0
  160.1568  142.5789  186.7226 C   0  0  0  0  0  0  0  0  0  0  0  0
  161.4721  142.9388  186.6129 C   0  0  0  0  0  0  0  0  0  0  0  0
  162.2651  142.6500  185.5264 C   0  0  0  0  0  0  0  0  0  0  0  0
  161.6685  141.9569  184.5046 C   0  0  0  0  0  0  0  0  0  0  0  0
  160.3181  141.5684  184.5763 C   0  0  0  0  0  0  0  0  0  0  0  0
  159.2104  140.7388  183.5825 S   0  0  0  0  0  0  0  0  0  0  0  0
  155.1530  142.2275  183.8006 C   0  0  0  0  0  0  0  0  0  0  0  0
  155.2398  143.2231  182.7071 C   0  0  0  0  0  0  0  0  0  0  0  0
  156.6911  143.4670  182.2807 C   0  0  0  0  0  0  0  0  0  0  0  0
  157.0215  142.6358  181.1405 N   0  0  0  0  0  0  0  0  0  0  0  0
  156.4183  141.8270  180.8563 H   0  0  0  0  0  0  0  0  0  0  0  0
  158.1790  142.8645  180.3415 C   0  0  0  0  0  0  0  0  0  0  0  0
  158.5137  142.0927  179.1999 N   0  0  0  0  0  0  0  0  0  0  0  0
  158.9702  143.8499  180.6932 N   0  0  0  0  0  0  0  0  0  0  0  0
  158.6684  142.5713  178.2846 H   0  0  0  0  0  0  0  0  0  0  0  0
  158.6109  141.0567  179.2442 H   0  0  0  0  0  0  0  0  0  0  0  0
  159.8356  144.0506  180.1255 H   0  0  0  0  0  0  0  0  0  0  0  0
  151.1038  139.4743  181.5310 C   0  0  0  0  0  0  0  0  0  0  0  0
  150.7795  139.0306  180.1847 C   0  0  0  0  0  0  0  0  0  0  0  0
  150.9538  140.1465  179.1541 C   0  0  0  0  0  0  0  0  0  0  0  0
  149.5079  138.3376  179.8817 C   0  0  0  0  0  0  0  0  0  0  0  0
 30 31  1  0  0  0
 31 32  1  0  0  0
 31  6  1  0  0  0
  6  7  1  0  0  0
  7  8  1  0  0  0
  8  9  2  0  0  0
  8 11  1  0  0  0
 11 12  1  0  0  0
 11 13  1  0  0  0
 13 14  1  0  0  0
 14 15  2  0  0  0
 14 17  1  0  0  0
 17 23  1  0  0  0
 23 24  1  0  0  0
 24 25  1  0  0  0
 25 26  1  0  0  0
 26 27  1  0  0  0
 17 18  1  0  0  0
 18 19  1  0  0  0
 19 20  1  0  0  0
 19 21  2  0  0  0
  6  2  1  0  0  0
  2  3  2  0  0  0
  2  4  1  0  0  0
  4  1  1  0  0  0
  1 60  1  0  0  0
 60 61  1  0  0  0
 61 62  1  0  0  0
 61 63  1  0  0  0
  1 33  1  0  0  0
 33 34  2  0  0  0
 33 35  1  0  0  0
 35 37  1  0  0  0
 37 49  1  0  0  0
 49 50  1  0  0  0
 50 51  1  0  0  0
 51 52  1  0  0  0
 52 54  1  0  0  0
 54 55  1  0  0  0
 54 56  2  0  0  0
 37 38  1  0  0  0
 38 39  2  0  0  0
 38 40  1  0  0  0
 40 41  2  0  0  0
 41 42  1  0  0  0
 42 43  2  0  0  0
 43 44  1  0  0  0
 44 45  2  0  0  0
 45 46  1  0  0  0
 46 47  2  0  0  0
 47 48  1  0  0  0
 48 40  1  0  0  0
 47 42  1  0  0  0
  7 10  1  0  0  0
 13 16  1  0  0  0
 27 28  1  0  0  0
 27 29  1  0  0  0
 18 22  1  0  0  0
  4  5  1  0  0  0
 35 36  1  0  0  0
 52 53  1  0  0  0
 55 57  1  0  0  0
 55 58  1  0  0  0
 56 59  1  0  0  0
M  END
> <minimizedAffinity>
-7.89984

> <CNNscore>
0.2493663877

> <CNNaffinity>
7.4563608170

> <CNN_VS>
1.8593658209

> <CNNaffinity_variance>
0.6072463989

$$$$
[H]N=C(N([H])[H])N([H])C([H])([H])C([H])([H])C([H])([H])[C@@]([H])(C(=O)c1nc2c([H])c([H])c([H])c([H])c2s1)N([H])C(=O)[C@]([H])(N([H])C(=O)[C@@]([H])(N([H])C(=O)[C@@]([H])(N([H])C(=O)[C@@]([H])(N([H])C(=O)C([H])([H])[H])C([H])([H])C([H])([H])C([H])([H])C([H])([H])N([H])[H])C([H])([H])[H])C([H])(C([H])([H])[H])C([H])([H])[H])C([H])([H])C([H])(C([H])([H])[H])C([H])([H])[H]


 63 64  0  0  0  0  0  0  0  0999 V2000
  153.8387  136.8604  185.6686 C   0  0  0  0  0  0  0  0  0  0  0  0
  154.2543  136.6373  188.1451 C   0  0  0  0  0  0  0  0  0  0  0  0
  153.0175  136.6890  188.3106 O   0  0  0  0  0  0  0  0  0  0  0  0
  154.7165  136.7318  186.7830 N   0  0  0  0  0  0  0  0  0  0  0  0
  155.7342  136.7045  186.6733 H   0  0  0  0  0  0  0  0  0  0  0  0
  155.1002  136.4995  189.3165 C   0  0  0  0  0  0  0  0  0  0  0  0
  156.2838  135.7817  188.8588 N   0  0  0  0  0  0  0  0  0  0  0  0
  156.6341  134.5039  189.2682 C   0  0  0  0  0  0  0  0  0  0  0  0
  155.8645  133.9534  190.1287 O   0  0  0  0  0  0  0  0  0  0  0  0
  156.8853  136.2860  188.1758 H   0  0  0  0  0  0  0  0  0  0  0  0
  157.7849  133.7574  188.7933 C   0  0  0  0  0  0  0  0  0  0  0  0
  157.3111  132.7658  187.6717 C   0  0  0  0  0  0  0  0  0  0  0  0
  158.2595  132.8358  189.8396 N   0  0  0  0  0  0  0  0  0  0  0  0
  159.4759  132.1307  189.6740 C   0  0  0  0  0  0  0  0  0  0  0  0
  160.1776  132.2423  188.6422 O   0  0  0  0  0  0  0  0  0  0  0  0
  157.6912  132.7002  190.7127 H   0  0  0  0  0  0  0  0  0  0  0  0
  159.9272  131.2162  190.7841 C   0  0  0  0  0  0  0  0  0  0  0  0
  158.8229  131.0524  191.7299 N   0  0  0  0  0  0  0  0  0  0  0  0
  159.0936  130.8339  193.1204 C   0  0  0  0  0  0  0  0  0  0  0  0
  158.0029  130.6709  194.1103 C   0  0  0  0  0  0  0  0  0  0  0  0
  160.3221  130.7849  193.4811 O   0  0  0  0  0  0  0  0  0  0  0  0
  157.8475  131.0889  191.4046 H   0  0  0  0  0  0  0  0  0  0  0  0
  160.1156  129.8404  190.1558 C   0  0  0  0  0  0  0  0  0  0  0  0
  161.5319  129.4696  190.0176 C   0  0  0  0  0  0  0  0  0  0  0  0
  162.5204  130.1207  190.8996 C   0  0  0  0  0  0  0  0  0  0  0  0
  163.8237  129.3882  190.9886 C   0  0  0  0  0  0  0  0  0  0  0  0
  164.2781  128.9150  189.7323 N   0  0  0  0  0  0  0  0  0  0  0  0
  165.2860  129.1729  189.5533 H   0  0  0  0  0  0  0  0  0  0  0  0
  164.2132  127.8969  189.5695 H   0  0  0  0  0  0  0  0  0  0  0  0
  154.6718  137.9625  191.2422 C   0  0  0  0  0  0  0  0  0  0  0  0
  155.4665  137.8136  189.9634 C   0  0  0  0  0  0  0  0  0  0  0  0
  156.9202  138.0174  190.2105 C   0  0  0  0  0  0  0  0  0  0  0  0
  153.8021  138.2670  185.1980 C   0  0  0  0  0  0  0  0  0  0  0  0
  153.1880  139.1148  185.9704 O   0  0  0  0  0  0  0  0  0  0  0  0
  154.3292  138.8338  184.0390 N   0  0  0  0  0  0  0  0  0  0  0  0
  154.8360  138.2646  183.3493 H   0  0  0  0  0  0  0  0  0  0  0  0
  154.1741  140.2659  183.7372 C   0  0  0  0  0  0  0  0  0  0  0  0
  153.7310  140.3681  182.3516 C   0  0  0  0  0  0  0  0  0  0  0  0
  154.4393  141.0881  181.5526 O   0  0  0  0  0  0  0  0  0  0  0  0
  152.5516  139.7294  181.7557 C   0  0  0  0  0  0  0  0  0  0  0  0
  151.6612  138.8977  182.2325 N   0  0  0  0  0  0  0  0  0  0  0  0
  150.6837  138.4495  181.4946 C   0  0  0  0  0  0  0  0  0  0  0  0
  149.6795  137.5479  181.9079 C   0  0  0  0  0  0  0  0  0  0  0  0
  148.7159  137.1580  181.0185 C   0  0  0  0  0  0  0  0  0  0  0  0
  148.6466  137.5901  179.7142 C   0  0  0  0  0  0  0  0  0  0  0  0
  149.6212  138.4663  179.3108 C   0  0  0  0  0  0  0  0  0  0  0  0
  150.6312  138.8922  180.1929 C   0  0  0  0  0  0  0  0  0  0  0  0
  151.9890  139.9190  180.1228 S   0  0  0  0  0  0  0  0  0  0  0  0
  155.5988  140.8786  183.8096 C   0  0  0  0  0  0  0  0  0  0  0  0
  156.6803  139.8662  183.8046 C   0  0  0  0  0  0  0  0  0  0  0  0
  157.9807  140.4333  183.2261 C   0  0  0  0  0  0  0  0  0  0  0  0
  158.6036  141.3263  184.1826 N   0  0  0  0  0  0  0  0  0  0  0  0
  158.1139  141.6179  185.0624 H   0  0  0  0  0  0  0  0  0  0  0  0
  159.9102  141.8599  183.9872 C   0  0  0  0  0  0  0  0  0  0  0  0
  160.2496  143.2175  184.2168 N   0  0  0  0  0  0  0  0  0  0  0  0
  160.8429  141.0360  183.5723 N   0  0  0  0  0  0  0  0  0  0  0  0
  161.0336  143.4472  184.8675 H   0  0  0  0  0  0  0  0  0  0  0  0
  159.7391  143.9989  183.7548 H   0  0  0  0  0  0  0  0  0  0  0  0
  161.8225  141.3939  183.4178 H   0  0  0  0  0  0  0  0  0  0  0  0
  153.6395  135.8102  184.7110 C   0  0  0  0  0  0  0  0  0  0  0  0
  152.6166  135.7423  183.6797 C   0  0  0  0  0  0  0  0  0  0  0  0
  151.5294  134.7207  184.0147 C   0  0  0  0  0  0  0  0  0  0  0  0
  152.9649  135.5716  182.2520 C   0  0  0  0  0  0  0  0  0  0  0  0
 30 31  1  0  0  0
 31 32  1  0  0  0
 31  6  1  0  0  0
  6  7  1  0  0  0
  7  8  1  0  0  0
  8  9  2  0  0  0
  8 11  1  0  0  0
 11 12  1  0  0  0
 11 13  1  0  0  0
 13 14  1  0  0  0
 14 15  2  0  0  0
 14 17  1  0  0  0
 17 23  1  0  0  0
 23 24  1  0  0  0
 24 25  1  0  0  0
 25 26  1  0  0  0
 26 27  1  0  0  0
 17 18  1  0  0  0
 18 19  1  0  0  0
 19 20  1  0  0  0
 19 21  2  0  0  0
  6  2  1  0  0  0
  2  3  2  0  0  0
  2  4  1  0  0  0
  4  1  1  0  0  0
  1 60  1  0  0  0
 60 61  1  0  0  0
 61 62  1  0  0  0
 61 63  1  0  0  0
  1 33  1  0  0  0
 33 34  2  0  0  0
 33 35  1  0  0  0
 35 37  1  0  0  0
 37 49  1  0  0  0
 49 50  1  0  0  0
 50 51  1  0  0  0
 51 52  1  0  0  0
 52 54  1  0  0  0
 54 55  1  0  0  0
 54 56  2  0  0  0
 37 38  1  0  0  0
 38 39  2  0  0  0
 38 40  1  0  0  0
 40 41  2  0  0  0
 41 42  1  0  0  0
 42 43  2  0  0  0
 43 44  1  0  0  0
 44 45  2  0  0  0
 45 46  1  0  0  0
 46 47  2  0  0  0
 47 48  1  0  0  0
 48 40  1  0  0  0
 47 42  1  0  0  0
  7 10  1  0  0  0
 13 16  1  0  0  0
 27 28  1  0  0  0
 27 29  1  0  0  0
 18 22  1  0  0  0
  4  5  1  0  0  0
 35 36  1  0  0  0
 52 53  1  0  0  0
 55 57  1  0  0  0
 55 58  1  0  0  0
 56 59  1  0  0  0
M  END
> <minimizedAffinity>
-6.42293

> <CNNscore>
0.2386355400

> <CNNaffinity>
6.5037508011

> <CNN_VS>
1.5520260334

> <CNNaffinity_variance>
0.3092512190

$$$$
[H]N=C(N([H])[H])N([H])C([H])([H])C([H])([H])C([H])([H])[C@@]([H])(C(=O)c1nc2c([H])c([H])c([H])c([H])c2s1)N([H])C(=O)[C@]([H])(N([H])C(=O)[C@@]([H])(N([H])C(=O)[C@@]([H])(N([H])C(=O)[C@@]([H])(N([H])C(=O)C([H])([H])[H])C([H])([H])C([H])([H])C([H])([H])C([H])([H])N([H])[H])C([H])([H])[H])C([H])(C([H])([H])[H])C([H])([H])[H])C([H])([H])C([H])(C([H])([H])[H])C([H])([H])[H]


 63 64  0  0  0  0  0  0  0  0999 V2000
  152.9241  138.5727  183.5507 C   0  0  0  0  0  0  0  0  0  0  0  0
  154.0634  136.6658  184.7427 C   0  0  0  0  0  0  0  0  0  0  0  0
  154.2517  136.1405  183.6254 O   0  0  0  0  0  0  0  0  0  0  0  0
  153.3681  137.9285  184.7410 N   0  0  0  0  0  0  0  0  0  0  0  0
  153.2100  138.3315  185.6690 H   0  0  0  0  0  0  0  0  0  0  0  0
  154.5431  135.9672  185.9211 C   0  0  0  0  0  0  0  0  0  0  0  0
  154.4438  136.9304  187.0111 N   0  0  0  0  0  0  0  0  0  0  0  0
  155.4296  137.1430  187.9631 C   0  0  0  0  0  0  0  0  0  0  0  0
  156.4733  136.4097  187.8718 O   0  0  0  0  0  0  0  0  0  0  0  0
  153.5637  137.4843  187.0494 H   0  0  0  0  0  0  0  0  0  0  0  0
  155.3666  138.1251  189.0302 C   0  0  0  0  0  0  0  0  0  0  0  0
  156.6159  137.9336  189.9620 C   0  0  0  0  0  0  0  0  0  0  0  0
  154.2516  137.8142  189.9411 N   0  0  0  0  0  0  0  0  0  0  0  0
  154.2762  136.6362  190.7260 C   0  0  0  0  0  0  0  0  0  0  0  0
  155.2189  135.8133  190.6664 O   0  0  0  0  0  0  0  0  0  0  0  0
  153.4333  138.4697  190.0073 H   0  0  0  0  0  0  0  0  0  0  0  0
  153.1204  136.3758  191.6579 C   0  0  0  0  0  0  0  0  0  0  0  0
  152.0273  135.7807  190.8886 N   0  0  0  0  0  0  0  0  0  0  0  0
  150.6669  136.1015  191.2060 C   0  0  0  0  0  0  0  0  0  0  0  0
  149.5328  135.5255  190.4455 C   0  0  0  0  0  0  0  0  0  0  0  0
  150.4636  136.9113  192.1778 O   0  0  0  0  0  0  0  0  0  0  0  0
  152.2262  135.1271  190.1193 H   0  0  0  0  0  0  0  0  0  0  0  0
  153.5769  135.2762  192.6096 C   0  0  0  0  0  0  0  0  0  0  0  0
  152.8680  135.3111  193.8976 C   0  0  0  0  0  0  0  0  0  0  0  0
  151.9130  134.2287  194.2062 C   0  0  0  0  0  0  0  0  0  0  0  0
  150.8779  134.6088  195.2196 C   0  0  0  0  0  0  0  0  0  0  0  0
  149.7206  135.1842  194.6378 N   0  0  0  0  0  0  0  0  0  0  0  0
  148.8339  134.7357  194.9944 H   0  0  0  0  0  0  0  0  0  0  0  0
  149.5946  136.2015  194.7655 H   0  0  0  0  0  0  0  0  0  0  0  0
  152.3058  134.9599  186.0311 C   0  0  0  0  0  0  0  0  0  0  0  0
  153.7827  134.7004  186.2320 C   0  0  0  0  0  0  0  0  0  0  0  0
  154.2211  133.4943  185.4778 C   0  0  0  0  0  0  0  0  0  0  0  0
  153.9642  139.5031  183.0468 C   0  0  0  0  0  0  0  0  0  0  0  0
  153.7404  140.0378  181.8821 O   0  0  0  0  0  0  0  0  0  0  0  0
  155.1645  139.9011  183.6327 N   0  0  0  0  0  0  0  0  0  0  0  0
  155.4529  139.5455  184.5530 H   0  0  0  0  0  0  0  0  0  0  0  0
  156.0833  140.8335  182.9601 C   0  0  0  0  0  0  0  0  0  0  0  0
  157.4346  140.3200  183.1526 C   0  0  0  0  0  0  0  0  0  0  0  0
  157.7257  139.1921  182.6034 O   0  0  0  0  0  0  0  0  0  0  0  0
  158.5179  140.9564  183.9112 C   0  0  0  0  0  0  0  0  0  0  0  0
  158.5954  141.3974  185.1405 N   0  0  0  0  0  0  0  0  0  0  0  0
  159.6860  141.9451  185.6003 C   0  0  0  0  0  0  0  0  0  0  0  0
  159.8707  142.4575  186.9024 C   0  0  0  0  0  0  0  0  0  0  0  0
  161.0734  143.0127  187.2442 C   0  0  0  0  0  0  0  0  0  0  0  0
  162.1493  143.1124  186.3927 C   0  0  0  0  0  0  0  0  0  0  0  0
  161.9719  142.6150  185.1272 C   0  0  0  0  0  0  0  0  0  0  0  0
  160.7510  142.0368  184.7340 C   0  0  0  0  0  0  0  0  0  0  0  0
  160.1092  141.3304  183.3226 S   0  0  0  0  0  0  0  0  0  0  0  0
  155.9860  142.1726  183.7399 C   0  0  0  0  0  0  0  0  0  0  0  0
  155.9111  143.3647  182.8635 C   0  0  0  0  0  0  0  0  0  0  0  0
  156.2704  143.0221  181.4140 C   0  0  0  0  0  0  0  0  0  0  0  0
  157.6471  143.3845  181.1432 N   0  0  0  0  0  0  0  0  0  0  0  0
  158.1393  144.1270  181.6957 H   0  0  0  0  0  0  0  0  0  0  0  0
  158.4111  142.7590  180.1158 C   0  0  0  0  0  0  0  0  0  0  0  0
  159.5412  143.3548  179.5003 N   0  0  0  0  0  0  0  0  0  0  0  0
  158.0368  141.5629  179.7284 N   0  0  0  0  0  0  0  0  0  0  0  0
  160.4520  142.8437  179.4961 H   0  0  0  0  0  0  0  0  0  0  0  0
  159.4928  144.2922  179.0492 H   0  0  0  0  0  0  0  0  0  0  0  0
  158.5784  141.0677  178.9715 H   0  0  0  0  0  0  0  0  0  0  0  0
  152.0517  137.9395  182.6034 C   0  0  0  0  0  0  0  0  0  0  0  0
  150.6011  138.0259  182.5486 C   0  0  0  0  0  0  0  0  0  0  0  0
  149.9364  136.6622  182.7394 C   0  0  0  0  0  0  0  0  0  0  0  0
  149.9064  138.7094  181.4355 C   0  0  0  0  0  0  0  0  0  0  0  0
 30 31  1  0  0  0
 31 32  1  0  0  0
 31  6  1  0  0  0
  6  7  1  0  0  0
  7  8  1  0  0  0
  8  9  2  0  0  0
  8 11  1  0  0  0
 11 12  1  0  0  0
 11 13  1  0  0  0
 13 14  1  0  0  0
 14 15  2  0  0  0
 14 17  1  0  0  0
 17 23  1  0  0  0
 23 24  1  0  0  0
 24 25  1  0  0  0
 25 26  1  0  0  0
 26 27  1  0  0  0
 17 18  1  0  0  0
 18 19  1  0  0  0
 19 20  1  0  0  0
 19 21  2  0  0  0
  6  2  1  0  0  0
  2  3  2  0  0  0
  2  4  1  0  0  0
  4  1  1  0  0  0
  1 60  1  0  0  0
 60 61  1  0  0  0
 61 62  1  0  0  0
 61 63  1  0  0  0
  1 33  1  0  0  0
 33 34  2  0  0  0
 33 35  1  0  0  0
 35 37  1  0  0  0
 37 49  1  0  0  0
 49 50  1  0  0  0
 50 51  1  0  0  0
 51 52  1  0  0  0
 52 54  1  0  0  0
 54 55  1  0  0  0
 54 56  2  0  0  0
 37 38  1  0  0  0
 38 39  2  0  0  0
 38 40  1  0  0  0
 40 41  2  0  0  0
 41 42  1  0  0  0
 42 43  2  0  0  0
 43 44  1  0  0  0
 44 45  2  0  0  0
 45 46  1  0  0  0
 46 47  2  0  0  0
 47 48  1  0  0  0
 48 40  1  0  0  0
 47 42  1  0  0  0
  7 10  1  0  0  0
 13 16  1  0  0  0
 27 28  1  0  0  0
 27 29  1  0  0  0
 18 22  1  0  0  0
  4  5  1  0  0  0
 35 36  1  0  0  0
 52 53  1  0  0  0
 55 57  1  0  0  0
 55 58  1  0  0  0
 56 59  1  0  0  0
M  END
> <minimizedAffinity>
-7.62572

> <CNNscore>
0.2295232117

> <CNNaffinity>
7.2177925110

> <CNN_VS>
1.6566509008

> <CNNaffinity_variance>
0.3919220567

$$$$
[H]N=C(N([H])[H])N([H])C([H])([H])C([H])([H])C([H])([H])[C@@]([H])(C(=O)c1nc2c([H])c([H])c([H])c([H])c2s1)N([H])C(=O)[C@]([H])(N([H])C(=O)[C@@]([H])(N([H])C(=O)[C@@]([H])(N([H])C(=O)[C@@]([H])(N([H])C(=O)C([H])([H])[H])C([H])([H])C([H])([H])C([H])([H])C([H])([H])N([H])[H])C([H])([H])[H])C([H])(C([H])([H])[H])C([H])([H])[H])C([H])([H])C([H])(C([H])([H])[H])C([H])([H])[H]


 63 64  0  0  0  0  0  0  0  0999 V2000
  154.5740  137.6860  188.2045 C   0  0  0  0  0  0  0  0  0  0  0  0
  155.9004  135.5541  187.9793 C   0  0  0  0  0  0  0  0  0  0  0  0
  156.9376  136.2452  188.0586 O   0  0  0  0  0  0  0  0  0  0  0  0
  154.6526  136.2729  188.0436 N   0  0  0  0  0  0  0  0  0  0  0  0
  153.8166  135.6877  187.9592 H   0  0  0  0  0  0  0  0  0  0  0  0
  156.0408  134.1179  187.8225 C   0  0  0  0  0  0  0  0  0  0  0  0
  154.7382  133.5603  188.1659 N   0  0  0  0  0  0  0  0  0  0  0  0
  154.5161  132.6633  189.1999 C   0  0  0  0  0  0  0  0  0  0  0  0
  155.5465  132.2948  189.8618 O   0  0  0  0  0  0  0  0  0  0  0  0
  153.9390  133.8786  187.5804 H   0  0  0  0  0  0  0  0  0  0  0  0
  153.2218  132.1293  189.5830 C   0  0  0  0  0  0  0  0  0  0  0  0
  152.7120  131.1820  188.4391 C   0  0  0  0  0  0  0  0  0  0  0  0
  152.2084  133.1982  189.5731 N   0  0  0  0  0  0  0  0  0  0  0  0
  151.1138  133.1546  190.4698 C   0  0  0  0  0  0  0  0  0  0  0  0
  150.9517  132.2137  191.2809 O   0  0  0  0  0  0  0  0  0  0  0  0
  152.2980  133.9962  188.8957 H   0  0  0  0  0  0  0  0  0  0  0  0
  150.1164  134.2843  190.4334 C   0  0  0  0  0  0  0  0  0  0  0  0
  149.0931  134.0344  191.4488 N   0  0  0  0  0  0  0  0  0  0  0  0
  147.8459  133.4321  191.0797 C   0  0  0  0  0  0  0  0  0  0  0  0
  146.7878  133.1560  192.0799 C   0  0  0  0  0  0  0  0  0  0  0  0
  147.6766  133.1372  189.8444 O   0  0  0  0  0  0  0  0  0  0  0  0
  149.2590  134.2915  192.4311 H   0  0  0  0  0  0  0  0  0  0  0  0
  150.8572  135.5254  190.9172 C   0  0  0  0  0  0  0  0  0  0  0  0
  150.2814  136.0847  192.1493 C   0  0  0  0  0  0  0  0  0  0  0  0
  151.1316  136.1607  193.3536 C   0  0  0  0  0  0  0  0  0  0  0  0
  151.9240  134.9163  193.6117 C   0  0  0  0  0  0  0  0  0  0  0  0
  152.6610  134.9718  194.8211 N   0  0  0  0  0  0  0  0  0  0  0  0
  152.5145  134.1104  195.4135 H   0  0  0  0  0  0  0  0  0  0  0  0
  153.6841  135.0859  194.7354 H   0  0  0  0  0  0  0  0  0  0  0  0
  157.5869  132.6750  186.5735 C   0  0  0  0  0  0  0  0  0  0  0  0
  156.4765  133.6941  186.4404 C   0  0  0  0  0  0  0  0  0  0  0  0
  155.3895  133.1883  185.5582 C   0  0  0  0  0  0  0  0  0  0  0  0
  154.0816  138.3223  186.9579 C   0  0  0  0  0  0  0  0  0  0  0  0
  152.9062  138.8761  187.0217 O   0  0  0  0  0  0  0  0  0  0  0  0
  154.6885  138.4215  185.7072 N   0  0  0  0  0  0  0  0  0  0  0  0
  155.6189  138.0212  185.5320 H   0  0  0  0  0  0  0  0  0  0  0  0
  154.0248  139.0870  184.5745 C   0  0  0  0  0  0  0  0  0  0  0  0
  153.4841  138.0390  183.7166 C   0  0  0  0  0  0  0  0  0  0  0  0
  154.0121  136.8677  183.8042 O   0  0  0  0  0  0  0  0  0  0  0  0
  152.3861  138.1712  182.7518 C   0  0  0  0  0  0  0  0  0  0  0  0
  151.1309  137.8034  182.7852 N   0  0  0  0  0  0  0  0  0  0  0  0
  150.3286  138.0268  181.7816 C   0  0  0  0  0  0  0  0  0  0  0  0
  148.9659  137.6658  181.7139 C   0  0  0  0  0  0  0  0  0  0  0  0
  148.2455  137.9599  180.5886 C   0  0  0  0  0  0  0  0  0  0  0  0
  148.7610  138.6004  179.4856 C   0  0  0  0  0  0  0  0  0  0  0  0
  150.0849  138.9522  179.5495 C   0  0  0  0  0  0  0  0  0  0  0  0
  150.8622  138.6677  180.6872 C   0  0  0  0  0  0  0  0  0  0  0  0
  152.4767  138.9025  181.1783 S   0  0  0  0  0  0  0  0  0  0  0  0
  155.1485  139.8003  183.7750 C   0  0  0  0  0  0  0  0  0  0  0  0
  154.7395  141.1112  183.2190 C   0  0  0  0  0  0  0  0  0  0  0  0
  155.9246  141.8511  182.5900 C   0  0  0  0  0  0  0  0  0  0  0  0
  156.5940  140.9951  181.6312 N   0  0  0  0  0  0  0  0  0  0  0  0
  156.2246  140.0438  181.3914 H   0  0  0  0  0  0  0  0  0  0  0  0
  157.7875  141.3904  180.9607 C   0  0  0  0  0  0  0  0  0  0  0  0
  158.9497  141.8541  181.6279 N   0  0  0  0  0  0  0  0  0  0  0  0
  157.7977  141.3144  179.6511 N   0  0  0  0  0  0  0  0  0  0  0  0
  159.8641  141.3798  181.4548 H   0  0  0  0  0  0  0  0  0  0  0  0
  158.9216  142.6575  182.2899 H   0  0  0  0  0  0  0  0  0  0  0  0
  158.6635  141.5969  179.1200 H   0  0  0  0  0  0  0  0  0  0  0  0
  154.2692  138.3094  189.4607 C   0  0  0  0  0  0  0  0  0  0  0  0
  154.7786  137.9414  190.7720 C   0  0  0  0  0  0  0  0  0  0  0  0
  156.2985  138.0840  190.8590 C   0  0  0  0  0  0  0  0  0  0  0  0
  154.4130  136.6599  191.4144 C   0  0  0  0  0  0  0  0  0  0  0  0
 30 31  1  0  0  0
 31 32  1  0  0  0
 31  6  1  0  0  0
  6  7  1  0  0  0
  7  8  1  0  0  0
  8  9  2  0  0  0
  8 11  1  0  0  0
 11 12  1  0  0  0
 11 13  1  0  0  0
 13 14  1  0  0  0
 14 15  2  0  0  0
 14 17  1  0  0  0
 17 23  1  0  0  0
 23 24  1  0  0  0
 24 25  1  0  0  0
 25 26  1  0  0  0
 26 27  1  0  0  0
 17 18  1  0  0  0
 18 19  1  0  0  0
 19 20  1  0  0  0
 19 21  2  0  0  0
  6  2  1  0  0  0
  2  3  2  0  0  0
  2  4  1  0  0  0
  4  1  1  0  0  0
  1 60  1  0  0  0
 60 61  1  0  0  0
 61 62  1  0  0  0
 61 63  1  0  0  0
  1 33  1  0  0  0
 33 34  2  0  0  0
 33 35  1  0  0  0
 35 37  1  0  0  0
 37 49  1  0  0  0
 49 50  1  0  0  0
 50 51  1  0  0  0
 51 52  1  0  0  0
 52 54  1  0  0  0
 54 55  1  0  0  0
 54 56  2  0  0  0
 37 38  1  0  0  0
 38 39  2  0  0  0
 38 40  1  0  0  0
 40 41  2  0  0  0
 41 42  1  0  0  0
 42 43  2  0  0  0
 43 44  1  0  0  0
 44 45  2  0  0  0
 45 46  1  0  0  0
 46 47  2  0  0  0
 47 48  1  0  0  0
 48 40  1  0  0  0
 47 42  1  0  0  0
  7 10  1  0  0  0
 13 16  1  0  0  0
 27 28  1  0  0  0
 27 29  1  0  0  0
 18 22  1  0  0  0
  4  5  1  0  0  0
 35 36  1  0  0  0
 52 53  1  0  0  0
 55 57  1  0  0  0
 55 58  1  0  0  0
 56 59  1  0  0  0
M  END
> <minimizedAffinity>
-6.06938

> <CNNscore>
0.2124599963

> <CNNaffinity>
6.5461821556

> <CNN_VS>
1.3908017874

> <CNNaffinity_variance>
0.4320434034

$$$$
[H]N=C(N([H])[H])N([H])C([H])([H])C([H])([H])C([H])([H])[C@@]([H])(C(=O)c1nc2c([H])c([H])c([H])c([H])c2s1)N([H])C(=O)[C@]([H])(N([H])C(=O)[C@@]([H])(N([H])C(=O)[C@@]([H])(N([H])C(=O)[C@@]([H])(N([H])C(=O)C([H])([H])[H])C([H])([H])C([H])([H])C([H])([H])C([H])([H])N([H])[H])C([H])([H])[H])C([H])(C([H])([H])[H])C([H])([H])[H])C([H])([H])C([H])(C([H])([H])[H])C([H])([H])[H]


 63 64  0  0  0  0  0  0  0  0999 V2000
  152.1399  139.0004  182.1474 C   0  0  0  0  0  0  0  0  0  0  0  0
  152.1002  136.8774  183.5064 C   0  0  0  0  0  0  0  0  0  0  0  0
  151.6012  137.5392  184.4406 O   0  0  0  0  0  0  0  0  0  0  0  0
  152.4006  137.6084  182.3008 N   0  0  0  0  0  0  0  0  0  0  0  0
  152.8247  137.0490  181.5554 H   0  0  0  0  0  0  0  0  0  0  0  0
  152.3380  135.4611  183.7168 C   0  0  0  0  0  0  0  0  0  0  0  0
  151.9377  135.2003  185.0943 N   0  0  0  0  0  0  0  0  0  0  0  0
  152.6248  134.3707  185.9678 C   0  0  0  0  0  0  0  0  0  0  0  0
  153.6594  133.7845  185.4972 O   0  0  0  0  0  0  0  0  0  0  0  0
  151.0764  135.6868  185.4171 H   0  0  0  0  0  0  0  0  0  0  0  0
  152.2655  134.1310  187.3536 C   0  0  0  0  0  0  0  0  0  0  0  0
  150.7157  133.8918  187.4355 C   0  0  0  0  0  0  0  0  0  0  0  0
  152.4293  135.3648  188.1413 N   0  0  0  0  0  0  0  0  0  0  0  0
  152.9802  135.3138  189.4445 C   0  0  0  0  0  0  0  0  0  0  0  0
  153.3268  134.2363  189.9816 O   0  0  0  0  0  0  0  0  0  0  0  0
  152.1343  136.2871  187.7341 H   0  0  0  0  0  0  0  0  0  0  0  0
  153.1462  136.6076  190.1999 C   0  0  0  0  0  0  0  0  0  0  0  0
  153.1673  136.3106  191.6324 N   0  0  0  0  0  0  0  0  0  0  0  0
  151.9876  136.5019  192.4238 C   0  0  0  0  0  0  0  0  0  0  0  0
  151.9668  136.2053  193.8756 C   0  0  0  0  0  0  0  0  0  0  0  0
  150.9424  136.9410  191.8270 O   0  0  0  0  0  0  0  0  0  0  0  0
  154.0268  135.9671  192.0814 H   0  0  0  0  0  0  0  0  0  0  0  0
  154.5485  137.1127  189.8812 C   0  0  0  0  0  0  0  0  0  0  0  0
  154.5389  138.3906  189.1537 C   0  0  0  0  0  0  0  0  0  0  0  0
  153.4089  138.6781  188.2484 C   0  0  0  0  0  0  0  0  0  0  0  0
  153.7702  138.6204  186.7961 C   0  0  0  0  0  0  0  0  0  0  0  0
  154.1627  137.3251  186.3757 N   0  0  0  0  0  0  0  0  0  0  0  0
  153.6581  137.0240  185.4987 H   0  0  0  0  0  0  0  0  0  0  0  0
  155.1683  137.1843  186.1863 H   0  0  0  0  0  0  0  0  0  0  0  0
  150.1549  135.0083  182.6866 C   0  0  0  0  0  0  0  0  0  0  0  0
  151.6009  134.5675  182.7485 C   0  0  0  0  0  0  0  0  0  0  0  0
  152.1926  134.4821  181.3853 C   0  0  0  0  0  0  0  0  0  0  0  0
  153.4011  139.7764  182.2393 C   0  0  0  0  0  0  0  0  0  0  0  0
  153.7071  140.4991  181.2018 O   0  0  0  0  0  0  0  0  0  0  0  0
  154.3267  139.8544  183.2783 N   0  0  0  0  0  0  0  0  0  0  0  0
  154.1954  139.3272  184.1508 H   0  0  0  0  0  0  0  0  0  0  0  0
  155.5414  140.6788  183.1735 C   0  0  0  0  0  0  0  0  0  0  0  0
  156.5006  140.1566  184.1400 C   0  0  0  0  0  0  0  0  0  0  0  0
  156.1846  139.0770  184.7670 O   0  0  0  0  0  0  0  0  0  0  0  0
  157.8075  140.7308  184.4808 C   0  0  0  0  0  0  0  0  0  0  0  0
  158.2473  141.3603  185.5401 N   0  0  0  0  0  0  0  0  0  0  0  0
  159.4745  141.7952  185.6134 C   0  0  0  0  0  0  0  0  0  0  0  0
  160.0441  142.4892  186.7026 C   0  0  0  0  0  0  0  0  0  0  0  0
  161.3496  142.8928  186.6366 C   0  0  0  0  0  0  0  0  0  0  0  0
  162.1755  142.6671  185.5598 C   0  0  0  0  0  0  0  0  0  0  0  0
  161.6241  141.9929  184.5006 C   0  0  0  0  0  0  0  0  0  0  0  0
  160.2854  141.5610  184.5268 C   0  0  0  0  0  0  0  0  0  0  0  0
  159.2269  140.7337  183.4788 S   0  0  0  0  0  0  0  0  0  0  0  0
  155.1395  142.1012  183.6487 C   0  0  0  0  0  0  0  0  0  0  0  0
  155.7492  143.1881  182.8477 C   0  0  0  0  0  0  0  0  0  0  0  0
  156.3819  142.6519  181.5594 C   0  0  0  0  0  0  0  0  0  0  0  0
  157.6475  143.3135  181.3133 N   0  0  0  0  0  0  0  0  0  0  0  0
  158.0288  144.0339  181.9725 H   0  0  0  0  0  0  0  0  0  0  0  0
  158.4457  143.0282  180.1680 C   0  0  0  0  0  0  0  0  0  0  0  0
  158.2012  141.9441  179.2870 N   0  0  0  0  0  0  0  0  0  0  0  0
  159.4607  143.8233  179.9262 N   0  0  0  0  0  0  0  0  0  0  0  0
  158.0806  142.1299  178.2663 H   0  0  0  0  0  0  0  0  0  0  0  0
  158.1371  140.9617  179.6266 H   0  0  0  0  0  0  0  0  0  0  0  0
  160.0733  143.6449  179.0870 H   0  0  0  0  0  0  0  0  0  0  0  0
  151.0806  139.5062  181.3218 C   0  0  0  0  0  0  0  0  0  0  0  0
  149.7799  138.8990  181.0892 C   0  0  0  0  0  0  0  0  0  0  0  0
  149.0168  138.6580  182.3920 C   0  0  0  0  0  0  0  0  0  0  0  0
  149.6276  137.6886  180.2522 C   0  0  0  0  0  0  0  0  0  0  0  0
 30 31  1  0  0  0
 31 32  1  0  0  0
 31  6  1  0  0  0
  6  7  1  0  0  0
  7  8  1  0  0  0
  8  9  2  0  0  0
  8 11  1  0  0  0
 11 12  1  0  0  0
 11 13  1  0  0  0
 13 14  1  0  0  0
 14 15  2  0  0  0
 14 17  1  0  0  0
 17 23  1  0  0  0
 23 24  1  0  0  0
 24 25  1  0  0  0
 25 26  1  0  0  0
 26 27  1  0  0  0
 17 18  1  0  0  0
 18 19  1  0  0  0
 19 20  1  0  0  0
 19 21  2  0  0  0
  6  2  1  0  0  0
  2  3  2  0  0  0
  2  4  1  0  0  0
  4  1  1  0  0  0
  1 60  1  0  0  0
 60 61  1  0  0  0
 61 62  1  0  0  0
 61 63  1  0  0  0
  1 33  1  0  0  0
 33 34  2  0  0  0
 33 35  1  0  0  0
 35 37  1  0  0  0
 37 49  1  0  0  0
 49 50  1  0  0  0
 50 51  1  0  0  0
 51 52  1  0  0  0
 52 54  1  0  0  0
 54 55  1  0  0  0
 54 56  2  0  0  0
 37 38  1  0  0  0
 38 39  2  0  0  0
 38 40  1  0  0  0
 40 41  2  0  0  0
 41 42  1  0  0  0
 42 43  2  0  0  0
 43 44  1  0  0  0
 44 45  2  0  0  0
 45 46  1  0  0  0
 46 47  2  0  0  0
 47 48  1  0  0  0
 48 40  1  0  0  0
 47 42  1  0  0  0
  7 10  1  0  0  0
 13 16  1  0  0  0
 27 28  1  0  0  0
 27 29  1  0  0  0
 18 22  1  0  0  0
  4  5  1  0  0  0
 35 36  1  0  0  0
 52 53  1  0  0  0
 55 57  1  0  0  0
 55 58  1  0  0  0
 56 59  1  0  0  0
M  END
> <minimizedAffinity>
-7.38831

> <CNNscore>
0.1970021576

> <CNNaffinity>
7.3679475784

> <CNN_VS>
1.4515016079

> <CNNaffinity_variance>
0.4635311961

$$$$
[H]N=C(N([H])[H])N([H])C([H])([H])C([H])([H])C([H])([H])[C@@]([H])(C(=O)c1nc2c([H])c([H])c([H])c([H])c2s1)N([H])C(=O)[C@]([H])(N([H])C(=O)[C@@]([H])(N([H])C(=O)[C@@]([H])(N([H])C(=O)[C@@]([H])(N([H])C(=O)C([H])([H])[H])C([H])([H])C([H])([H])C([H])([H])C([H])([H])N([H])[H])C([H])([H])[H])C([H])(C([H])([H])[H])C([H])([H])[H])C([H])([H])C([H])(C([H])([H])[H])C([H])([H])[H]


 63 64  0  0  0  0  0  0  0  0999 V2000
  152.0867  139.0506  182.0855 C   0  0  0  0  0  0  0  0  0  0  0  0
  152.5222  136.9878  183.4676 C   0  0  0  0  0  0  0  0  0  0  0  0
  152.3946  137.6992  184.4861 O   0  0  0  0  0  0  0  0  0  0  0  0
  152.3762  137.6607  182.2012 N   0  0  0  0  0  0  0  0  0  0  0  0
  152.5020  137.0611  181.3808 H   0  0  0  0  0  0  0  0  0  0  0  0
  152.8106  135.5764  183.6459 C   0  0  0  0  0  0  0  0  0  0  0  0
  152.7136  135.3382  185.0810 N   0  0  0  0  0  0  0  0  0  0  0  0
  153.7341  134.8146  185.8605 C   0  0  0  0  0  0  0  0  0  0  0  0
  154.8117  134.5008  185.2475 O   0  0  0  0  0  0  0  0  0  0  0  0
  151.8066  135.5919  185.5235 H   0  0  0  0  0  0  0  0  0  0  0  0
  153.6711  134.6087  187.2961 C   0  0  0  0  0  0  0  0  0  0  0  0
  152.4910  135.4683  187.8744 C   0  0  0  0  0  0  0  0  0  0  0  0
  154.8438  135.2163  187.9481 N   0  0  0  0  0  0  0  0  0  0  0  0
  155.2509  134.7853  189.2336 C   0  0  0  0  0  0  0  0  0  0  0  0
  154.6321  133.9001  189.8685 O   0  0  0  0  0  0  0  0  0  0  0  0
  155.3797  135.9746  187.4568 H   0  0  0  0  0  0  0  0  0  0  0  0
  156.4703  135.4245  189.8473 C   0  0  0  0  0  0  0  0  0  0  0  0
  156.0316  136.4569  190.7867 N   0  0  0  0  0  0  0  0  0  0  0  0
  155.7682  137.7870  190.3218 C   0  0  0  0  0  0  0  0  0  0  0  0
  155.3150  138.8580  191.2403 C   0  0  0  0  0  0  0  0  0  0  0  0
  155.9387  138.0195  189.0734 O   0  0  0  0  0  0  0  0  0  0  0  0
  155.9128  136.2377  191.7848 H   0  0  0  0  0  0  0  0  0  0  0  0
  157.1243  134.3549  190.7142 C   0  0  0  0  0  0  0  0  0  0  0  0
  158.4477  133.9522  190.2154 C   0  0  0  0  0  0  0  0  0  0  0  0
  158.5173  133.0653  189.0375 C   0  0  0  0  0  0  0  0  0  0  0  0
  158.9346  133.7641  187.7804 C   0  0  0  0  0  0  0  0  0  0  0  0
  160.0219  134.6517  187.9768 N   0  0  0  0  0  0  0  0  0  0  0  0
  160.7881  134.5023  187.2661 H   0  0  0  0  0  0  0  0  0  0  0  0
  159.8060  135.6616  187.9523 H   0  0  0  0  0  0  0  0  0  0  0  0
  152.7114  133.5319  182.2885 C   0  0  0  0  0  0  0  0  0  0  0  0
  151.8920  134.6627  182.8707 C   0  0  0  0  0  0  0  0  0  0  0  0
  150.7243  134.1400  183.6318 C   0  0  0  0  0  0  0  0  0  0  0  0
  153.3312  139.8500  182.2012 C   0  0  0  0  0  0  0  0  0  0  0  0
  153.6758  140.5312  181.1478 O   0  0  0  0  0  0  0  0  0  0  0  0
  154.2057  139.9883  183.2776 N   0  0  0  0  0  0  0  0  0  0  0  0
  154.0407  139.4979  184.1658 H   0  0  0  0  0  0  0  0  0  0  0  0
  155.4124  140.8266  183.1927 C   0  0  0  0  0  0  0  0  0  0  0  0
  156.3864  140.2744  184.1272 C   0  0  0  0  0  0  0  0  0  0  0  0
  156.0451  139.2245  184.7902 O   0  0  0  0  0  0  0  0  0  0  0  0
  157.7344  140.7876  184.3982 C   0  0  0  0  0  0  0  0  0  0  0  0
  158.2362  141.4712  185.3945 N   0  0  0  0  0  0  0  0  0  0  0  0
  159.4901  141.8292  185.4119 C   0  0  0  0  0  0  0  0  0  0  0  0
  160.1261  142.5710  186.4305 C   0  0  0  0  0  0  0  0  0  0  0  0
  161.4531  142.8812  186.3104 C   0  0  0  0  0  0  0  0  0  0  0  0
  162.2397  142.5146  185.2429 C   0  0  0  0  0  0  0  0  0  0  0  0
  161.6237  141.7938  184.2523 C   0  0  0  0  0  0  0  0  0  0  0  0
  160.2609  141.4542  184.3356 C   0  0  0  0  0  0  0  0  0  0  0  0
  159.1295  140.6154  183.3769 S   0  0  0  0  0  0  0  0  0  0  0  0
  155.0042  142.2254  183.7286 C   0  0  0  0  0  0  0  0  0  0  0  0
  155.1184  143.3034  182.7188 C   0  0  0  0  0  0  0  0  0  0  0  0
  156.5621  143.7981  182.5832 C   0  0  0  0  0  0  0  0  0  0  0  0
  157.1682  143.2445  181.3889 N   0  0  0  0  0  0  0  0  0  0  0  0
  156.6548  142.5676  180.7748 H   0  0  0  0  0  0  0  0  0  0  0  0
  158.4901  143.5831  180.9790 C   0  0  0  0  0  0  0  0  0  0  0  0
  159.1942  144.7206  181.4495 N   0  0  0  0  0  0  0  0  0  0  0  0
  159.0777  142.7869  180.1177 N   0  0  0  0  0  0  0  0  0  0  0  0
  160.1337  144.5968  181.8889 H   0  0  0  0  0  0  0  0  0  0  0  0
  158.8027  145.6824  181.3711 H   0  0  0  0  0  0  0  0  0  0  0  0
  160.0566  143.0040  179.7920 H   0  0  0  0  0  0  0  0  0  0  0  0
  151.0183  139.5567  181.2719 C   0  0  0  0  0  0  0  0  0  0  0  0
  150.6776  139.1540  179.9168 C   0  0  0  0  0  0  0  0  0  0  0  0
  150.8532  140.2968  178.9162 C   0  0  0  0  0  0  0  0  0  0  0  0
  149.3968  138.4818  179.6064 C   0  0  0  0  0  0  0  0  0  0  0  0
 30 31  1  0  0  0
 31 32  1  0  0  0
 31  6  1  0  0  0
  6  7  1  0  0  0
  7  8  1  0  0  0
  8  9  2  0  0  0
  8 11  1  0  0  0
 11 12  1  0  0  0
 11 13  1  0  0  0
 13 14  1  0  0  0
 14 15  2  0  0  0
 14 17  1  0  0  0
 17 23  1  0  0  0
 23 24  1  0  0  0
 24 25  1  0  0  0
 25 26  1  0  0  0
 26 27  1  0  0  0
 17 18  1  0  0  0
 18 19  1  0  0  0
 19 20  1  0  0  0
 19 21  2  0  0  0
  6  2  1  0  0  0
  2  3  2  0  0  0
  2  4  1  0  0  0
  4  1  1  0  0  0
  1 60  1  0  0  0
 60 61  1  0  0  0
 61 62  1  0  0  0
 61 63  1  0  0  0
  1 33  1  0  0  0
 33 34  2  0  0  0
 33 35  1  0  0  0
 35 37  1  0  0  0
 37 49  1  0  0  0
 49 50  1  0  0  0
 50 51  1  0  0  0
 51 52  1  0  0  0
 52 54  1  0  0  0
 54 55  1  0  0  0
 54 56  2  0  0  0
 37 38  1  0  0  0
 38 39  2  0  0  0
 38 40  1  0  0  0
 40 41  2  0  0  0
 41 42  1  0  0  0
 42 43  2  0  0  0
 43 44  1  0  0  0
 44 45  2  0  0  0
 45 46  1  0  0  0
 46 47  2  0  0  0
 47 48  1  0  0  0
 48 40  1  0  0  0
 47 42  1  0  0  0
  7 10  1  0  0  0
 13 16  1  0  0  0
 27 28  1  0  0  0
 27 29  1  0  0  0
 18 22  1  0  0  0
  4  5  1  0  0  0
 35 36  1  0  0  0
 52 53  1  0  0  0
 55 57  1  0  0  0
 55 58  1  0  0  0
 56 59  1  0  0  0
M  END
> <minimizedAffinity>
-7.66065

> <CNNscore>
0.1789333373

> <CNNaffinity>
7.3784484863

> <CNN_VS>
1.3202503920

> <CNNaffinity_variance>
0.5028783083

$$$$
[H]c1nc2nc(N([H])c3c([H])c([H])c([H])c(C(=O)N([H])C([H])([H])C([H])([H])N(C([H])([H])[H])C([H])([H])[H])c3[H])nc(N([H])c3c([H])c(C([H])([H])[H])c([H])c([H])c3OC([H])([H])[H])c2c([H])c1[H]


 38 41  0  0  0  0  0  0  0  0999 V2000
  154.5989  140.4549  183.1523 C   0  0  0  0  0  0  0  0  0  0  0  0
  153.7700  140.5734  182.1160 N   0  0  0  0  0  0  0  0  0  0  0  0
  152.7784  139.7102  181.7682 C   0  0  0  0  0  0  0  0  0  0  0  0
  152.6616  138.6571  182.5712 N   0  0  0  0  0  0  0  0  0  0  0  0
  153.4174  138.4035  183.6451 C   0  0  0  0  0  0  0  0  0  0  0  0
  153.2482  137.3262  184.4122 N   0  0  0  0  0  0  0  0  0  0  0  0
  154.0180  137.0923  185.4862 C   0  0  0  0  0  0  0  0  0  0  0  0
  155.0269  137.9441  185.8640 C   0  0  0  0  0  0  0  0  0  0  0  0
  155.2089  139.0871  185.0528 C   0  0  0  0  0  0  0  0  0  0  0  0
  154.4234  139.3294  183.9538 C   0  0  0  0  0  0  0  0  0  0  0  0
  155.6083  141.3759  183.4654 N   0  0  0  0  0  0  0  0  0  0  0  0
  155.4408  142.0185  184.3083 H   0  0  0  0  0  0  0  0  0  0  0  0
  157.9979  141.5594  183.6210 C   0  0  0  0  0  0  0  0  0  0  0  0
  159.2181  141.7840  183.0361 C   0  0  0  0  0  0  0  0  0  0  0  0
  159.3575  142.0604  181.6839 C   0  0  0  0  0  0  0  0  0  0  0  0
  158.2358  142.1131  180.8931 C   0  0  0  0  0  0  0  0  0  0  0  0
  158.3806  142.4079  179.4521 C   0  0  0  0  0  0  0  0  0  0  0  0
  156.9959  141.8811  181.5069 C   0  0  0  0  0  0  0  0  0  0  0  0
  156.8489  141.6078  182.8397 C   0  0  0  0  0  0  0  0  0  0  0  0
  158.9923  141.6601  185.8636 C   0  0  0  0  0  0  0  0  0  0  0  0
  157.9722  141.2908  184.9867 O   0  0  0  0  0  0  0  0  0  0  0  0
  151.9923  139.9750  180.6189 N   0  0  0  0  0  0  0  0  0  0  0  0
  152.4062  140.6400  179.8922 H   0  0  0  0  0  0  0  0  0  0  0  0
  150.7271  139.4552  180.3508 C   0  0  0  0  0  0  0  0  0  0  0  0
  150.2170  139.1534  179.1102 C   0  0  0  0  0  0  0  0  0  0  0  0
  148.9249  138.6621  178.9964 C   0  0  0  0  0  0  0  0  0  0  0  0
  148.0919  138.4494  180.0838 C   0  0  0  0  0  0  0  0  0  0  0  0
  148.6031  138.7501  181.3194 C   0  0  0  0  0  0  0  0  0  0  0  0
  149.8714  139.2341  181.4460 C   0  0  0  0  0  0  0  0  0  0  0  0
  147.7427  138.5251  182.4934 C   0  0  0  0  0  0  0  0  0  0  0  0
  146.8888  137.5769  182.4235 O   0  0  0  0  0  0  0  0  0  0  0  0
  147.8036  139.2831  183.6716 N   0  0  0  0  0  0  0  0  0  0  0  0
  148.5199  140.0777  183.7240 H   0  0  0  0  0  0  0  0  0  0  0  0
  146.9889  139.1150  184.8462 C   0  0  0  0  0  0  0  0  0  0  0  0
  147.7414  138.3605  185.8900 C   0  0  0  0  0  0  0  0  0  0  0  0
  146.8599  137.3715  186.4897 N   0  0  0  0  0  0  0  0  0  0  0  0
  147.2914  136.9958  187.8165 C   0  0  0  0  0  0  0  0  0  0  0  0
  146.8115  136.2145  185.6046 C   0  0  0  0  0  0  0  0  0  0  0  0
 20 21  1  0  0  0
 21 13  1  0  0  0
 13 14  2  0  0  0
 14 15  1  0  0  0
 15 16  2  0  0  0
 16 17  1  0  0  0
 16 18  1  0  0  0
 18 19  2  0  0  0
 19 11  1  0  0  0
 11  1  1  0  0  0
  1  2  2  0  0  0
  2  3  1  0  0  0
  3 22  1  0  0  0
 22 24  1  0  0  0
 24 25  2  0  0  0
 25 26  1  0  0  0
 26 27  2  0  0  0
 27 28  1  0  0  0
 28 29  2  0  0  0
 28 30  1  0  0  0
 30 31  2  0  0  0
 30 32  1  0  0  0
 32 34  1  0  0  0
 34 35  1  0  0  0
 35 36  1  0  0  0
 36 37  1  0  0  0
 36 38  1  0  0  0
  3  4  2  0  0  0
  4  5  1  0  0  0
  5  6  2  0  0  0
  6  7  1  0  0  0
  7  8  2  0  0  0
  8  9  1  0  0  0
  9 10  2  0  0  0
 19 13  1  0  0  0
 10  1  1  0  0  0
 29 24  1  0  0  0
 10  5  1  0  0  0
 11 12  1  0  0  0
 22 23  1  0  0  0
 32 33  1  0  0  0
M  END
> <minimizedAffinity>
-8.38666

> <CNNscore>
0.6953999996

> <CNNaffinity>
6.7965345383

> <CNN_VS>
4.7263102531

> <CNNaffinity_variance>
0.0361458063

$$$$
[H]c1nc2nc(N([H])c3c([H])c([H])c([H])c(C(=O)N([H])C([H])([H])C([H])([H])N(C([H])([H])[H])C([H])([H])[H])c3[H])nc(N([H])c3c([H])c(C([H])([H])[H])c([H])c([H])c3OC([H])([H])[H])c2c([H])c1[H]


 38 41  0  0  0  0  0  0  0  0999 V2000
  156.1247  139.9134  183.4375 C   0  0  0  0  0  0  0  0  0  0  0  0
  155.2619  140.3481  182.5201 N   0  0  0  0  0  0  0  0  0  0  0  0
  153.9066  140.2483  182.5701 C   0  0  0  0  0  0  0  0  0  0  0  0
  153.4409  139.6499  183.6621 N   0  0  0  0  0  0  0  0  0  0  0  0
  154.1807  139.1638  184.6646 C   0  0  0  0  0  0  0  0  0  0  0  0
  153.6507  138.5734  185.7362 N   0  0  0  0  0  0  0  0  0  0  0  0
  154.4126  138.0937  186.7312 C   0  0  0  0  0  0  0  0  0  0  0  0
  155.7832  138.1788  186.7109 C   0  0  0  0  0  0  0  0  0  0  0  0
  156.3482  138.8040  185.5763 C   0  0  0  0  0  0  0  0  0  0  0  0
  155.5720  139.2959  184.5569 C   0  0  0  0  0  0  0  0  0  0  0  0
  157.5170  140.0404  183.3350 N   0  0  0  0  0  0  0  0  0  0  0  0
  158.0605  139.1918  182.9662 H   0  0  0  0  0  0  0  0  0  0  0  0
  158.5273  142.1186  182.6803 C   0  0  0  0  0  0  0  0  0  0  0  0
  159.3374  143.1906  182.9556 C   0  0  0  0  0  0  0  0  0  0  0  0
  159.9972  143.3351  184.1672 C   0  0  0  0  0  0  0  0  0  0  0  0
  159.8386  142.3724  185.1339 C   0  0  0  0  0  0  0  0  0  0  0  0
  160.5406  142.5228  186.4258 C   0  0  0  0  0  0  0  0  0  0  0  0
  159.0069  141.2827  184.8363 C   0  0  0  0  0  0  0  0  0  0  0  0
  158.3522  141.1318  183.6440 C   0  0  0  0  0  0  0  0  0  0  0  0
  158.5193  141.5390  180.2944 C   0  0  0  0  0  0  0  0  0  0  0  0
  157.9131  142.0727  181.4318 O   0  0  0  0  0  0  0  0  0  0  0  0
  153.1286  140.7493  181.4965 N   0  0  0  0  0  0  0  0  0  0  0  0
  153.3969  141.7091  181.1112 H   0  0  0  0  0  0  0  0  0  0  0  0
  152.0421  140.1111  180.9008 C   0  0  0  0  0  0  0  0  0  0  0  0
  151.8163  139.9770  179.5511 C   0  0  0  0  0  0  0  0  0  0  0  0
  150.6719  139.3335  179.1037 C   0  0  0  0  0  0  0  0  0  0  0  0
  149.7149  138.8016  179.9539 C   0  0  0  0  0  0  0  0  0  0  0  0
  149.9427  138.9358  181.2986 C   0  0  0  0  0  0  0  0  0  0  0  0
  151.0631  139.5663  181.7526 C   0  0  0  0  0  0  0  0  0  0  0  0
  148.9463  138.3718  182.2250 C   0  0  0  0  0  0  0  0  0  0  0  0
  149.1060  137.1583  182.5928 O   0  0  0  0  0  0  0  0  0  0  0  0
  147.8428  139.0802  182.7219 N   0  0  0  0  0  0  0  0  0  0  0  0
  147.7130  140.0963  182.4089 H   0  0  0  0  0  0  0  0  0  0  0  0
  146.8359  138.5837  183.6226 C   0  0  0  0  0  0  0  0  0  0  0  0
  146.9812  139.2263  184.9608 C   0  0  0  0  0  0  0  0  0  0  0  0
  147.0925  138.1908  185.9757 N   0  0  0  0  0  0  0  0  0  0  0  0
  148.3926  138.1884  186.6061 C   0  0  0  0  0  0  0  0  0  0  0  0
  146.8116  136.9077  185.3438 C   0  0  0  0  0  0  0  0  0  0  0  0
 20 21  1  0  0  0
 21 13  1  0  0  0
 13 14  2  0  0  0
 14 15  1  0  0  0
 15 16  2  0  0  0
 16 17  1  0  0  0
 16 18  1  0  0  0
 18 19  2  0  0  0
 19 11  1  0  0  0
 11  1  1  0  0  0
  1  2  2  0  0  0
  2  3  1  0  0  0
  3 22  1  0  0  0
 22 24  1  0  0  0
 24 25  2  0  0  0
 25 26  1  0  0  0
 26 27  2  0  0  0
 27 28  1  0  0  0
 28 29  2  0  0  0
 28 30  1  0  0  0
 30 31  2  0  0  0
 30 32  1  0  0  0
 32 34  1  0  0  0
 34 35  1  0  0  0
 35 36  1  0  0  0
 36 37  1  0  0  0
 36 38  1  0  0  0
  3  4  2  0  0  0
  4  5  1  0  0  0
  5  6  2  0  0  0
  6  7  1  0  0  0
  7  8  2  0  0  0
  8  9  1  0  0  0
  9 10  2  0  0  0
 19 13  1  0  0  0
 10  1  1  0  0  0
 29 24  1  0  0  0
 10  5  1  0  0  0
 11 12  1  0  0  0
 22 23  1  0  0  0
 32 33  1  0  0  0
M  END
> <minimizedAffinity>
-8.73630

> <CNNscore>
0.5390660167

> <CNNaffinity>
6.8032608032

> <CNN_VS>
3.6674067974

> <CNNaffinity_variance>
0.0175595619

$$$$
[H]c1nc2nc(N([H])c3c([H])c([H])c([H])c(C(=O)N([H])C([H])([H])C([H])([H])N(C([H])([H])[H])C([H])([H])[H])c3[H])nc(N([H])c3c([H])c(C([H])([H])[H])c([H])c([H])c3OC([H])([H])[H])c2c([H])c1[H]


 38 41  0  0  0  0  0  0  0  0999 V2000
  156.0886  139.9947  184.6001 C   0  0  0  0  0  0  0  0  0  0  0  0
  156.3811  139.1948  185.6246 N   0  0  0  0  0  0  0  0  0  0  0  0
  155.6589  138.1233  186.0485 C   0  0  0  0  0  0  0  0  0  0  0  0
  154.5590  137.8885  185.3397 N   0  0  0  0  0  0  0  0  0  0  0  0
  154.1370  138.6012  184.2896 C   0  0  0  0  0  0  0  0  0  0  0  0
  153.0215  138.3122  183.6188 N   0  0  0  0  0  0  0  0  0  0  0  0
  152.6176  139.0408  182.5668 C   0  0  0  0  0  0  0  0  0  0  0  0
  153.3241  140.1281  182.1140 C   0  0  0  0  0  0  0  0  0  0  0  0
  154.5070  140.4371  182.8230 C   0  0  0  0  0  0  0  0  0  0  0  0
  154.9231  139.6940  183.8993 C   0  0  0  0  0  0  0  0  0  0  0  0
  156.8691  141.0903  184.2057 N   0  0  0  0  0  0  0  0  0  0  0  0
  156.3699  141.8859  183.6868 H   0  0  0  0  0  0  0  0  0  0  0  0
  159.1192  140.9170  183.3840 C   0  0  0  0  0  0  0  0  0  0  0  0
  160.4645  141.1389  183.5332 C   0  0  0  0  0  0  0  0  0  0  0  0
  160.9976  141.7670  184.6493 C   0  0  0  0  0  0  0  0  0  0  0  0
  160.1529  142.1858  185.6480 C   0  0  0  0  0  0  0  0  0  0  0  0
  160.7176  142.8548  186.8389 C   0  0  0  0  0  0  0  0  0  0  0  0
  158.7802  141.9511  185.4799 C   0  0  0  0  0  0  0  0  0  0  0  0
  158.2455  141.3325  184.3826 C   0  0  0  0  0  0  0  0  0  0  0  0
  158.3738  140.9526  181.0450 C   0  0  0  0  0  0  0  0  0  0  0  0
  158.6914  140.2777  182.2238 O   0  0  0  0  0  0  0  0  0  0  0  0
  156.1016  137.3825  187.1729 N   0  0  0  0  0  0  0  0  0  0  0  0
  156.7946  136.5905  186.9882 H   0  0  0  0  0  0  0  0  0  0  0  0
  155.7124  137.5852  188.4958 C   0  0  0  0  0  0  0  0  0  0  0  0
  156.4727  138.1546  189.4900 C   0  0  0  0  0  0  0  0  0  0  0  0
  155.9572  138.2691  190.7726 C   0  0  0  0  0  0  0  0  0  0  0  0
  154.6892  137.8347  191.1260 C   0  0  0  0  0  0  0  0  0  0  0  0
  153.9332  137.2684  190.1331 C   0  0  0  0  0  0  0  0  0  0  0  0
  154.4272  137.1490  188.8679 C   0  0  0  0  0  0  0  0  0  0  0  0
  152.5781  136.8061  190.4787 C   0  0  0  0  0  0  0  0  0  0  0  0
  151.9061  136.2187  189.5639 O   0  0  0  0  0  0  0  0  0  0  0  0
  151.9870  136.9714  191.7394 N   0  0  0  0  0  0  0  0  0  0  0  0
  152.5541  137.4659  192.5017 H   0  0  0  0  0  0  0  0  0  0  0  0
  150.6696  136.5471  192.1346 C   0  0  0  0  0  0  0  0  0  0  0  0
  150.7185  135.9045  193.4798 C   0  0  0  0  0  0  0  0  0  0  0  0
  149.5648  135.0323  193.6321 N   0  0  0  0  0  0  0  0  0  0  0  0
  149.7714  134.0358  194.6577 C   0  0  0  0  0  0  0  0  0  0  0  0
  149.2954  134.4111  192.3413 C   0  0  0  0  0  0  0  0  0  0  0  0
 20 21  1  0  0  0
 21 13  1  0  0  0
 13 14  2  0  0  0
 14 15  1  0  0  0
 15 16  2  0  0  0
 16 17  1  0  0  0
 16 18  1  0  0  0
 18 19  2  0  0  0
 19 11  1  0  0  0
 11  1  1  0  0  0
  1  2  2  0  0  0
  2  3  1  0  0  0
  3 22  1  0  0  0
 22 24  1  0  0  0
 24 25  2  0  0  0
 25 26  1  0  0  0
 26 27  2  0  0  0
 27 28  1  0  0  0
 28 29  2  0  0  0
 28 30  1  0  0  0
 30 31  2  0  0  0
 30 32  1  0  0  0
 32 34  1  0  0  0
 34 35  1  0  0  0
 35 36  1  0  0  0
 36 37  1  0  0  0
 36 38  1  0  0  0
  3  4  2  0  0  0
  4  5  1  0  0  0
  5  6  2  0  0  0
  6  7  1  0  0  0
  7  8  2  0  0  0
  8  9  1  0  0  0
  9 10  2  0  0  0
 19 13  1  0  0  0
 10  1  1  0  0  0
 29 24  1  0  0  0
 10  5  1  0  0  0
 11 12  1  0  0  0
 22 23  1  0  0  0
 32 33  1  0  0  0
M  END
> <minimizedAffinity>
-8.89742

> <CNNscore>
0.4353787303

> <CNNaffinity>
6.5316362381

> <CNN_VS>
2.8437354565

> <CNNaffinity_variance>
0.0358125158

$$$$
[H]c1nc2nc(N([H])c3c([H])c([H])c([H])c(C(=O)N([H])C([H])([H])C([H])([H])N(C([H])([H])[H])C([H])([H])[H])c3[H])nc(N([H])c3c([H])c(C([H])([H])[H])c([H])c([H])c3OC([H])([H])[H])c2c([H])c1[H]


 38 41  0  0  0  0  0  0  0  0999 V2000
  155.2026  140.0623  183.8922 C   0  0  0  0  0  0  0  0  0  0  0  0
  155.4351  139.1139  184.7986 N   0  0  0  0  0  0  0  0  0  0  0  0
  154.6822  138.0036  185.0217 C   0  0  0  0  0  0  0  0  0  0  0  0
  153.6175  137.8957  184.2329 N   0  0  0  0  0  0  0  0  0  0  0  0
  153.2562  138.7639  183.2819 C   0  0  0  0  0  0  0  0  0  0  0  0
  152.1735  138.5970  182.5218 N   0  0  0  0  0  0  0  0  0  0  0  0
  151.8304  139.4810  181.5723 C   0  0  0  0  0  0  0  0  0  0  0  0
  152.5693  140.6114  181.3222 C   0  0  0  0  0  0  0  0  0  0  0  0
  153.7176  140.7913  182.1263 C   0  0  0  0  0  0  0  0  0  0  0  0
  154.0714  139.8892  183.0983 C   0  0  0  0  0  0  0  0  0  0  0  0
  156.0125  141.1910  183.7047 N   0  0  0  0  0  0  0  0  0  0  0  0
  155.5257  142.0986  183.4034 H   0  0  0  0  0  0  0  0  0  0  0  0
  158.2128  141.0911  182.7470 C   0  0  0  0  0  0  0  0  0  0  0  0
  159.5725  141.2277  182.8641 C   0  0  0  0  0  0  0  0  0  0  0  0
  160.1846  141.6084  184.0493 C   0  0  0  0  0  0  0  0  0  0  0  0
  159.4065  141.8603  185.1528 C   0  0  0  0  0  0  0  0  0  0  0  0
  160.0554  142.2656  186.4173 C   0  0  0  0  0  0  0  0  0  0  0  0
  158.0179  141.7160  185.0161 C   0  0  0  0  0  0  0  0  0  0  0  0
  157.4055  141.3409  183.8512 C   0  0  0  0  0  0  0  0  0  0  0  0
  158.0750  141.2971  180.3044 C   0  0  0  0  0  0  0  0  0  0  0  0
  157.7032  140.7037  181.5108 O   0  0  0  0  0  0  0  0  0  0  0  0
  155.0602  137.0962  186.0428 N   0  0  0  0  0  0  0  0  0  0  0  0
  155.4895  136.1687  185.7313 H   0  0  0  0  0  0  0  0  0  0  0  0
  154.9180  137.2970  187.4147 C   0  0  0  0  0  0  0  0  0  0  0  0
  154.3413  138.3871  188.0226 C   0  0  0  0  0  0  0  0  0  0  0  0
  154.2923  138.4595  189.4069 C   0  0  0  0  0  0  0  0  0  0  0  0
  154.8012  137.4753  190.2399 C   0  0  0  0  0  0  0  0  0  0  0  0
  155.3745  136.3893  189.6315 C   0  0  0  0  0  0  0  0  0  0  0  0
  155.4300  136.3051  188.2719 C   0  0  0  0  0  0  0  0  0  0  0  0
  155.9154  135.3240  190.4928 C   0  0  0  0  0  0  0  0  0  0  0  0
  155.1728  134.9030  191.4440 O   0  0  0  0  0  0  0  0  0  0  0  0
  157.1850  134.7504  190.3333 N   0  0  0  0  0  0  0  0  0  0  0  0
  157.8038  135.1082  189.5356 H   0  0  0  0  0  0  0  0  0  0  0  0
  157.7689  133.7135  191.1430 C   0  0  0  0  0  0  0  0  0  0  0  0
  158.7890  132.9607  190.3572 C   0  0  0  0  0  0  0  0  0  0  0  0
  158.3201  132.8124  188.9886 N   0  0  0  0  0  0  0  0  0  0  0  0
  157.6906  131.5307  188.7681 C   0  0  0  0  0  0  0  0  0  0  0  0
  159.4593  132.9993  188.0987 C   0  0  0  0  0  0  0  0  0  0  0  0
 20 21  1  0  0  0
 21 13  1  0  0  0
 13 14  2  0  0  0
 14 15  1  0  0  0
 15 16  2  0  0  0
 16 17  1  0  0  0
 16 18  1  0  0  0
 18 19  2  0  0  0
 19 11  1  0  0  0
 11  1  1  0  0  0
  1  2  2  0  0  0
  2  3  1  0  0  0
  3 22  1  0  0  0
 22 24  1  0  0  0
 24 25  2  0  0  0
 25 26  1  0  0  0
 26 27  2  0  0  0
 27 28  1  0  0  0
 28 29  2  0  0  0
 28 30  1  0  0  0
 30 31  2  0  0  0
 30 32  1  0  0  0
 32 34  1  0  0  0
 34 35  1  0  0  0
 35 36  1  0  0  0
 36 37  1  0  0  0
 36 38  1  0  0  0
  3  4  2  0  0  0
  4  5  1  0  0  0
  5  6  2  0  0  0
  6  7  1  0  0  0
  7  8  2  0  0  0
  8  9  1  0  0  0
  9 10  2  0  0  0
 19 13  1  0  0  0
 10  1  1  0  0  0
 29 24  1  0  0  0
 10  5  1  0  0  0
 11 12  1  0  0  0
 22 23  1  0  0  0
 32 33  1  0  0  0
M  END
> <minimizedAffinity>
-8.13224

> <CNNscore>
0.3591061831

> <CNNaffinity>
6.6009507179

> <CNN_VS>
2.3704421520

> <CNNaffinity_variance>
0.0624781474

$$$$
[H]c1nc2nc(N([H])c3c([H])c([H])c([H])c(C(=O)N([H])C([H])([H])C([H])([H])N(C([H])([H])[H])C([H])([H])[H])c3[H])nc(N([H])c3c([H])c(C([H])([H])[H])c([H])c([H])c3OC([H])([H])[H])c2c([H])c1[H]


 38 41  0  0  0  0  0  0  0  0999 V2000
  157.0144  140.8879  183.5917 C   0  0  0  0  0  0  0  0  0  0  0  0
  156.6940  139.7570  184.2191 N   0  0  0  0  0  0  0  0  0  0  0  0
  155.4433  139.3438  184.5571 C   0  0  0  0  0  0  0  0  0  0  0  0
  154.4748  140.1844  184.2067 N   0  0  0  0  0  0  0  0  0  0  0  0
  154.6413  141.3514  183.5751 C   0  0  0  0  0  0  0  0  0  0  0  0
  153.6249  142.1509  183.2500 N   0  0  0  0  0  0  0  0  0  0  0  0
  153.8154  143.3177  182.6150 C   0  0  0  0  0  0  0  0  0  0  0  0
  155.0651  143.7631  182.2599 C   0  0  0  0  0  0  0  0  0  0  0  0
  156.1446  142.9180  182.6031 C   0  0  0  0  0  0  0  0  0  0  0  0
  155.9535  141.7240  183.2525 C   0  0  0  0  0  0  0  0  0  0  0  0
  158.3244  141.2675  183.2680 N   0  0  0  0  0  0  0  0  0  0  0  0
  158.7519  140.8436  182.3797 H   0  0  0  0  0  0  0  0  0  0  0  0
  159.6155  143.2927  183.2697 C   0  0  0  0  0  0  0  0  0  0  0  0
  160.4744  144.1598  183.8957 C   0  0  0  0  0  0  0  0  0  0  0  0
  160.9568  143.9368  185.1770 C   0  0  0  0  0  0  0  0  0  0  0  0
  160.5643  142.8069  185.8520 C   0  0  0  0  0  0  0  0  0  0  0  0
  161.0768  142.5660  187.2172 C   0  0  0  0  0  0  0  0  0  0  0  0
  159.6857  141.9307  185.1977 C   0  0  0  0  0  0  0  0  0  0  0  0
  159.2049  142.1424  183.9341 C   0  0  0  0  0  0  0  0  0  0  0  0
  159.0874  144.9217  181.5103 C   0  0  0  0  0  0  0  0  0  0  0  0
  159.1929  143.6133  181.9827 O   0  0  0  0  0  0  0  0  0  0  0  0
  155.2745  138.1145  185.2422 N   0  0  0  0  0  0  0  0  0  0  0  0
  155.6902  137.2438  184.7833 H   0  0  0  0  0  0  0  0  0  0  0  0
  154.6111  137.9335  186.4546 C   0  0  0  0  0  0  0  0  0  0  0  0
  155.1347  138.1436  187.7085 C   0  0  0  0  0  0  0  0  0  0  0  0
  154.3578  137.8967  188.8307 C   0  0  0  0  0  0  0  0  0  0  0  0
  153.0507  137.4395  188.7672 C   0  0  0  0  0  0  0  0  0  0  0  0
  152.5309  137.2318  187.5163 C   0  0  0  0  0  0  0  0  0  0  0  0
  153.2832  137.4700  186.4044 C   0  0  0  0  0  0  0  0  0  0  0  0
  151.1409  136.7547  187.4192 C   0  0  0  0  0  0  0  0  0  0  0  0
  150.8021  135.7746  188.1662 O   0  0  0  0  0  0  0  0  0  0  0  0
  150.1767  137.3059  186.5632 N   0  0  0  0  0  0  0  0  0  0  0  0
  150.4665  138.1260  185.9381 H   0  0  0  0  0  0  0  0  0  0  0  0
  148.8088  136.8813  186.4207 C   0  0  0  0  0  0  0  0  0  0  0  0
  147.8891  138.0424  186.5967 C   0  0  0  0  0  0  0  0  0  0  0  0
  146.8673  138.0003  185.5627 N   0  0  0  0  0  0  0  0  0  0  0  0
  147.1093  136.9455  184.6054 C   0  0  0  0  0  0  0  0  0  0  0  0
  146.8305  139.3038  184.9116 C   0  0  0  0  0  0  0  0  0  0  0  0
 20 21  1  0  0  0
 21 13  1  0  0  0
 13 14  2  0  0  0
 14 15  1  0  0  0
 15 16  2  0  0  0
 16 17  1  0  0  0
 16 18  1  0  0  0
 18 19  2  0  0  0
 19 11  1  0  0  0
 11  1  1  0  0  0
  1  2  2  0  0  0
  2  3  1  0  0  0
  3 22  1  0  0  0
 22 24  1  0  0  0
 24 25  2  0  0  0
 25 26  1  0  0  0
 26 27  2  0  0  0
 27 28  1  0  0  0
 28 29  2  0  0  0
 28 30  1  0  0  0
 30 31  2  0  0  0
 30 32  1  0  0  0
 32 34  1  0  0  0
 34 35  1  0  0  0
 35 36  1  0  0  0
 36 37  1  0  0  0
 36 38  1  0  0  0
  3  4  2  0  0  0
  4  5  1  0  0  0
  5  6  2  0  0  0
  6  7  1  0  0  0
  7  8  2  0  0  0
  8  9  1  0  0  0
  9 10  2  0  0  0
 19 13  1  0  0  0
 10  1  1  0  0  0
 29 24  1  0  0  0
 10  5  1  0  0  0
 11 12  1  0  0  0
 22 23  1  0  0  0
 32 33  1  0  0  0
M  END
> <minimizedAffinity>
-7.89797

> <CNNscore>
0.3291691244

> <CNNaffinity>
6.7223219872

> <CNN_VS>
2.2127809525

> <CNNaffinity_variance>
0.0174981672

$$$$
[H]c1nc2nc(N([H])c3c([H])c([H])c([H])c(C(=O)N([H])C([H])([H])C([H])([H])N(C([H])([H])[H])C([H])([H])[H])c3[H])nc(N([H])c3c([H])c(C([H])([H])[H])c([H])c([H])c3OC([H])([H])[H])c2c([H])c1[H]


 38 41  0  0  0  0  0  0  0  0999 V2000
  155.0538  140.0779  184.0000 C   0  0  0  0  0  0  0  0  0  0  0  0
  155.3287  139.1618  184.9275 N   0  0  0  0  0  0  0  0  0  0  0  0
  154.6411  138.0118  185.1600 C   0  0  0  0  0  0  0  0  0  0  0  0
  153.5979  137.8250  184.3574 N   0  0  0  0  0  0  0  0  0  0  0  0
  153.2000  138.6524  183.3848 C   0  0  0  0  0  0  0  0  0  0  0  0
  152.1419  138.4062  182.6117 N   0  0  0  0  0  0  0  0  0  0  0  0
  151.7614  139.2505  181.6406 C   0  0  0  0  0  0  0  0  0  0  0  0
  152.4342  140.4193  181.3806 C   0  0  0  0  0  0  0  0  0  0  0  0
  153.5562  140.6832  182.1984 C   0  0  0  0  0  0  0  0  0  0  0  0
  153.9483  139.8219  183.1925 C   0  0  0  0  0  0  0  0  0  0  0  0
  155.7966  141.2504  183.8037 N   0  0  0  0  0  0  0  0  0  0  0  0
  155.4174  142.1506  184.2478 H   0  0  0  0  0  0  0  0  0  0  0  0
  158.1929  141.4118  183.8096 C   0  0  0  0  0  0  0  0  0  0  0  0
  159.3773  141.6089  183.1465 C   0  0  0  0  0  0  0  0  0  0  0  0
  159.4368  141.8508  181.7819 C   0  0  0  0  0  0  0  0  0  0  0  0
  158.2696  141.8963  181.0594 C   0  0  0  0  0  0  0  0  0  0  0  0
  158.3293  142.1544  179.6053 C   0  0  0  0  0  0  0  0  0  0  0  0
  157.0672  141.6928  181.7527 C   0  0  0  0  0  0  0  0  0  0  0  0
  156.9989  141.4536  183.0984 C   0  0  0  0  0  0  0  0  0  0  0  0
  159.2104  141.7374  186.0202 C   0  0  0  0  0  0  0  0  0  0  0  0
  158.2477  141.1768  185.1806 O   0  0  0  0  0  0  0  0  0  0  0  0
  155.0568  137.1475  186.2036 N   0  0  0  0  0  0  0  0  0  0  0  0
  155.4518  136.1972  185.9165 H   0  0  0  0  0  0  0  0  0  0  0  0
  154.9922  137.4177  187.5695 C   0  0  0  0  0  0  0  0  0  0  0  0
  155.8474  138.2260  188.2809 C   0  0  0  0  0  0  0  0  0  0  0  0
  155.6720  138.3819  189.6479 C   0  0  0  0  0  0  0  0  0  0  0  0
  154.6612  137.7582  190.3626 C   0  0  0  0  0  0  0  0  0  0  0  0
  153.8097  136.9539  189.6511 C   0  0  0  0  0  0  0  0  0  0  0  0
  153.9705  136.7911  188.3070 C   0  0  0  0  0  0  0  0  0  0  0  0
  152.7208  136.2857  190.3840 C   0  0  0  0  0  0  0  0  0  0  0  0
  151.6422  136.0438  189.7426 O   0  0  0  0  0  0  0  0  0  0  0  0
  152.7963  135.9038  191.7311 N   0  0  0  0  0  0  0  0  0  0  0  0
  153.7020  136.1106  192.2643 H   0  0  0  0  0  0  0  0  0  0  0  0
  151.7677  135.2545  192.5006 C   0  0  0  0  0  0  0  0  0  0  0  0
  150.8739  136.2719  193.1259 C   0  0  0  0  0  0  0  0  0  0  0  0
  149.7019  135.6046  193.6699 N   0  0  0  0  0  0  0  0  0  0  0  0
  150.0131  134.8515  194.8630 C   0  0  0  0  0  0  0  0  0  0  0  0
  149.1512  134.7423  192.6318 C   0  0  0  0  0  0  0  0  0  0  0  0
 20 21  1  0  0  0
 21 13  1  0  0  0
 13 14  2  0  0  0
 14 15  1  0  0  0
 15 16  2  0  0  0
 16 17  1  0  0  0
 16 18  1  0  0  0
 18 19  2  0  0  0
 19 11  1  0  0  0
 11  1  1  0  0  0
  1  2  2  0  0  0
  2  3  1  0  0  0
  3 22  1  0  0  0
 22 24  1  0  0  0
 24 25  2  0  0  0
 25 26  1  0  0  0
 26 27  2  0  0  0
 27 28  1  0  0  0
 28 29  2  0  0  0
 28 30  1  0  0  0
 30 31  2  0  0  0
 30 32  1  0  0  0
 32 34  1  0  0  0
 34 35  1  0  0  0
 35 36  1  0  0  0
 36 37  1  0  0  0
 36 38  1  0  0  0
  3  4  2  0  0  0
  4  5  1  0  0  0
  5  6  2  0  0  0
  6  7  1  0  0  0
  7  8  2  0  0  0
  8  9  1  0  0  0
  9 10  2  0  0  0
 19 13  1  0  0  0
 10  1  1  0  0  0
 29 24  1  0  0  0
 10  5  1  0  0  0
 11 12  1  0  0  0
 22 23  1  0  0  0
 32 33  1  0  0  0
M  END
> <minimizedAffinity>
-8.35406

> <CNNscore>
0.3005371392

> <CNNaffinity>
6.2412586212

> <CNN_VS>
1.8757300377

> <CNNaffinity_variance>
0.0713594928

$$$$
[H]c1nc2nc(N([H])c3c([H])c([H])c([H])c(C(=O)N([H])C([H])([H])C([H])([H])N(C([H])([H])[H])C([H])([H])[H])c3[H])nc(N([H])c3c([H])c(C([H])([H])[H])c([H])c([H])c3OC([H])([H])[H])c2c([H])c1[H]


 38 41  0  0  0  0  0  0  0  0999 V2000
  157.2692  140.9608  183.7001 C   0  0  0  0  0  0  0  0  0  0  0  0
  157.0207  139.8592  184.4069 N   0  0  0  0  0  0  0  0  0  0  0  0
  155.8004  139.4082  184.8031 C   0  0  0  0  0  0  0  0  0  0  0  0
  154.7830  140.1757  184.4247 N   0  0  0  0  0  0  0  0  0  0  0  0
  154.8759  141.3057  183.7153 C   0  0  0  0  0  0  0  0  0  0  0  0
  153.8134  142.0315  183.3660 N   0  0  0  0  0  0  0  0  0  0  0  0
  153.9302  143.1621  182.6527 C   0  0  0  0  0  0  0  0  0  0  0  0
  155.1474  143.6440  182.2374 C   0  0  0  0  0  0  0  0  0  0  0  0
  156.2758  142.8769  182.6061 C   0  0  0  0  0  0  0  0  0  0  0  0
  156.1600  141.7201  183.3355 C   0  0  0  0  0  0  0  0  0  0  0  0
  158.5507  141.3821  183.3188 N   0  0  0  0  0  0  0  0  0  0  0  0
  158.9541  140.9671  182.4152 H   0  0  0  0  0  0  0  0  0  0  0  0
  159.6826  143.5004  183.3065 C   0  0  0  0  0  0  0  0  0  0  0  0
  160.5355  144.4010  183.8918 C   0  0  0  0  0  0  0  0  0  0  0  0
  161.1630  144.1548  185.1041 C   0  0  0  0  0  0  0  0  0  0  0  0
  160.9267  142.9659  185.7500 C   0  0  0  0  0  0  0  0  0  0  0  0
  161.5941  142.6999  187.0416 C   0  0  0  0  0  0  0  0  0  0  0  0
  160.0520  142.0559  185.1379 C   0  0  0  0  0  0  0  0  0  0  0  0
  159.4287  142.2903  183.9424 C   0  0  0  0  0  0  0  0  0  0  0  0
  159.1075  145.1479  181.5793 C   0  0  0  0  0  0  0  0  0  0  0  0
  159.1066  143.8489  182.0880 O   0  0  0  0  0  0  0  0  0  0  0  0
  155.7095  138.2196  185.5699 N   0  0  0  0  0  0  0  0  0  0  0  0
  156.1640  137.3437  185.1603 H   0  0  0  0  0  0  0  0  0  0  0  0
  155.0769  138.0842  186.8044 C   0  0  0  0  0  0  0  0  0  0  0  0
  153.7914  138.4672  187.1069 C   0  0  0  0  0  0  0  0  0  0  0  0
  153.3035  138.2904  188.3932 C   0  0  0  0  0  0  0  0  0  0  0  0
  154.0495  137.7363  189.4218 C   0  0  0  0  0  0  0  0  0  0  0  0
  155.3301  137.3546  189.1175 C   0  0  0  0  0  0  0  0  0  0  0  0
  155.8229  137.5229  187.8575 C   0  0  0  0  0  0  0  0  0  0  0  0
  156.1424  136.7546  190.1896 C   0  0  0  0  0  0  0  0  0  0  0  0
  156.5876  137.5361  191.0975 O   0  0  0  0  0  0  0  0  0  0  0  0
  156.4541  135.3899  190.2719 N   0  0  0  0  0  0  0  0  0  0  0  0
  156.0799  134.7398  189.5073 H   0  0  0  0  0  0  0  0  0  0  0  0
  157.2445  134.7474  191.2888 C   0  0  0  0  0  0  0  0  0  0  0  0
  157.7469  133.4326  190.7952 C   0  0  0  0  0  0  0  0  0  0  0  0
  156.9116  132.3716  191.3352 N   0  0  0  0  0  0  0  0  0  0  0  0
  157.6860  131.3863  192.0543 C   0  0  0  0  0  0  0  0  0  0  0  0
  156.1833  131.7635  190.2288 C   0  0  0  0  0  0  0  0  0  0  0  0
 20 21  1  0  0  0
 21 13  1  0  0  0
 13 14  2  0  0  0
 14 15  1  0  0  0
 15 16  2  0  0  0
 16 17  1  0  0  0
 16 18  1  0  0  0
 18 19  2  0  0  0
 19 11  1  0  0  0
 11  1  1  0  0  0
  1  2  2  0  0  0
  2  3  1  0  0  0
  3 22  1  0  0  0
 22 24  1  0  0  0
 24 25  2  0  0  0
 25 26  1  0  0  0
 26 27  2  0  0  0
 27 28  1  0  0  0
 28 29  2  0  0  0
 28 30  1  0  0  0
 30 31  2  0  0  0
 30 32  1  0  0  0
 32 34  1  0  0  0
 34 35  1  0  0  0
 35 36  1  0  0  0
 36 37  1  0  0  0
 36 38  1  0  0  0
  3  4  2  0  0  0
  4  5  1  0  0  0
  5  6  2  0  0  0
  6  7  1  0  0  0
  7  8  2  0  0  0
  8  9  1  0  0  0
  9 10  2  0  0  0
 19 13  1  0  0  0
 10  1  1  0  0  0
 29 24  1  0  0  0
 10  5  1  0  0  0
 11 12  1  0  0  0
 22 23  1  0  0  0
 32 33  1  0  0  0
M  END
> <minimizedAffinity>
-8.25294

> <CNNscore>
0.2888515592

> <CNNaffinity>
6.6654791832

> <CNN_VS>
1.9253340960

> <CNNaffinity_variance>
0.0359361656

$$$$
[H]c1nc2nc(N([H])c3c([H])c([H])c([H])c(C(=O)N([H])C([H])([H])C([H])([H])N(C([H])([H])[H])C([H])([H])[H])c3[H])nc(N([H])c3c([H])c(C([H])([H])[H])c([H])c([H])c3OC([H])([H])[H])c2c([H])c1[H]


 38 41  0  0  0  0  0  0  0  0999 V2000
  155.0181  140.1712  183.9439 C   0  0  0  0  0  0  0  0  0  0  0  0
  155.3464  139.2686  184.8672 N   0  0  0  0  0  0  0  0  0  0  0  0
  154.7171  138.0869  185.1055 C   0  0  0  0  0  0  0  0  0  0  0  0
  153.6754  137.8511  184.3138 N   0  0  0  0  0  0  0  0  0  0  0  0
  153.2281  138.6594  183.3466 C   0  0  0  0  0  0  0  0  0  0  0  0
  152.1748  138.3635  182.5845 N   0  0  0  0  0  0  0  0  0  0  0  0
  151.7439  139.1895  181.6187 C   0  0  0  0  0  0  0  0  0  0  0  0
  152.3572  140.3893  181.3530 C   0  0  0  0  0  0  0  0  0  0  0  0
  153.4741  140.7058  182.1592 C   0  0  0  0  0  0  0  0  0  0  0  0
  153.9175  139.8635  183.1478 C   0  0  0  0  0  0  0  0  0  0  0  0
  155.7019  141.3781  183.7412 N   0  0  0  0  0  0  0  0  0  0  0  0
  155.2630  142.2654  184.1555 H   0  0  0  0  0  0  0  0  0  0  0  0
  158.0761  141.7334  183.8138 C   0  0  0  0  0  0  0  0  0  0  0  0
  159.2655  141.9822  183.1775 C   0  0  0  0  0  0  0  0  0  0  0  0
  159.3572  142.1388  181.8022 C   0  0  0  0  0  0  0  0  0  0  0  0
  158.2181  142.0424  181.0409 C   0  0  0  0  0  0  0  0  0  0  0  0
  158.3121  142.2093  179.5754 C   0  0  0  0  0  0  0  0  0  0  0  0
  157.0102  141.7876  181.7071 C   0  0  0  0  0  0  0  0  0  0  0  0
  156.9102  141.6318  183.0630 C   0  0  0  0  0  0  0  0  0  0  0  0
  159.2504  141.7412  185.9699 C   0  0  0  0  0  0  0  0  0  0  0  0
  158.0975  141.5933  185.1986 O   0  0  0  0  0  0  0  0  0  0  0  0
  155.1848  137.2426  186.1434 N   0  0  0  0  0  0  0  0  0  0  0  0
  155.7974  136.4158  185.8557 H   0  0  0  0  0  0  0  0  0  0  0  0
  154.9149  137.3852  187.5034 C   0  0  0  0  0  0  0  0  0  0  0  0
  154.2137  138.4116  188.0911 C   0  0  0  0  0  0  0  0  0  0  0  0
  154.0446  138.4321  189.4676 C   0  0  0  0  0  0  0  0  0  0  0  0
  154.5509  137.4565  190.3123 C   0  0  0  0  0  0  0  0  0  0  0  0
  155.2486  136.4341  189.7240 C   0  0  0  0  0  0  0  0  0  0  0  0
  155.4229  136.4014  188.3721 C   0  0  0  0  0  0  0  0  0  0  0  0
  155.7901  135.3788  190.5971 C   0  0  0  0  0  0  0  0  0  0  0  0
  154.9970  134.8611  191.4552 O   0  0  0  0  0  0  0  0  0  0  0  0
  157.1119  134.9136  190.5440 N   0  0  0  0  0  0  0  0  0  0  0  0
  157.7727  135.3522  189.8242 H   0  0  0  0  0  0  0  0  0  0  0  0
  157.6987  133.8922  191.3711 C   0  0  0  0  0  0  0  0  0  0  0  0
  157.7193  132.5903  190.6434 C   0  0  0  0  0  0  0  0  0  0  0  0
  158.8357  132.5845  189.7115 N   0  0  0  0  0  0  0  0  0  0  0  0
  158.4117  132.2945  188.3610 C   0  0  0  0  0  0  0  0  0  0  0  0
  159.8088  131.6053  190.1793 C   0  0  0  0  0  0  0  0  0  0  0  0
 20 21  1  0  0  0
 21 13  1  0  0  0
 13 14  2  0  0  0
 14 15  1  0  0  0
 15 16  2  0  0  0
 16 17  1  0  0  0
 16 18  1  0  0  0
 18 19  2  0  0  0
 19 11  1  0  0  0
 11  1  1  0  0  0
  1  2  2  0  0  0
  2  3  1  0  0  0
  3 22  1  0  0  0
 22 24  1  0  0  0
 24 25  2  0  0  0
 25 26  1  0  0  0
 26 27  2  0  0  0
 27 28  1  0  0  0
 28 29  2  0  0  0
 28 30  1  0  0  0
 30 31  2  0  0  0
 30 32  1  0  0  0
 32 34  1  0  0  0
 34 35  1  0  0  0
 35 36  1  0  0  0
 36 37  1  0  0  0
 36 38  1  0  0  0
  3  4  2  0  0  0
  4  5  1  0  0  0
  5  6  2  0  0  0
  6  7  1  0  0  0
  7  8  2  0  0  0
  8  9  1  0  0  0
  9 10  2  0  0  0
 19 13  1  0  0  0
 10  1  1  0  0  0
 29 24  1  0  0  0
 10  5  1  0  0  0
 11 12  1  0  0  0
 22 23  1  0  0  0
 32 33  1  0  0  0
M  END
> <minimizedAffinity>
-7.91923

> <CNNscore>
0.2765522301

> <CNNaffinity>
6.3730378151

> <CNN_VS>
1.7624778748

> <CNNaffinity_variance>
0.0614819229

$$$$
[H]c1nc2nc(N([H])c3c([H])c([H])c([H])c(C(=O)N([H])C([H])([H])C([H])([H])N(C([H])([H])[H])C([H])([H])[H])c3[H])nc(N([H])c3c([H])c(C([H])([H])[H])c([H])c([H])c3OC([H])([H])[H])c2c([H])c1[H]


 38 41  0  0  0  0  0  0  0  0999 V2000
  155.9422  139.9628  183.2793 C   0  0  0  0  0  0  0  0  0  0  0  0
  155.0264  140.3312  182.3846 N   0  0  0  0  0  0  0  0  0  0  0  0
  153.6814  140.1548  182.4816 C   0  0  0  0  0  0  0  0  0  0  0  0
  153.2869  139.5500  183.5979 N   0  0  0  0  0  0  0  0  0  0  0  0
  154.0859  139.1248  184.5825 C   0  0  0  0  0  0  0  0  0  0  0  0
  153.6261  138.5240  185.6805 N   0  0  0  0  0  0  0  0  0  0  0  0
  154.4465  138.1063  186.6568 C   0  0  0  0  0  0  0  0  0  0  0  0
  155.8085  138.2695  186.5892 C   0  0  0  0  0  0  0  0  0  0  0  0
  156.2991  138.9060  185.4265 C   0  0  0  0  0  0  0  0  0  0  0  0
  155.4630  139.3345  184.4261 C   0  0  0  0  0  0  0  0  0  0  0  0
  157.3208  140.1676  183.1282 N   0  0  0  0  0  0  0  0  0  0  0  0
  157.9648  139.3327  183.3274 H   0  0  0  0  0  0  0  0  0  0  0  0
  158.5188  142.1557  183.7450 C   0  0  0  0  0  0  0  0  0  0  0  0
  159.2091  143.2890  183.3979 C   0  0  0  0  0  0  0  0  0  0  0  0
  159.4419  143.6456  182.0777 C   0  0  0  0  0  0  0  0  0  0  0  0
  158.9664  142.8385  181.0733 C   0  0  0  0  0  0  0  0  0  0  0  0
  159.2121  143.2158  179.6656 C   0  0  0  0  0  0  0  0  0  0  0  0
  158.2626  141.6835  181.4453 C   0  0  0  0  0  0  0  0  0  0  0  0
  158.0282  141.3239  182.7448 C   0  0  0  0  0  0  0  0  0  0  0  0
  159.3905  141.8504  186.0199 C   0  0  0  0  0  0  0  0  0  0  0  0
  158.3421  141.8927  185.1005 O   0  0  0  0  0  0  0  0  0  0  0  0
  152.8412  140.5915  181.4269 N   0  0  0  0  0  0  0  0  0  0  0  0
  152.9947  141.5852  181.0658 H   0  0  0  0  0  0  0  0  0  0  0  0
  151.8288  139.8490  180.8215 C   0  0  0  0  0  0  0  0  0  0  0  0
  151.3167  140.0468  179.5608 C   0  0  0  0  0  0  0  0  0  0  0  0
  150.2878  139.2391  179.0996 C   0  0  0  0  0  0  0  0  0  0  0  0
  149.7274  138.2163  179.8490 C   0  0  0  0  0  0  0  0  0  0  0  0
  150.2403  138.0207  181.1048 C   0  0  0  0  0  0  0  0  0  0  0  0
  151.2514  138.8074  181.5712 C   0  0  0  0  0  0  0  0  0  0  0  0
  149.6695  136.9346  181.9196 C   0  0  0  0  0  0  0  0  0  0  0  0
  150.3140  135.8319  181.9642 O   0  0  0  0  0  0  0  0  0  0  0  0
  148.4718  137.0374  182.6417 N   0  0  0  0  0  0  0  0  0  0  0  0
  147.9349  137.9633  182.5993 H   0  0  0  0  0  0  0  0  0  0  0  0
  147.8630  136.0131  183.4491 C   0  0  0  0  0  0  0  0  0  0  0  0
  147.2159  134.9893  182.5785 C   0  0  0  0  0  0  0  0  0  0  0  0
  147.7581  133.6792  182.9020 N   0  0  0  0  0  0  0  0  0  0  0  0
  148.0184  132.8938  181.7175 C   0  0  0  0  0  0  0  0  0  0  0  0
  146.8131  133.0050  183.7835 C   0  0  0  0  0  0  0  0  0  0  0  0
 20 21  1  0  0  0
 21 13  1  0  0  0
 13 14  2  0  0  0
 14 15  1  0  0  0
 15 16  2  0  0  0
 16 17  1  0  0  0
 16 18  1  0  0  0
 18 19  2  0  0  0
 19 11  1  0  0  0
 11  1  1  0  0  0
  1  2  2  0  0  0
  2  3  1  0  0  0
  3 22  1  0  0  0
 22 24  1  0  0  0
 24 25  2  0  0  0
 25 26  1  0  0  0
 26 27  2  0  0  0
 27 28  1  0  0  0
 28 29  2  0  0  0
 28 30  1  0  0  0
 30 31  2  0  0  0
 30 32  1  0  0  0
 32 34  1  0  0  0
 34 35  1  0  0  0
 35 36  1  0  0  0
 36 37  1  0  0  0
 36 38  1  0  0  0
  3  4  2  0  0  0
  4  5  1  0  0  0
  5  6  2  0  0  0
  6  7  1  0  0  0
  7  8  2  0  0  0
  8  9  1  0  0  0
  9 10  2  0  0  0
 19 13  1  0  0  0
 10  1  1  0  0  0
 29 24  1  0  0  0
 10  5  1  0  0  0
 11 12  1  0  0  0
 22 23  1  0  0  0
 32 33  1  0  0  0
M  END
> <minimizedAffinity>
-7.57162

> <CNNscore>
0.2589822412

> <CNNaffinity>
6.3763113022

> <CNN_VS>
1.6513513327

> <CNNaffinity_variance>
0.0684771389

$$$$
[H]OC(c1c([H])c(C(F)(F)F)c([H])c(S(=O)(=O)N(C([H])([H])[H])C([H])([H])[H])c1[H])(C(F)(F)F)C(F)(F)F


 27 27  0  0  0  0  0  0  0  0999 V2000
  151.4404  135.8851  189.8650 C   0  0  0  0  0  0  0  0  0  0  0  0
  151.1288  136.0340  191.1880 C   0  0  0  0  0  0  0  0  0  0  0  0
  152.0644  136.4642  192.1144 C   0  0  0  0  0  0  0  0  0  0  0  0
  153.3544  136.7579  191.7031 C   0  0  0  0  0  0  0  0  0  0  0  0
  153.7009  136.6212  190.3930 C   0  0  0  0  0  0  0  0  0  0  0  0
  152.7486  136.1836  189.4645 C   0  0  0  0  0  0  0  0  0  0  0  0
  151.7150  136.6434  193.5459 C   0  0  0  0  0  0  0  0  0  0  0  0
  151.9998  137.9691  193.9222 F   0  0  0  0  0  0  0  0  0  0  0  0
  152.4250  135.7985  194.3734 F   0  0  0  0  0  0  0  0  0  0  0  0
  150.3626  136.4565  193.7722 F   0  0  0  0  0  0  0  0  0  0  0  0
  150.3052  135.3103  188.7043 S   0  0  0  0  0  0  0  0  0  0  0  0
  150.2873  136.2483  187.5364 O   0  0  0  0  0  0  0  0  0  0  0  0
  150.6574  133.9096  188.1789 O   0  0  0  0  0  0  0  0  0  0  0  0
  147.8371  136.2685  188.8656 C   0  0  0  0  0  0  0  0  0  0  0  0
  148.6936  135.1652  189.2866 N   0  0  0  0  0  0  0  0  0  0  0  0
  148.1025  133.9699  188.6599 C   0  0  0  0  0  0  0  0  0  0  0  0
  155.0565  136.9075  189.8951 C   0  0  0  0  0  0  0  0  0  0  0  0
  155.0704  136.4445  188.5446 O   0  0  0  0  0  0  0  0  0  0  0  0
  154.1744  136.5249  188.1724 H   0  0  0  0  0  0  0  0  0  0  0  0
  155.3841  138.3595  189.8418 C   0  0  0  0  0  0  0  0  0  0  0  0
  154.3977  138.9899  189.0745 F   0  0  0  0  0  0  0  0  0  0  0  0
  156.5511  138.5583  189.1528 F   0  0  0  0  0  0  0  0  0  0  0  0
  155.3028  138.9917  191.0614 F   0  0  0  0  0  0  0  0  0  0  0  0
  156.1512  136.1795  190.5822 C   0  0  0  0  0  0  0  0  0  0  0  0
  157.2230  135.8613  189.7288 F   0  0  0  0  0  0  0  0  0  0  0  0
  155.7687  134.8994  191.0272 F   0  0  0  0  0  0  0  0  0  0  0  0
  156.6712  136.8790  191.6443 F   0  0  0  0  0  0  0  0  0  0  0  0
 14 15  1  0  0  0
 15 16  1  0  0  0
 15 11  1  0  0  0
 11 12  2  0  0  0
 11 13  2  0  0  0
 11  1  1  0  0  0
  1  2  2  0  0  0
  2  3  1  0  0  0
  3  4  2  0  0  0
  4  5  1  0  0  0
  5  6  2  0  0  0
  5 17  1  0  0  0
 17 18  1  0  0  0
 17 20  1  0  0  0
 20 21  1  0  0  0
 20 22  1  0  0  0
 20 23  1  0  0  0
 17 24  1  0  0  0
 24 25  1  0  0  0
 24 26  1  0  0  0
 24 27  1  0  0  0
  3  7  1  0  0  0
  7  8  1  0  0  0
  7  9  1  0  0  0
  7 10  1  0  0  0
  6  1  1  0  0  0
 18 19  1  0  0  0
M  END
> <minimizedAffinity>
-6.35280

> <CNNscore>
0.6803467274

> <CNNaffinity>
5.1259965897

> <CNN_VS>
3.4874548912

> <CNNaffinity_variance>
0.0860395506

$$$$
[H]OC(c1c([H])c(C(F)(F)F)c([H])c(S(=O)(=O)N(C([H])([H])[H])C([H])([H])[H])c1[H])(C(F)(F)F)C(F)(F)F


 27 27  0  0  0  0  0  0  0  0999 V2000
  151.6095  135.8718  189.7287 C   0  0  0  0  0  0  0  0  0  0  0  0
  151.2621  136.0629  191.0373 C   0  0  0  0  0  0  0  0  0  0  0  0
  152.1410  136.6189  191.9523 C   0  0  0  0  0  0  0  0  0  0  0  0
  153.4091  136.9989  191.5438 C   0  0  0  0  0  0  0  0  0  0  0  0
  153.7901  136.8237  190.2479 C   0  0  0  0  0  0  0  0  0  0  0  0
  152.8951  136.2588  189.3311 C   0  0  0  0  0  0  0  0  0  0  0  0
  151.7514  136.8427  193.3670 C   0  0  0  0  0  0  0  0  0  0  0  0
  152.5132  135.9923  194.1897 F   0  0  0  0  0  0  0  0  0  0  0  0
  150.4165  136.5814  193.5957 F   0  0  0  0  0  0  0  0  0  0  0  0
  152.0298  138.1344  193.7785 F   0  0  0  0  0  0  0  0  0  0  0  0
  150.5481  135.1428  188.5849 S   0  0  0  0  0  0  0  0  0  0  0  0
  150.6192  133.6542  188.7362 O   0  0  0  0  0  0  0  0  0  0  0  0
  149.0847  135.5679  188.7843 O   0  0  0  0  0  0  0  0  0  0  0  0
  150.2624  134.5989  186.0045 C   0  0  0  0  0  0  0  0  0  0  0  0
  150.8922  135.5212  186.9430 N   0  0  0  0  0  0  0  0  0  0  0  0
  150.2799  136.8296  186.6526 C   0  0  0  0  0  0  0  0  0  0  0  0
  155.1258  137.1974  189.7544 C   0  0  0  0  0  0  0  0  0  0  0  0
  155.7642  135.9655  189.4173 O   0  0  0  0  0  0  0  0  0  0  0  0
  155.0875  135.3234  189.1387 H   0  0  0  0  0  0  0  0  0  0  0  0
  155.1009  138.0096  188.5061 C   0  0  0  0  0  0  0  0  0  0  0  0
  156.3367  138.6575  188.3957 F   0  0  0  0  0  0  0  0  0  0  0  0
  154.1797  139.0176  188.6134 F   0  0  0  0  0  0  0  0  0  0  0  0
  155.0227  137.2575  187.3563 F   0  0  0  0  0  0  0  0  0  0  0  0
  156.0100  137.8503  190.7505 C   0  0  0  0  0  0  0  0  0  0  0  0
  156.1514  137.1054  191.9351 F   0  0  0  0  0  0  0  0  0  0  0  0
  155.4830  139.0571  191.2493 F   0  0  0  0  0  0  0  0  0  0  0  0
  157.2738  138.0873  190.2661 F   0  0  0  0  0  0  0  0  0  0  0  0
 14 15  1  0  0  0
 15 16  1  0  0  0
 15 11  1  0  0  0
 11 12  2  0  0  0
 11 13  2  0  0  0
 11  1  1  0  0  0
  1  2  2  0  0  0
  2  3  1  0  0  0
  3  4  2  0  0  0
  4  5  1  0  0  0
  5  6  2  0  0  0
  5 17  1  0  0  0
 17 18  1  0  0  0
 17 20  1  0  0  0
 20 21  1  0  0  0
 20 22  1  0  0  0
 20 23  1  0  0  0
 17 24  1  0  0  0
 24 25  1  0  0  0
 24 26  1  0  0  0
 24 27  1  0  0  0
  3  7  1  0  0  0
  7  8  1  0  0  0
  7  9  1  0  0  0
  7 10  1  0  0  0
  6  1  1  0  0  0
 18 19  1  0  0  0
M  END
> <minimizedAffinity>
-6.43355

> <CNNscore>
0.6419763565

> <CNNaffinity>
5.1178197861

> <CNN_VS>
3.2855193615

> <CNNaffinity_variance>
0.0631328672

$$$$
[H]OC(c1c([H])c(C(F)(F)F)c([H])c(S(=O)(=O)N(C([H])([H])[H])C([H])([H])[H])c1[H])(C(F)(F)F)C(F)(F)F


 27 27  0  0  0  0  0  0  0  0999 V2000
  155.2640  139.5858  184.5082 C   0  0  0  0  0  0  0  0  0  0  0  0
  154.4999  140.6171  184.0369 C   0  0  0  0  0  0  0  0  0  0  0  0
  155.0680  141.7624  183.5039 C   0  0  0  0  0  0  0  0  0  0  0  0
  156.4470  141.8790  183.4380 C   0  0  0  0  0  0  0  0  0  0  0  0
  157.2400  140.8718  183.8981 C   0  0  0  0  0  0  0  0  0  0  0  0
  156.6561  139.7189  184.4370 C   0  0  0  0  0  0  0  0  0  0  0  0
  154.2334  142.8702  182.9750 C   0  0  0  0  0  0  0  0  0  0  0  0
  153.1527  142.3245  182.2578 F   0  0  0  0  0  0  0  0  0  0  0  0
  154.9352  143.7037  182.1292 F   0  0  0  0  0  0  0  0  0  0  0  0
  153.6820  143.6292  183.9924 F   0  0  0  0  0  0  0  0  0  0  0  0
  154.5792  138.1720  185.2142 S   0  0  0  0  0  0  0  0  0  0  0  0
  154.4023  137.1339  184.1488 O   0  0  0  0  0  0  0  0  0  0  0  0
  155.4693  137.5722  186.3142 O   0  0  0  0  0  0  0  0  0  0  0  0
  152.1606  137.2698  185.8246 C   0  0  0  0  0  0  0  0  0  0  0  0
  153.0540  138.4138  185.9710 N   0  0  0  0  0  0  0  0  0  0  0  0
  153.2916  138.5221  187.4211 C   0  0  0  0  0  0  0  0  0  0  0  0
  158.7103  140.9392  183.8651 C   0  0  0  0  0  0  0  0  0  0  0  0
  159.1589  139.6548  184.2983 O   0  0  0  0  0  0  0  0  0  0  0  0
  158.4995  138.9857  184.0430 H   0  0  0  0  0  0  0  0  0  0  0  0
  159.2734  141.1395  182.5007 C   0  0  0  0  0  0  0  0  0  0  0  0
  158.9905  139.9915  181.7514 F   0  0  0  0  0  0  0  0  0  0  0  0
  160.6407  141.2002  182.5551 F   0  0  0  0  0  0  0  0  0  0  0  0
  158.6646  142.1500  181.7922 F   0  0  0  0  0  0  0  0  0  0  0  0
  159.3214  141.9160  184.7994 C   0  0  0  0  0  0  0  0  0  0  0  0
  160.5999  141.5313  185.2415 F   0  0  0  0  0  0  0  0  0  0  0  0
  158.6300  142.0175  186.0219 F   0  0  0  0  0  0  0  0  0  0  0  0
  159.4406  143.1715  184.2541 F   0  0  0  0  0  0  0  0  0  0  0  0
 14 15  1  0  0  0
 15 16  1  0  0  0
 15 11  1  0  0  0
 11 12  2  0  0  0
 11 13  2  0  0  0
 11  1  1  0  0  0
  1  2  2  0  0  0
  2  3  1  0  0  0
  3  4  2  0  0  0
  4  5  1  0  0  0
  5  6  2  0  0  0
  5 17  1  0  0  0
 17 18  1  0  0  0
 17 20  1  0  0  0
 20 21  1  0  0  0
 20 22  1  0  0  0
 20 23  1  0  0  0
 17 24  1  0  0  0
 24 25  1  0  0  0
 24 26  1  0  0  0
 24 27  1  0  0  0
  3  7  1  0  0  0
  7  8  1  0  0  0
  7  9  1  0  0  0
  7 10  1  0  0  0
  6  1  1  0  0  0
 18 19  1  0  0  0
M  END
> <minimizedAffinity>
-7.85717

> <CNNscore>
0.6280465126

> <CNNaffinity>
5.8378710747

> <CNN_VS>
3.6664545536

> <CNNaffinity_variance>
0.0828364044

$$$$
[H]OC(c1c([H])c(C(F)(F)F)c([H])c(S(=O)(=O)N(C([H])([H])[H])C([H])([H])[H])c1[H])(C(F)(F)F)C(F)(F)F


 27 27  0  0  0  0  0  0  0  0999 V2000
  153.1845  135.8173  189.0376 C   0  0  0  0  0  0  0  0  0  0  0  0
  154.1557  136.7507  189.2724 C   0  0  0  0  0  0  0  0  0  0  0  0
  154.3737  137.2756  190.5356 C   0  0  0  0  0  0  0  0  0  0  0  0
  153.5957  136.8505  191.6003 C   0  0  0  0  0  0  0  0  0  0  0  0
  152.6188  135.9220  191.4039 C   0  0  0  0  0  0  0  0  0  0  0  0
  152.4047  135.3990  190.1229 C   0  0  0  0  0  0  0  0  0  0  0  0
  155.4430  138.2736  190.7885 C   0  0  0  0  0  0  0  0  0  0  0  0
  156.0434  138.6190  189.5636 F   0  0  0  0  0  0  0  0  0  0  0  0
  156.4252  137.7946  191.6301 F   0  0  0  0  0  0  0  0  0  0  0  0
  154.9356  139.4473  191.3180 F   0  0  0  0  0  0  0  0  0  0  0  0
  152.8678  135.1839  187.4677 S   0  0  0  0  0  0  0  0  0  0  0  0
  154.0310  135.4923  186.5756 O   0  0  0  0  0  0  0  0  0  0  0  0
  152.6707  133.6596  187.4759 O   0  0  0  0  0  0  0  0  0  0  0  0
  151.4167  137.2609  186.6826 C   0  0  0  0  0  0  0  0  0  0  0  0
  151.4503  135.8028  186.7160 N   0  0  0  0  0  0  0  0  0  0  0  0
  151.4857  135.3949  185.3006 C   0  0  0  0  0  0  0  0  0  0  0  0
  151.7527  135.4372  192.4913 C   0  0  0  0  0  0  0  0  0  0  0  0
  151.6594  134.0252  192.3012 O   0  0  0  0  0  0  0  0  0  0  0  0
  152.4808  133.7058  191.8876 H   0  0  0  0  0  0  0  0  0  0  0  0
  152.3247  135.6381  193.8517 C   0  0  0  0  0  0  0  0  0  0  0  0
  151.6255  134.8063  194.7340 F   0  0  0  0  0  0  0  0  0  0  0  0
  152.0735  136.9115  194.2896 F   0  0  0  0  0  0  0  0  0  0  0  0
  153.6297  135.2184  193.9723 F   0  0  0  0  0  0  0  0  0  0  0  0
  150.3577  135.9408  192.4631 C   0  0  0  0  0  0  0  0  0  0  0  0
  150.2625  137.2790  192.0409 F   0  0  0  0  0  0  0  0  0  0  0  0
  149.7722  136.0167  193.7415 F   0  0  0  0  0  0  0  0  0  0  0  0
  149.5398  135.1978  191.6465 F   0  0  0  0  0  0  0  0  0  0  0  0
 14 15  1  0  0  0
 15 16  1  0  0  0
 15 11  1  0  0  0
 11 12  2  0  0  0
 11 13  2  0  0  0
 11  1  1  0  0  0
  1  2  2  0  0  0
  2  3  1  0  0  0
  3  4  2  0  0  0
  4  5  1  0  0  0
  5  6  2  0  0  0
  5 17  1  0  0  0
 17 18  1  0  0  0
 17 20  1  0  0  0
 20 21  1  0  0  0
 20 22  1  0  0  0
 20 23  1  0  0  0
 17 24  1  0  0  0
 24 25  1  0  0  0
 24 26  1  0  0  0
 24 27  1  0  0  0
  3  7  1  0  0  0
  7  8  1  0  0  0
  7  9  1  0  0  0
  7 10  1  0  0  0
  6  1  1  0  0  0
 18 19  1  0  0  0
M  END
> <minimizedAffinity>
-5.81169

> <CNNscore>
0.6236017346

> <CNNaffinity>
5.0591888428

> <CNN_VS>
3.1549189091

> <CNNaffinity_variance>
0.0543223619

$$$$
[H]OC(c1c([H])c(C(F)(F)F)c([H])c(S(=O)(=O)N(C([H])([H])[H])C([H])([H])[H])c1[H])(C(F)(F)F)C(F)(F)F


 27 27  0  0  0  0  0  0  0  0999 V2000
  153.0871  135.7261  190.6155 C   0  0  0  0  0  0  0  0  0  0  0  0
  154.1198  136.4538  191.1385 C   0  0  0  0  0  0  0  0  0  0  0  0
  154.9151  137.2659  190.3469 C   0  0  0  0  0  0  0  0  0  0  0  0
  154.6674  137.3549  188.9866 C   0  0  0  0  0  0  0  0  0  0  0  0
  153.6472  136.6442  188.4306 C   0  0  0  0  0  0  0  0  0  0  0  0
  152.8502  135.8245  189.2389 C   0  0  0  0  0  0  0  0  0  0  0  0
  156.0220  138.0694  190.9234 C   0  0  0  0  0  0  0  0  0  0  0  0
  156.6554  137.3171  191.9298 F   0  0  0  0  0  0  0  0  0  0  0  0
  155.5823  139.2518  191.4813 F   0  0  0  0  0  0  0  0  0  0  0  0
  156.9943  138.3556  189.9810 F   0  0  0  0  0  0  0  0  0  0  0  0
  152.1136  134.6772  191.5738 S   0  0  0  0  0  0  0  0  0  0  0  0
  151.1942  133.9103  190.6735 O   0  0  0  0  0  0  0  0  0  0  0  0
  152.9486  133.6622  192.3705 O   0  0  0  0  0  0  0  0  0  0  0  0
  151.9077  135.8533  193.9424 C   0  0  0  0  0  0  0  0  0  0  0  0
  151.1498  135.4721  192.7555 N   0  0  0  0  0  0  0  0  0  0  0  0
  150.6972  136.7474  192.1727 C   0  0  0  0  0  0  0  0  0  0  0  0
  153.3395  136.6882  186.9915 C   0  0  0  0  0  0  0  0  0  0  0  0
  152.4807  135.5729  186.7529 O   0  0  0  0  0  0  0  0  0  0  0  0
  151.9627  135.3934  187.5574 H   0  0  0  0  0  0  0  0  0  0  0  0
  152.5771  137.8983  186.5756 C   0  0  0  0  0  0  0  0  0  0  0  0
  151.2562  137.7388  187.0104 F   0  0  0  0  0  0  0  0  0  0  0  0
  152.4961  137.9628  185.2098 F   0  0  0  0  0  0  0  0  0  0  0  0
  152.9884  139.0544  187.1985 F   0  0  0  0  0  0  0  0  0  0  0  0
  154.5017  136.5027  186.0886 C   0  0  0  0  0  0  0  0  0  0  0  0
  155.5015  135.6800  186.6380 F   0  0  0  0  0  0  0  0  0  0  0  0
  155.2213  137.6919  185.8635 F   0  0  0  0  0  0  0  0  0  0  0  0
  154.1519  135.9619  184.8749 F   0  0  0  0  0  0  0  0  0  0  0  0
 14 15  1  0  0  0
 15 16  1  0  0  0
 15 11  1  0  0  0
 11 12  2  0  0  0
 11 13  2  0  0  0
 11  1  1  0  0  0
  1  2  2  0  0  0
  2  3  1  0  0  0
  3  4  2  0  0  0
  4  5  1  0  0  0
  5  6  2  0  0  0
  5 17  1  0  0  0
 17 18  1  0  0  0
 17 20  1  0  0  0
 20 21  1  0  0  0
 20 22  1  0  0  0
 20 23  1  0  0  0
 17 24  1  0  0  0
 24 25  1  0  0  0
 24 26  1  0  0  0
 24 27  1  0  0  0
  3  7  1  0  0  0
  7  8  1  0  0  0
  7  9  1  0  0  0
  7 10  1  0  0  0
  6  1  1  0  0  0
 18 19  1  0  0  0
M  END
> <minimizedAffinity>
-5.56028

> <CNNscore>
0.6198791265

> <CNNaffinity>
5.1600403786

> <CNN_VS>
3.1986012459

> <CNNaffinity_variance>
0.0562366247

$$$$
[H]OC(c1c([H])c(C(F)(F)F)c([H])c(S(=O)(=O)N(C([H])([H])[H])C([H])([H])[H])c1[H])(C(F)(F)F)C(F)(F)F


 27 27  0  0  0  0  0  0  0  0999 V2000
  153.1053  138.8876  183.0890 C   0  0  0  0  0  0  0  0  0  0  0  0
  153.5197  138.3315  184.2674 C   0  0  0  0  0  0  0  0  0  0  0  0
  154.6073  138.8285  184.9665 C   0  0  0  0  0  0  0  0  0  0  0  0
  155.3022  139.9200  184.4714 C   0  0  0  0  0  0  0  0  0  0  0  0
  154.9182  140.4999  183.3003 C   0  0  0  0  0  0  0  0  0  0  0  0
  153.8187  139.9888  182.5999 C   0  0  0  0  0  0  0  0  0  0  0  0
  155.0403  138.2335  186.2556 C   0  0  0  0  0  0  0  0  0  0  0  0
  154.9969  136.8311  186.1480 F   0  0  0  0  0  0  0  0  0  0  0  0
  154.2337  138.6101  187.3093 F   0  0  0  0  0  0  0  0  0  0  0  0
  156.3506  138.5604  186.5582 F   0  0  0  0  0  0  0  0  0  0  0  0
  151.7830  138.2591  182.1818 S   0  0  0  0  0  0  0  0  0  0  0  0
  152.2756  137.1393  181.3174 O   0  0  0  0  0  0  0  0  0  0  0  0
  150.6635  137.7061  183.0779 O   0  0  0  0  0  0  0  0  0  0  0  0
  151.4924  139.3701  179.7908 C   0  0  0  0  0  0  0  0  0  0  0  0
  151.0015  139.4041  181.1642 N   0  0  0  0  0  0  0  0  0  0  0  0
  149.5839  139.0145  181.0666 C   0  0  0  0  0  0  0  0  0  0  0  0
  155.6206  141.6548  182.7171 C   0  0  0  0  0  0  0  0  0  0  0  0
  155.5861  141.4464  181.3050 O   0  0  0  0  0  0  0  0  0  0  0  0
  154.7800  140.9503  181.0772 H   0  0  0  0  0  0  0  0  0  0  0  0
  154.9434  142.9584  182.9631 C   0  0  0  0  0  0  0  0  0  0  0  0
  153.6329  142.8540  182.4825 F   0  0  0  0  0  0  0  0  0  0  0  0
  155.5213  143.9441  182.2078 F   0  0  0  0  0  0  0  0  0  0  0  0
  154.7793  143.2553  184.2968 F   0  0  0  0  0  0  0  0  0  0  0  0
  157.0561  141.7695  183.0727 C   0  0  0  0  0  0  0  0  0  0  0  0
  157.2651  142.1105  184.4212 F   0  0  0  0  0  0  0  0  0  0  0  0
  157.7033  142.8358  182.4192 F   0  0  0  0  0  0  0  0  0  0  0  0
  157.7583  140.6131  182.8324 F   0  0  0  0  0  0  0  0  0  0  0  0
 14 15  1  0  0  0
 15 16  1  0  0  0
 15 11  1  0  0  0
 11 12  2  0  0  0
 11 13  2  0  0  0
 11  1  1  0  0  0
  1  2  2  0  0  0
  2  3  1  0  0  0
  3  4  2  0  0  0
  4  5  1  0  0  0
  5  6  2  0  0  0
  5 17  1  0  0  0
 17 18  1  0  0  0
 17 20  1  0  0  0
 20 21  1  0  0  0
 20 22  1  0  0  0
 20 23  1  0  0  0
 17 24  1  0  0  0
 24 25  1  0  0  0
 24 26  1  0  0  0
 24 27  1  0  0  0
  3  7  1  0  0  0
  7  8  1  0  0  0
  7  9  1  0  0  0
  7 10  1  0  0  0
  6  1  1  0  0  0
 18 19  1  0  0  0
M  END
> <minimizedAffinity>
-7.25439

> <CNNscore>
0.6077650189

> <CNNaffinity>
5.6864204407

> <CNN_VS>
3.4560074806

> <CNNaffinity_variance>
0.0507116541

$$$$
[H]OC(c1c([H])c(C(F)(F)F)c([H])c(S(=O)(=O)N(C([H])([H])[H])C([H])([H])[H])c1[H])(C(F)(F)F)C(F)(F)F


 27 27  0  0  0  0  0  0  0  0999 V2000
  154.0361  139.2757  184.3419 C   0  0  0  0  0  0  0  0  0  0  0  0
  154.4442  140.5671  184.1539 C   0  0  0  0  0  0  0  0  0  0  0  0
  154.0037  141.3230  183.0800 C   0  0  0  0  0  0  0  0  0  0  0  0
  153.1232  140.7691  182.1648 C   0  0  0  0  0  0  0  0  0  0  0  0
  152.6951  139.4855  182.3199 C   0  0  0  0  0  0  0  0  0  0  0  0
  153.1479  138.7289  183.4076 C   0  0  0  0  0  0  0  0  0  0  0  0
  154.4341  142.7310  182.8921 C   0  0  0  0  0  0  0  0  0  0  0  0
  155.3847  142.7828  181.8557 F   0  0  0  0  0  0  0  0  0  0  0  0
  155.0054  143.2655  184.0281 F   0  0  0  0  0  0  0  0  0  0  0  0
  153.3837  143.5413  182.4978 F   0  0  0  0  0  0  0  0  0  0  0  0
  154.6049  138.3042  185.6454 S   0  0  0  0  0  0  0  0  0  0  0  0
  154.5144  136.8618  185.2517 O   0  0  0  0  0  0  0  0  0  0  0  0
  156.0681  138.6032  186.0085 O   0  0  0  0  0  0  0  0  0  0  0  0
  152.5534  137.6582  187.1977 C   0  0  0  0  0  0  0  0  0  0  0  0
  153.7408  138.5022  187.1189 N   0  0  0  0  0  0  0  0  0  0  0  0
  154.6113  138.0293  188.2095 C   0  0  0  0  0  0  0  0  0  0  0  0
  151.7685  138.8370  181.3775 C   0  0  0  0  0  0  0  0  0  0  0  0
  152.3997  137.6108  181.0079 O   0  0  0  0  0  0  0  0  0  0  0  0
  152.9485  137.3003  181.7497 H   0  0  0  0  0  0  0  0  0  0  0  0
  150.4579  138.4664  181.9805 C   0  0  0  0  0  0  0  0  0  0  0  0
  149.9000  137.4516  181.1943 F   0  0  0  0  0  0  0  0  0  0  0  0
  149.5788  139.5126  181.8864 F   0  0  0  0  0  0  0  0  0  0  0  0
  150.5631  137.8931  183.2271 F   0  0  0  0  0  0  0  0  0  0  0  0
  151.5384  139.5703  180.1087 C   0  0  0  0  0  0  0  0  0  0  0  0
  150.7030  138.8771  179.2144 F   0  0  0  0  0  0  0  0  0  0  0  0
  152.7058  139.7140  179.3345 F   0  0  0  0  0  0  0  0  0  0  0  0
  150.9829  140.8117  180.3045 F   0  0  0  0  0  0  0  0  0  0  0  0
 14 15  1  0  0  0
 15 16  1  0  0  0
 15 11  1  0  0  0
 11 12  2  0  0  0
 11 13  2  0  0  0
 11  1  1  0  0  0
  1  2  2  0  0  0
  2  3  1  0  0  0
  3  4  2  0  0  0
  4  5  1  0  0  0
  5  6  2  0  0  0
  5 17  1  0  0  0
 17 18  1  0  0  0
 17 20  1  0  0  0
 20 21  1  0  0  0
 20 22  1  0  0  0
 20 23  1  0  0  0
 17 24  1  0  0  0
 24 25  1  0  0  0
 24 26  1  0  0  0
 24 27  1  0  0  0
  3  7  1  0  0  0
  7  8  1  0  0  0
  7  9  1  0  0  0
  7 10  1  0  0  0
  6  1  1  0  0  0
 18 19  1  0  0  0
M  END
> <minimizedAffinity>
-7.15988

> <CNNscore>
0.5865803361

> <CNNaffinity>
5.1466031075

> <CNN_VS>
3.0188961029

> <CNNaffinity_variance>
0.2716961205

$$$$
[H]OC(c1c([H])c(C(F)(F)F)c([H])c(S(=O)(=O)N(C([H])([H])[H])C([H])([H])[H])c1[H])(C(F)(F)F)C(F)(F)F


 27 27  0  0  0  0  0  0  0  0999 V2000
  155.2172  139.5522  184.5065 C   0  0  0  0  0  0  0  0  0  0  0  0
  154.4670  140.5947  184.0377 C   0  0  0  0  0  0  0  0  0  0  0  0
  155.0505  141.7364  183.5135 C   0  0  0  0  0  0  0  0  0  0  0  0
  156.4310  141.8375  183.4540 C   0  0  0  0  0  0  0  0  0  0  0  0
  157.2104  140.8187  183.9118 C   0  0  0  0  0  0  0  0  0  0  0  0
  156.6111  139.6696  184.4418 C   0  0  0  0  0  0  0  0  0  0  0  0
  154.2310  142.8566  182.9874 C   0  0  0  0  0  0  0  0  0  0  0  0
  153.7635  143.6267  184.0684 F   0  0  0  0  0  0  0  0  0  0  0  0
  153.1397  142.4199  182.2655 F   0  0  0  0  0  0  0  0  0  0  0  0
  154.9770  143.7110  182.1945 F   0  0  0  0  0  0  0  0  0  0  0  0
  154.5132  138.1424  185.2017 S   0  0  0  0  0  0  0  0  0  0  0  0
  153.1362  138.4763  185.6877 O   0  0  0  0  0  0  0  0  0  0  0  0
  154.3911  136.9871  184.1954 O   0  0  0  0  0  0  0  0  0  0  0  0
  155.0215  138.0718  187.8040 C   0  0  0  0  0  0  0  0  0  0  0  0
  155.3906  137.4786  186.5233 N   0  0  0  0  0  0  0  0  0  0  0  0
  155.0077  136.0607  186.6413 C   0  0  0  0  0  0  0  0  0  0  0  0
  158.6815  140.8694  183.8854 C   0  0  0  0  0  0  0  0  0  0  0  0
  159.1134  139.5701  184.2903 O   0  0  0  0  0  0  0  0  0  0  0  0
  158.4470  138.9150  184.0173 H   0  0  0  0  0  0  0  0  0  0  0  0
  159.2519  141.0944  182.5280 C   0  0  0  0  0  0  0  0  0  0  0  0
  158.9516  139.9708  181.7491 F   0  0  0  0  0  0  0  0  0  0  0  0
  160.6199  141.1302  182.5873 F   0  0  0  0  0  0  0  0  0  0  0  0
  158.6627  142.1329  181.8438 F   0  0  0  0  0  0  0  0  0  0  0  0
  159.3006  141.8170  184.8441 C   0  0  0  0  0  0  0  0  0  0  0  0
  159.4715  143.1077  184.3120 F   0  0  0  0  0  0  0  0  0  0  0  0
  160.6278  141.4808  185.1736 F   0  0  0  0  0  0  0  0  0  0  0  0
  158.5774  141.9485  186.0050 F   0  0  0  0  0  0  0  0  0  0  0  0
 14 15  1  0  0  0
 15 16  1  0  0  0
 15 11  1  0  0  0
 11 12  2  0  0  0
 11 13  2  0  0  0
 11  1  1  0  0  0
  1  2  2  0  0  0
  2  3  1  0  0  0
  3  4  2  0  0  0
  4  5  1  0  0  0
  5  6  2  0  0  0
  5 17  1  0  0  0
 17 18  1  0  0  0
 17 20  1  0  0  0
 20 21  1  0  0  0
 20 22  1  0  0  0
 20 23  1  0  0  0
 17 24  1  0  0  0
 24 25  1  0  0  0
 24 26  1  0  0  0
 24 27  1  0  0  0
  3  7  1  0  0  0
  7  8  1  0  0  0
  7  9  1  0  0  0
  7 10  1  0  0  0
  6  1  1  0  0  0
 18 19  1  0  0  0
M  END
> <minimizedAffinity>
-7.78098

> <CNNscore>
0.5802907944

> <CNNaffinity>
5.8309946060

> <CNN_VS>
3.3836724758

> <CNNaffinity_variance>
0.0847315341

$$$$
[H]OC(c1c([H])c(C(F)(F)F)c([H])c(S(=O)(=O)N(C([H])([H])[H])C([H])([H])[H])c1[H])(C(F)(F)F)C(F)(F)F


 27 27  0  0  0  0  0  0  0  0999 V2000
  153.6886  138.7162  184.0886 C   0  0  0  0  0  0  0  0  0  0  0  0
  154.1977  139.9801  183.9755 C   0  0  0  0  0  0  0  0  0  0  0  0
  153.7802  140.8490  182.9808 C   0  0  0  0  0  0  0  0  0  0  0  0
  152.8192  140.4406  182.0702 C   0  0  0  0  0  0  0  0  0  0  0  0
  152.2896  139.1884  182.1520 C   0  0  0  0  0  0  0  0  0  0  0  0
  152.7197  138.3167  183.1598 C   0  0  0  0  0  0  0  0  0  0  0  0
  154.3215  142.2271  182.8752 C   0  0  0  0  0  0  0  0  0  0  0  0
  153.2779  143.1007  182.5175 F   0  0  0  0  0  0  0  0  0  0  0  0
  155.3167  142.3331  181.9261 F   0  0  0  0  0  0  0  0  0  0  0  0
  154.8112  142.6812  184.0873 F   0  0  0  0  0  0  0  0  0  0  0  0
  154.2246  137.6050  185.2905 S   0  0  0  0  0  0  0  0  0  0  0  0
  154.3423  136.2440  184.6758 O   0  0  0  0  0  0  0  0  0  0  0  0
  155.5973  137.9810  185.8705 O   0  0  0  0  0  0  0  0  0  0  0  0
  152.9441  138.7601  187.3059 C   0  0  0  0  0  0  0  0  0  0  0  0
  153.1929  137.4758  186.6602 N   0  0  0  0  0  0  0  0  0  0  0  0
  151.8720  137.0345  186.1794 C   0  0  0  0  0  0  0  0  0  0  0  0
  151.2735  138.6918  181.2095 C   0  0  0  0  0  0  0  0  0  0  0  0
  151.6708  137.3578  180.8914 O   0  0  0  0  0  0  0  0  0  0  0  0
  152.1401  136.9761  181.6543 H   0  0  0  0  0  0  0  0  0  0  0  0
  149.9073  138.5921  181.7944 C   0  0  0  0  0  0  0  0  0  0  0  0
  150.0487  138.3528  183.1663 F   0  0  0  0  0  0  0  0  0  0  0  0
  149.2608  137.4877  181.3060 F   0  0  0  0  0  0  0  0  0  0  0  0
  149.1934  139.7672  181.7398 F   0  0  0  0  0  0  0  0  0  0  0  0
  151.2045  139.4115  179.9142 C   0  0  0  0  0  0  0  0  0  0  0  0
  152.4527  139.5179  179.2748 F   0  0  0  0  0  0  0  0  0  0  0  0
  150.8543  140.7682  180.0545 F   0  0  0  0  0  0  0  0  0  0  0  0
  150.3404  138.8223  179.0231 F   0  0  0  0  0  0  0  0  0  0  0  0
 14 15  1  0  0  0
 15 16  1  0  0  0
 15 11  1  0  0  0
 11 12  2  0  0  0
 11 13  2  0  0  0
 11  1  1  0  0  0
  1  2  2  0  0  0
  2  3  1  0  0  0
  3  4  2  0  0  0
  4  5  1  0  0  0
  5  6  2  0  0  0
  5 17  1  0  0  0
 17 18  1  0  0  0
 17 20  1  0  0  0
 20 21  1  0  0  0
 20 22  1  0  0  0
 20 23  1  0  0  0
 17 24  1  0  0  0
 24 25  1  0  0  0
 24 26  1  0  0  0
 24 27  1  0  0  0
  3  7  1  0  0  0
  7  8  1  0  0  0
  7  9  1  0  0  0
  7 10  1  0  0  0
  6  1  1  0  0  0
 18 19  1  0  0  0
M  END
> <minimizedAffinity>
-6.58426

> <CNNscore>
0.5650032163

> <CNNaffinity>
5.1186552048

> <CNN_VS>
2.8920567036

> <CNNaffinity_variance>
0.2495566607

$$$$
[H]OC(=O)[C@@]([H])(N([H])C(=O)[C@]([H])(N([H])C(=O)N([H])[C@]([H])(C(=O)N([H])[C@]([H])(C(=O)N([H])[H])C([H])([H])c1nc([H])n([H])c1[H])C([H])([H])c1nc([H])n([C@@]([H])(O[H])C([H])([H])O[H])c1[H])C([H])([H])c1c([H])c([H])c([H])c([H])c1[H])C([H])([H])C([H])([H])C([H])([H])C([H])([H])N([H])[H]


 60 62  0  0  0  0  0  0  0  0999 V2000
  154.0772  139.0541  185.9824 N   0  0  0  0  0  0  0  0  0  0  0  0
  154.3625  139.3407  184.6384 C   0  0  0  0  0  0  0  0  0  0  0  0
  154.5744  138.3445  183.8712 O   0  0  0  0  0  0  0  0  0  0  0  0
  154.4296  140.6254  184.0878 N   0  0  0  0  0  0  0  0  0  0  0  0
  153.8822  139.8107  186.6460 H   0  0  0  0  0  0  0  0  0  0  0  0
  154.2827  141.4720  184.6734 H   0  0  0  0  0  0  0  0  0  0  0  0
  154.7123  140.7633  182.6453 C   0  0  0  0  0  0  0  0  0  0  0  0
  155.8323  141.6958  182.4811 C   0  0  0  0  0  0  0  0  0  0  0  0
  155.6549  142.9239  182.4231 O   0  0  0  0  0  0  0  0  0  0  0  0
  157.1415  141.1712  182.3944 N   0  0  0  0  0  0  0  0  0  0  0  0
  157.3203  140.1574  182.4459 H   0  0  0  0  0  0  0  0  0  0  0  0
  158.3454  142.0264  182.2303 C   0  0  0  0  0  0  0  0  0  0  0  0
  158.4616  142.2497  180.7843 C   0  0  0  0  0  0  0  0  0  0  0  0
  158.5303  141.2350  179.8255 N   0  0  0  0  0  0  0  0  0  0  0  0
  158.5101  143.4444  180.3175 O   0  0  0  0  0  0  0  0  0  0  0  0
  159.3715  140.6198  179.7915 H   0  0  0  0  0  0  0  0  0  0  0  0
  157.7648  141.0800  179.1478 H   0  0  0  0  0  0  0  0  0  0  0  0
  159.4771  141.1153  182.6796 C   0  0  0  0  0  0  0  0  0  0  0  0
  160.3890  141.7405  183.6235 C   0  0  0  0  0  0  0  0  0  0  0  0
  160.0898  142.9486  184.2980 C   0  0  0  0  0  0  0  0  0  0  0  0
  161.1243  143.2696  185.0607 N   0  0  0  0  0  0  0  0  0  0  0  0
  162.0786  142.3522  184.9294 C   0  0  0  0  0  0  0  0  0  0  0  0
  161.6069  141.4465  184.0587 N   0  0  0  0  0  0  0  0  0  0  0  0
  161.2189  144.1166  185.6939 H   0  0  0  0  0  0  0  0  0  0  0  0
  153.4090  141.2129  182.0540 C   0  0  0  0  0  0  0  0  0  0  0  0
  152.6063  140.2023  181.3864 C   0  0  0  0  0  0  0  0  0  0  0  0
  151.7006  139.3680  181.9901 C   0  0  0  0  0  0  0  0  0  0  0  0
  151.1715  138.5858  181.0528 N   0  0  0  0  0  0  0  0  0  0  0  0
  151.7277  138.9155  179.8815 C   0  0  0  0  0  0  0  0  0  0  0  0
  152.6087  139.9075  180.0849 N   0  0  0  0  0  0  0  0  0  0  0  0
  150.1593  137.5572  181.2817 C   0  0  0  0  0  0  0  0  0  0  0  0
  150.7646  136.3611  181.5917 O   0  0  0  0  0  0  0  0  0  0  0  0
  150.1645  135.6242  181.3334 H   0  0  0  0  0  0  0  0  0  0  0  0
  149.2252  138.0433  182.3412 C   0  0  0  0  0  0  0  0  0  0  0  0
  148.2198  138.7841  181.6989 O   0  0  0  0  0  0  0  0  0  0  0  0
  147.4908  138.9007  182.3383 H   0  0  0  0  0  0  0  0  0  0  0  0
  154.0405  137.6769  186.4991 C   0  0  0  0  0  0  0  0  0  0  0  0
  155.5982  135.8582  187.2223 N   0  0  0  0  0  0  0  0  0  0  0  0
  155.3977  137.2131  186.8199 C   0  0  0  0  0  0  0  0  0  0  0  0
  156.3678  138.0109  186.7262 O   0  0  0  0  0  0  0  0  0  0  0  0
  154.7882  135.2093  187.3061 H   0  0  0  0  0  0  0  0  0  0  0  0
  156.9738  135.4389  187.5055 C   0  0  0  0  0  0  0  0  0  0  0  0
  157.1101  133.9801  187.1206 C   0  0  0  0  0  0  0  0  0  0  0  0
  156.1493  133.3831  186.3222 O   0  0  0  0  0  0  0  0  0  0  0  0
  158.0846  133.3291  187.5259 O   0  0  0  0  0  0  0  0  0  0  0  0
  155.4600  132.7271  186.6899 H   0  0  0  0  0  0  0  0  0  0  0  0
  157.3310  135.6356  188.9354 C   0  0  0  0  0  0  0  0  0  0  0  0
  156.2298  135.2309  189.8393 C   0  0  0  0  0  0  0  0  0  0  0  0
  156.5957  134.5130  191.0943 C   0  0  0  0  0  0  0  0  0  0  0  0
  157.8283  132.4414  190.4921 N   0  0  0  0  0  0  0  0  0  0  0  0
  157.8615  133.7476  191.0381 C   0  0  0  0  0  0  0  0  0  0  0  0
  157.9355  132.4064  189.4507 H   0  0  0  0  0  0  0  0  0  0  0  0
  158.3963  131.7341  190.9825 H   0  0  0  0  0  0  0  0  0  0  0  0
  153.0190  137.5511  187.5684 C   0  0  0  0  0  0  0  0  0  0  0  0
  153.4126  137.6481  188.9545 C   0  0  0  0  0  0  0  0  0  0  0  0
  152.7625  136.7599  189.8343 C   0  0  0  0  0  0  0  0  0  0  0  0
  153.0539  136.7233  191.1795 C   0  0  0  0  0  0  0  0  0  0  0  0
  154.0087  137.5669  191.7321 C   0  0  0  0  0  0  0  0  0  0  0  0
  154.6435  138.4375  190.8598 C   0  0  0  0  0  0  0  0  0  0  0  0
  154.3429  138.4635  189.5171 C   0  0  0  0  0  0  0  0  0  0  0  0
 50 51  1  0  0  0
 51 49  1  0  0  0
 49 48  1  0  0  0
 48 47  1  0  0  0
 47 42  1  0  0  0
 42 38  1  0  0  0
 38 39  1  0  0  0
 39 40  2  0  0  0
 39 37  1  0  0  0
 37 54  1  0  0  0
 54 55  1  0  0  0
 55 56  2  0  0  0
 56 57  1  0  0  0
 57 58  2  0  0  0
 58 59  1  0  0  0
 59 60  2  0  0  0
 37  1  1  0  0  0
  1  2  1  0  0  0
  2  3  2  0  0  0
  2  4  1  0  0  0
  4  7  1  0  0  0
  7 25  1  0  0  0
 25 26  1  0  0  0
 26 27  2  0  0  0
 27 28  1  0  0  0
 28 29  1  0  0  0
 29 30  2  0  0  0
 28 31  1  0  0  0
 31 32  1  0  0  0
 31 34  1  0  0  0
 34 35  1  0  0  0
  7  8  1  0  0  0
  8  9  2  0  0  0
  8 10  1  0  0  0
 10 12  1  0  0  0
 12 18  1  0  0  0
 18 19  1  0  0  0
 19 20  2  0  0  0
 20 21  1  0  0  0
 21 22  1  0  0  0
 22 23  2  0  0  0
 12 13  1  0  0  0
 13 14  1  0  0  0
 13 15  2  0  0  0
 42 43  1  0  0  0
 43 44  1  0  0  0
 43 45  2  0  0  0
 60 55  1  0  0  0
 30 26  1  0  0  0
 23 19  1  0  0  0
 50 52  1  0  0  0
 50 53  1  0  0  0
 38 41  1  0  0  0
  1  5  1  0  0  0
  4  6  1  0  0  0
 32 33  1  0  0  0
 35 36  1  0  0  0
 10 11  1  0  0  0
 21 24  1  0  0  0
 14 16  1  0  0  0
 14 17  1  0  0  0
 44 46  1  0  0  0
M  END
> <minimizedAffinity>
-7.54421

> <CNNscore>
0.3556932807

> <CNNaffinity>
6.8318662643

> <CNN_VS>
2.4300489426

> <CNNaffinity_variance>
0.2485886514

$$$$
[H]OC(=O)[C@@]([H])(N([H])C(=O)[C@]([H])(N([H])C(=O)N([H])[C@]([H])(C(=O)N([H])[C@]([H])(C(=O)N([H])[H])C([H])([H])c1nc([H])n([H])c1[H])C([H])([H])c1nc([H])n([C@@]([H])(O[H])C([H])([H])O[H])c1[H])C([H])([H])c1c([H])c([H])c([H])c([H])c1[H])C([H])([H])C([H])([H])C([H])([H])C([H])([H])N([H])[H]


 60 62  0  0  0  0  0  0  0  0999 V2000
  153.5254  138.9344  186.0986 N   0  0  0  0  0  0  0  0  0  0  0  0
  153.9971  139.1725  184.7984 C   0  0  0  0  0  0  0  0  0  0  0  0
  154.3519  138.1525  184.1204 O   0  0  0  0  0  0  0  0  0  0  0  0
  154.1037  140.4333  184.2009 N   0  0  0  0  0  0  0  0  0  0  0  0
  153.2102  139.7113  186.6885 H   0  0  0  0  0  0  0  0  0  0  0  0
  153.8447  141.2986  184.7163 H   0  0  0  0  0  0  0  0  0  0  0  0
  154.5921  140.5185  182.8102 C   0  0  0  0  0  0  0  0  0  0  0  0
  155.8087  141.3376  182.7972 C   0  0  0  0  0  0  0  0  0  0  0  0
  156.0737  142.1257  183.7200 O   0  0  0  0  0  0  0  0  0  0  0  0
  156.6961  141.2125  181.7047 N   0  0  0  0  0  0  0  0  0  0  0  0
  156.5060  140.5623  180.9278 H   0  0  0  0  0  0  0  0  0  0  0  0
  157.9560  141.9920  181.5939 C   0  0  0  0  0  0  0  0  0  0  0  0
  158.1911  142.1359  180.1523 C   0  0  0  0  0  0  0  0  0  0  0  0
  159.0905  143.0393  179.5790 N   0  0  0  0  0  0  0  0  0  0  0  0
  157.5472  141.4043  179.3171 O   0  0  0  0  0  0  0  0  0  0  0  0
  158.8985  144.0623  179.6433 H   0  0  0  0  0  0  0  0  0  0  0  0
  159.9434  142.7163  179.0919 H   0  0  0  0  0  0  0  0  0  0  0  0
  158.9972  141.0448  182.1696 C   0  0  0  0  0  0  0  0  0  0  0  0
  159.8325  141.6497  183.1942 C   0  0  0  0  0  0  0  0  0  0  0  0
  159.5396  142.9020  183.7859 C   0  0  0  0  0  0  0  0  0  0  0  0
  160.4968  143.1881  184.6559 N   0  0  0  0  0  0  0  0  0  0  0  0
  161.3947  142.2069  184.6718 C   0  0  0  0  0  0  0  0  0  0  0  0
  160.9678  141.2971  183.7824 N   0  0  0  0  0  0  0  0  0  0  0  0
  160.5742  144.0535  185.2663 H   0  0  0  0  0  0  0  0  0  0  0  0
  153.4310  141.0794  182.0437 C   0  0  0  0  0  0  0  0  0  0  0  0
  152.5835  140.1283  181.3447 C   0  0  0  0  0  0  0  0  0  0  0  0
  151.5461  139.4205  181.8957 C   0  0  0  0  0  0  0  0  0  0  0  0
  151.0168  138.6559  180.9442 N   0  0  0  0  0  0  0  0  0  0  0  0
  151.7015  138.8729  179.8155 C   0  0  0  0  0  0  0  0  0  0  0  0
  152.6635  139.7764  180.0599 N   0  0  0  0  0  0  0  0  0  0  0  0
  149.8845  137.7491  181.1197 C   0  0  0  0  0  0  0  0  0  0  0  0
  149.2998  137.4844  179.9027 O   0  0  0  0  0  0  0  0  0  0  0  0
  148.3535  137.2534  180.0477 H   0  0  0  0  0  0  0  0  0  0  0  0
  150.3669  136.5249  181.8267 C   0  0  0  0  0  0  0  0  0  0  0  0
  149.9201  136.6107  183.1553 O   0  0  0  0  0  0  0  0  0  0  0  0
  150.0210  135.7248  183.5540 H   0  0  0  0  0  0  0  0  0  0  0  0
  153.4567  137.5810  186.6717 C   0  0  0  0  0  0  0  0  0  0  0  0
  153.3157  135.5547  185.2116 N   0  0  0  0  0  0  0  0  0  0  0  0
  152.6806  136.6919  185.7958 C   0  0  0  0  0  0  0  0  0  0  0  0
  151.4641  136.9364  185.5793 O   0  0  0  0  0  0  0  0  0  0  0  0
  154.3243  135.3671  185.3890 H   0  0  0  0  0  0  0  0  0  0  0  0
  152.4911  134.6856  184.3673 C   0  0  0  0  0  0  0  0  0  0  0  0
  151.9483  133.5664  185.2320 C   0  0  0  0  0  0  0  0  0  0  0  0
  152.8194  132.6812  185.8441 O   0  0  0  0  0  0  0  0  0  0  0  0
  150.7232  133.4509  185.3849 O   0  0  0  0  0  0  0  0  0  0  0  0
  152.9472  131.7229  185.5185 H   0  0  0  0  0  0  0  0  0  0  0  0
  153.2606  134.1320  183.2217 C   0  0  0  0  0  0  0  0  0  0  0  0
  154.7151  134.3688  183.3689 C   0  0  0  0  0  0  0  0  0  0  0  0
  155.6066  133.1744  183.4243 C   0  0  0  0  0  0  0  0  0  0  0  0
  155.7267  133.6369  185.8625 N   0  0  0  0  0  0  0  0  0  0  0  0
  156.1653  132.8645  184.7596 C   0  0  0  0  0  0  0  0  0  0  0  0
  154.8491  133.2853  186.3136 H   0  0  0  0  0  0  0  0  0  0  0  0
  156.4542  133.9032  186.5431 H   0  0  0  0  0  0  0  0  0  0  0  0
  154.8091  137.1166  187.0691 C   0  0  0  0  0  0  0  0  0  0  0  0
  155.3225  137.4349  188.3809 C   0  0  0  0  0  0  0  0  0  0  0  0
  154.5278  138.3095  189.1484 C   0  0  0  0  0  0  0  0  0  0  0  0
  154.8802  138.6819  190.4263 C   0  0  0  0  0  0  0  0  0  0  0  0
  156.0434  138.2081  191.0189 C   0  0  0  0  0  0  0  0  0  0  0  0
  156.8194  137.3484  190.2571 C   0  0  0  0  0  0  0  0  0  0  0  0
  156.4553  136.9839  188.9809 C   0  0  0  0  0  0  0  0  0  0  0  0
 50 51  1  0  0  0
 51 49  1  0  0  0
 49 48  1  0  0  0
 48 47  1  0  0  0
 47 42  1  0  0  0
 42 38  1  0  0  0
 38 39  1  0  0  0
 39 40  2  0  0  0
 39 37  1  0  0  0
 37 54  1  0  0  0
 54 55  1  0  0  0
 55 56  2  0  0  0
 56 57  1  0  0  0
 57 58  2  0  0  0
 58 59  1  0  0  0
 59 60  2  0  0  0
 37  1  1  0  0  0
  1  2  1  0  0  0
  2  3  2  0  0  0
  2  4  1  0  0  0
  4  7  1  0  0  0
  7 25  1  0  0  0
 25 26  1  0  0  0
 26 27  2  0  0  0
 27 28  1  0  0  0
 28 29  1  0  0  0
 29 30  2  0  0  0
 28 31  1  0  0  0
 31 32  1  0  0  0
 31 34  1  0  0  0
 34 35  1  0  0  0
  7  8  1  0  0  0
  8  9  2  0  0  0
  8 10  1  0  0  0
 10 12  1  0  0  0
 12 18  1  0  0  0
 18 19  1  0  0  0
 19 20  2  0  0  0
 20 21  1  0  0  0
 21 22  1  0  0  0
 22 23  2  0  0  0
 12 13  1  0  0  0
 13 14  1  0  0  0
 13 15  2  0  0  0
 42 43  1  0  0  0
 43 44  1  0  0  0
 43 45  2  0  0  0
 60 55  1  0  0  0
 30 26  1  0  0  0
 23 19  1  0  0  0
 50 52  1  0  0  0
 50 53  1  0  0  0
 38 41  1  0  0  0
  1  5  1  0  0  0
  4  6  1  0  0  0
 32 33  1  0  0  0
 35 36  1  0  0  0
 10 11  1  0  0  0
 21 24  1  0  0  0
 14 16  1  0  0  0
 14 17  1  0  0  0
 44 46  1  0  0  0
M  END
> <minimizedAffinity>
-7.19511

> <CNNscore>
0.2464468330

> <CNNaffinity>
6.9955000877

> <CNN_VS>
1.7240188122

> <CNNaffinity_variance>
0.2109335363

$$$$
[H]OC(=O)[C@@]([H])(N([H])C(=O)[C@]([H])(N([H])C(=O)N([H])[C@]([H])(C(=O)N([H])[C@]([H])(C(=O)N([H])[H])C([H])([H])c1nc([H])n([H])c1[H])C([H])([H])c1nc([H])n([C@@]([H])(O[H])C([H])([H])O[H])c1[H])C([H])([H])c1c([H])c([H])c([H])c([H])c1[H])C([H])([H])C([H])([H])C([H])([H])C([H])([H])N([H])[H]


 60 62  0  0  0  0  0  0  0  0999 V2000
  153.5424  138.9776  186.0906 N   0  0  0  0  0  0  0  0  0  0  0  0
  154.1411  139.1770  184.8370 C   0  0  0  0  0  0  0  0  0  0  0  0
  154.9031  138.2480  184.4102 O   0  0  0  0  0  0  0  0  0  0  0  0
  153.9629  140.3081  184.0326 N   0  0  0  0  0  0  0  0  0  0  0  0
  152.9070  139.6804  186.4818 H   0  0  0  0  0  0  0  0  0  0  0  0
  153.3663  141.1017  184.3417 H   0  0  0  0  0  0  0  0  0  0  0  0
  154.6397  140.3578  182.7214 C   0  0  0  0  0  0  0  0  0  0  0  0
  155.8232  141.2152  182.8446 C   0  0  0  0  0  0  0  0  0  0  0  0
  155.9012  142.0974  183.7156 O   0  0  0  0  0  0  0  0  0  0  0  0
  156.8972  141.0179  181.9477 N   0  0  0  0  0  0  0  0  0  0  0  0
  156.8638  140.2897  181.2190 H   0  0  0  0  0  0  0  0  0  0  0  0
  158.1419  141.8282  181.9870 C   0  0  0  0  0  0  0  0  0  0  0  0
  158.4947  142.0555  180.5806 C   0  0  0  0  0  0  0  0  0  0  0  0
  157.8297  141.4857  179.4913 N   0  0  0  0  0  0  0  0  0  0  0  0
  159.4784  142.8224  180.2778 O   0  0  0  0  0  0  0  0  0  0  0  0
  157.8938  140.4568  179.3343 H   0  0  0  0  0  0  0  0  0  0  0  0
  157.2745  142.0618  178.8363 H   0  0  0  0  0  0  0  0  0  0  0  0
  159.1540  140.8726  182.5995 C   0  0  0  0  0  0  0  0  0  0  0  0
  159.8074  141.3981  183.7870 C   0  0  0  0  0  0  0  0  0  0  0  0
  159.1351  141.5779  185.0198 C   0  0  0  0  0  0  0  0  0  0  0  0
  159.9889  142.0951  185.8908 N   0  0  0  0  0  0  0  0  0  0  0  0
  161.1732  142.2650  185.3094 C   0  0  0  0  0  0  0  0  0  0  0  0
  161.0321  141.8372  184.0453 N   0  0  0  0  0  0  0  0  0  0  0  0
  159.8000  142.3491  186.9043 H   0  0  0  0  0  0  0  0  0  0  0  0
  153.5831  140.8516  181.7779 C   0  0  0  0  0  0  0  0  0  0  0  0
  152.5421  139.9091  181.4047 C   0  0  0  0  0  0  0  0  0  0  0  0
  151.5037  140.1583  180.5443 C   0  0  0  0  0  0  0  0  0  0  0  0
  150.7637  139.0558  180.4602 N   0  0  0  0  0  0  0  0  0  0  0  0
  151.3191  138.1280  181.2482 C   0  0  0  0  0  0  0  0  0  0  0  0
  152.4106  138.6505  181.8286 N   0  0  0  0  0  0  0  0  0  0  0  0
  149.5627  138.9033  179.6421 C   0  0  0  0  0  0  0  0  0  0  0  0
  149.8211  139.2935  178.3483 O   0  0  0  0  0  0  0  0  0  0  0  0
  148.9797  139.5905  177.9313 H   0  0  0  0  0  0  0  0  0  0  0  0
  149.0928  137.4898  179.7544 C   0  0  0  0  0  0  0  0  0  0  0  0
  148.0802  137.3126  178.7976 O   0  0  0  0  0  0  0  0  0  0  0  0
  147.9369  136.3514  178.7003 H   0  0  0  0  0  0  0  0  0  0  0  0
  153.7886  137.7692  186.8932 C   0  0  0  0  0  0  0  0  0  0  0  0
  152.3125  136.7866  185.1288 N   0  0  0  0  0  0  0  0  0  0  0  0
  153.1445  136.6022  186.2740 C   0  0  0  0  0  0  0  0  0  0  0  0
  153.3417  135.4540  186.7528 O   0  0  0  0  0  0  0  0  0  0  0  0
  152.1480  137.7411  184.7467 H   0  0  0  0  0  0  0  0  0  0  0  0
  151.7150  135.5879  184.5335 C   0  0  0  0  0  0  0  0  0  0  0  0
  152.4719  135.2669  183.2611 C   0  0  0  0  0  0  0  0  0  0  0  0
  151.8837  134.4779  182.2871 O   0  0  0  0  0  0  0  0  0  0  0  0
  153.6173  135.7143  183.1014 O   0  0  0  0  0  0  0  0  0  0  0  0
  152.1567  133.5081  182.1272 H   0  0  0  0  0  0  0  0  0  0  0  0
  150.2680  135.7732  184.2458 C   0  0  0  0  0  0  0  0  0  0  0  0
  149.6745  136.8481  185.0739 C   0  0  0  0  0  0  0  0  0  0  0  0
  148.6917  136.4486  186.1221 C   0  0  0  0  0  0  0  0  0  0  0  0
  148.0153  138.7710  186.6900 N   0  0  0  0  0  0  0  0  0  0  0  0
  147.6283  137.4397  186.4016 C   0  0  0  0  0  0  0  0  0  0  0  0
  148.1478  139.3746  185.8441 H   0  0  0  0  0  0  0  0  0  0  0  0
  147.4904  139.2389  187.4442 H   0  0  0  0  0  0  0  0  0  0  0  0
  155.2320  137.6456  187.2154 C   0  0  0  0  0  0  0  0  0  0  0  0
  155.6520  137.4910  188.5885 C   0  0  0  0  0  0  0  0  0  0  0  0
  155.1249  138.4325  189.4946 C   0  0  0  0  0  0  0  0  0  0  0  0
  155.4190  138.3933  190.8392 C   0  0  0  0  0  0  0  0  0  0  0  0
  156.2547  137.4166  191.3648 C   0  0  0  0  0  0  0  0  0  0  0  0
  156.7690  136.4944  190.4666 C   0  0  0  0  0  0  0  0  0  0  0  0
  156.4667  136.5448  189.1250 C   0  0  0  0  0  0  0  0  0  0  0  0
 50 51  1  0  0  0
 51 49  1  0  0  0
 49 48  1  0  0  0
 48 47  1  0  0  0
 47 42  1  0  0  0
 42 38  1  0  0  0
 38 39  1  0  0  0
 39 40  2  0  0  0
 39 37  1  0  0  0
 37 54  1  0  0  0
 54 55  1  0  0  0
 55 56  2  0  0  0
 56 57  1  0  0  0
 57 58  2  0  0  0
 58 59  1  0  0  0
 59 60  2  0  0  0
 37  1  1  0  0  0
  1  2  1  0  0  0
  2  3  2  0  0  0
  2  4  1  0  0  0
  4  7  1  0  0  0
  7 25  1  0  0  0
 25 26  1  0  0  0
 26 27  2  0  0  0
 27 28  1  0  0  0
 28 29  1  0  0  0
 29 30  2  0  0  0
 28 31  1  0  0  0
 31 32  1  0  0  0
 31 34  1  0  0  0
 34 35  1  0  0  0
  7  8  1  0  0  0
  8  9  2  0  0  0
  8 10  1  0  0  0
 10 12  1  0  0  0
 12 18  1  0  0  0
 18 19  1  0  0  0
 19 20  2  0  0  0
 20 21  1  0  0  0
 21 22  1  0  0  0
 22 23  2  0  0  0
 12 13  1  0  0  0
 13 14  1  0  0  0
 13 15  2  0  0  0
 42 43  1  0  0  0
 43 44  1  0  0  0
 43 45  2  0  0  0
 60 55  1  0  0  0
 30 26  1  0  0  0
 23 19  1  0  0  0
 50 52  1  0  0  0
 50 53  1  0  0  0
 38 41  1  0  0  0
  1  5  1  0  0  0
  4  6  1  0  0  0
 32 33  1  0  0  0
 35 36  1  0  0  0
 10 11  1  0  0  0
 21 24  1  0  0  0
 14 16  1  0  0  0
 14 17  1  0  0  0
 44 46  1  0  0  0
M  END
> <minimizedAffinity>
-7.40453

> <CNNscore>
0.2155116498

> <CNNaffinity>
6.7793474197

> <CNN_VS>
1.4610283375

> <CNNaffinity_variance>
0.1772465408

$$$$
[H]OC(=O)[C@@]([H])(N([H])C(=O)[C@]([H])(N([H])C(=O)N([H])[C@]([H])(C(=O)N([H])[C@]([H])(C(=O)N([H])[H])C([H])([H])c1nc([H])n([H])c1[H])C([H])([H])c1nc([H])n([C@@]([H])(O[H])C([H])([H])O[H])c1[H])C([H])([H])c1c([H])c([H])c([H])c([H])c1[H])C([H])([H])C([H])([H])C([H])([H])C([H])([H])N([H])[H]


 60 62  0  0  0  0  0  0  0  0999 V2000
  155.1845  137.7060  186.4456 N   0  0  0  0  0  0  0  0  0  0  0  0
  154.8930  138.6269  185.4274 C   0  0  0  0  0  0  0  0  0  0  0  0
  154.0441  139.5377  185.7025 O   0  0  0  0  0  0  0  0  0  0  0  0
  155.4609  138.6168  184.1485 N   0  0  0  0  0  0  0  0  0  0  0  0
  155.8701  136.9597  186.2919 H   0  0  0  0  0  0  0  0  0  0  0  0
  156.1445  137.8855  183.8673 H   0  0  0  0  0  0  0  0  0  0  0  0
  155.0733  139.6740  183.1936 C   0  0  0  0  0  0  0  0  0  0  0  0
  155.8257  140.8899  183.5200 C   0  0  0  0  0  0  0  0  0  0  0  0
  155.2535  141.9670  183.7551 O   0  0  0  0  0  0  0  0  0  0  0  0
  157.2360  140.8188  183.5711 N   0  0  0  0  0  0  0  0  0  0  0  0
  157.7381  139.9376  183.3870 H   0  0  0  0  0  0  0  0  0  0  0  0
  158.0928  141.9887  183.8943 C   0  0  0  0  0  0  0  0  0  0  0  0
  158.2044  142.7396  182.6383 C   0  0  0  0  0  0  0  0  0  0  0  0
  157.3854  143.8133  182.2776 N   0  0  0  0  0  0  0  0  0  0  0  0
  159.1008  142.4245  181.7753 O   0  0  0  0  0  0  0  0  0  0  0  0
  156.3763  143.6422  182.0780 H   0  0  0  0  0  0  0  0  0  0  0  0
  157.7576  144.7752  182.2040 H   0  0  0  0  0  0  0  0  0  0  0  0
  159.4380  141.3525  184.2080 C   0  0  0  0  0  0  0  0  0  0  0  0
  160.1688  142.0271  185.2683 C   0  0  0  0  0  0  0  0  0  0  0  0
  159.6036  142.3061  186.5359 C   0  0  0  0  0  0  0  0  0  0  0  0
  160.5051  142.9478  187.2642 N   0  0  0  0  0  0  0  0  0  0  0  0
  161.6207  143.1065  186.5573 C   0  0  0  0  0  0  0  0  0  0  0  0
  161.3872  142.5429  185.3620 N   0  0  0  0  0  0  0  0  0  0  0  0
  160.3966  143.2982  188.2607 H   0  0  0  0  0  0  0  0  0  0  0  0
  153.5843  139.7795  183.3425 C   0  0  0  0  0  0  0  0  0  0  0  0
  152.7928  139.6734  182.1285 C   0  0  0  0  0  0  0  0  0  0  0  0
  151.5397  139.1246  182.0320 C   0  0  0  0  0  0  0  0  0  0  0  0
  151.1489  139.2089  180.7630 N   0  0  0  0  0  0  0  0  0  0  0  0
  152.1303  139.7974  180.0698 C   0  0  0  0  0  0  0  0  0  0  0  0
  153.1400  140.0830  180.9068 N   0  0  0  0  0  0  0  0  0  0  0  0
  149.8680  138.7398  180.2393 C   0  0  0  0  0  0  0  0  0  0  0  0
  149.7949  138.9816  178.8868 O   0  0  0  0  0  0  0  0  0  0  0  0
  148.8482  139.0688  178.6297 H   0  0  0  0  0  0  0  0  0  0  0  0
  149.7139  137.2972  180.5948 C   0  0  0  0  0  0  0  0  0  0  0  0
  148.3429  136.9991  180.5315 O   0  0  0  0  0  0  0  0  0  0  0  0
  148.2566  136.0263  180.5266 H   0  0  0  0  0  0  0  0  0  0  0  0
  154.5351  137.7648  187.7646 C   0  0  0  0  0  0  0  0  0  0  0  0
  152.8378  136.5125  189.1095 N   0  0  0  0  0  0  0  0  0  0  0  0
  153.7235  136.5606  187.9909 C   0  0  0  0  0  0  0  0  0  0  0  0
  153.8102  135.5910  187.1917 O   0  0  0  0  0  0  0  0  0  0  0  0
  152.7810  137.3155  189.7698 H   0  0  0  0  0  0  0  0  0  0  0  0
  152.0317  135.2997  189.2754 C   0  0  0  0  0  0  0  0  0  0  0  0
  150.5821  135.6597  189.0228 C   0  0  0  0  0  0  0  0  0  0  0  0
  150.1667  136.0014  187.7470 O   0  0  0  0  0  0  0  0  0  0  0  0
  149.7755  135.6464  189.9647 O   0  0  0  0  0  0  0  0  0  0  0  0
  149.9546  136.9621  187.4774 H   0  0  0  0  0  0  0  0  0  0  0  0
  152.1926  134.7071  190.6296 C   0  0  0  0  0  0  0  0  0  0  0  0
  153.1012  135.5112  191.4789 C   0  0  0  0  0  0  0  0  0  0  0  0
  152.6478  135.8327  192.8628 C   0  0  0  0  0  0  0  0  0  0  0  0
  150.6101  137.1887  192.4358 N   0  0  0  0  0  0  0  0  0  0  0  0
  151.9043  137.1049  193.0046 C   0  0  0  0  0  0  0  0  0  0  0  0
  149.8419  136.8441  193.0590 H   0  0  0  0  0  0  0  0  0  0  0  0
  150.3824  138.0772  191.9645 H   0  0  0  0  0  0  0  0  0  0  0  0
  155.5241  138.1135  188.8148 C   0  0  0  0  0  0  0  0  0  0  0  0
  156.0685  137.0788  189.6626 C   0  0  0  0  0  0  0  0  0  0  0  0
  156.0579  137.3571  191.0439 C   0  0  0  0  0  0  0  0  0  0  0  0
  156.5229  136.4532  191.9726 C   0  0  0  0  0  0  0  0  0  0  0  0
  157.0267  135.2183  191.5854 C   0  0  0  0  0  0  0  0  0  0  0  0
  157.0335  134.9526  190.2248 C   0  0  0  0  0  0  0  0  0  0  0  0
  156.5654  135.8649  189.3070 C   0  0  0  0  0  0  0  0  0  0  0  0
 50 51  1  0  0  0
 51 49  1  0  0  0
 49 48  1  0  0  0
 48 47  1  0  0  0
 47 42  1  0  0  0
 42 38  1  0  0  0
 38 39  1  0  0  0
 39 40  2  0  0  0
 39 37  1  0  0  0
 37 54  1  0  0  0
 54 55  1  0  0  0
 55 56  2  0  0  0
 56 57  1  0  0  0
 57 58  2  0  0  0
 58 59  1  0  0  0
 59 60  2  0  0  0
 37  1  1  0  0  0
  1  2  1  0  0  0
  2  3  2  0  0  0
  2  4  1  0  0  0
  4  7  1  0  0  0
  7 25  1  0  0  0
 25 26  1  0  0  0
 26 27  2  0  0  0
 27 28  1  0  0  0
 28 29  1  0  0  0
 29 30  2  0  0  0
 28 31  1  0  0  0
 31 32  1  0  0  0
 31 34  1  0  0  0
 34 35  1  0  0  0
  7  8  1  0  0  0
  8  9  2  0  0  0
  8 10  1  0  0  0
 10 12  1  0  0  0
 12 18  1  0  0  0
 18 19  1  0  0  0
 19 20  2  0  0  0
 20 21  1  0  0  0
 21 22  1  0  0  0
 22 23  2  0  0  0
 12 13  1  0  0  0
 13 14  1  0  0  0
 13 15  2  0  0  0
 42 43  1  0  0  0
 43 44  1  0  0  0
 43 45  2  0  0  0
 60 55  1  0  0  0
 30 26  1  0  0  0
 23 19  1  0  0  0
 50 52  1  0  0  0
 50 53  1  0  0  0
 38 41  1  0  0  0
  1  5  1  0  0  0
  4  6  1  0  0  0
 32 33  1  0  0  0
 35 36  1  0  0  0
 10 11  1  0  0  0
 21 24  1  0  0  0
 14 16  1  0  0  0
 14 17  1  0  0  0
 44 46  1  0  0  0
M  END
> <minimizedAffinity>
-7.28871

> <CNNscore>
0.2041344941

> <CNNaffinity>
6.6948165894

> <CNN_VS>
1.3666429520

> <CNNaffinity_variance>
0.1241196766

$$$$
[H]OC(=O)[C@@]([H])(N([H])C(=O)[C@]([H])(N([H])C(=O)N([H])[C@]([H])(C(=O)N([H])[C@]([H])(C(=O)N([H])[H])C([H])([H])c1nc([H])n([H])c1[H])C([H])([H])c1nc([H])n([C@@]([H])(O[H])C([H])([H])O[H])c1[H])C([H])([H])c1c([H])c([H])c([H])c([H])c1[H])C([H])([H])C([H])([H])C([H])([H])C([H])([H])N([H])[H]


 60 62  0  0  0  0  0  0  0  0999 V2000
  153.8072  138.8253  186.0323 N   0  0  0  0  0  0  0  0  0  0  0  0
  154.2945  139.1608  184.7596 C   0  0  0  0  0  0  0  0  0  0  0  0
  155.1109  138.3414  184.2228 O   0  0  0  0  0  0  0  0  0  0  0  0
  153.9521  140.3154  184.0471 N   0  0  0  0  0  0  0  0  0  0  0  0
  153.1359  139.4350  186.5101 H   0  0  0  0  0  0  0  0  0  0  0  0
  153.3048  141.0244  184.4469 H   0  0  0  0  0  0  0  0  0  0  0  0
  154.5273  140.5137  182.7019 C   0  0  0  0  0  0  0  0  0  0  0  0
  155.6946  141.3933  182.8237 C   0  0  0  0  0  0  0  0  0  0  0  0
  155.8541  142.1319  183.8096 O   0  0  0  0  0  0  0  0  0  0  0  0
  156.6573  141.3860  181.7895 N   0  0  0  0  0  0  0  0  0  0  0  0
  156.5552  140.7792  180.9625 H   0  0  0  0  0  0  0  0  0  0  0  0
  157.8764  142.2349  181.8144 C   0  0  0  0  0  0  0  0  0  0  0  0
  158.2356  142.4297  180.4047 C   0  0  0  0  0  0  0  0  0  0  0  0
  157.8934  141.5565  179.3683 N   0  0  0  0  0  0  0  0  0  0  0  0
  158.9145  143.4589  180.0479 O   0  0  0  0  0  0  0  0  0  0  0  0
  158.3203  140.6056  179.3390 H   0  0  0  0  0  0  0  0  0  0  0  0
  157.2254  141.8320  178.6288 H   0  0  0  0  0  0  0  0  0  0  0  0
  158.9113  141.3300  182.4649 C   0  0  0  0  0  0  0  0  0  0  0  0
  159.8111  142.0287  183.3680 C   0  0  0  0  0  0  0  0  0  0  0  0
  160.9867  141.4392  183.8920 C   0  0  0  0  0  0  0  0  0  0  0  0
  161.5704  142.3139  184.6977 N   0  0  0  0  0  0  0  0  0  0  0  0
  160.8548  143.4346  184.7348 C   0  0  0  0  0  0  0  0  0  0  0  0
  159.8036  143.2320  183.9257 N   0  0  0  0  0  0  0  0  0  0  0  0
  162.4694  142.1827  185.2471 H   0  0  0  0  0  0  0  0  0  0  0  0
  153.3909  141.0617  181.8904 C   0  0  0  0  0  0  0  0  0  0  0  0
  152.4996  140.0957  181.2708 C   0  0  0  0  0  0  0  0  0  0  0  0
  151.6546  139.2423  181.9330 C   0  0  0  0  0  0  0  0  0  0  0  0
  151.0081  138.5151  181.0256 N   0  0  0  0  0  0  0  0  0  0  0  0
  151.4321  138.8976  179.8156 C   0  0  0  0  0  0  0  0  0  0  0  0
  152.3477  139.8676  179.9647 N   0  0  0  0  0  0  0  0  0  0  0  0
  150.0111  137.4879  181.3186 C   0  0  0  0  0  0  0  0  0  0  0  0
  149.5131  136.9667  180.1467 O   0  0  0  0  0  0  0  0  0  0  0  0
  148.6048  136.6236  180.3116 H   0  0  0  0  0  0  0  0  0  0  0  0
  150.6378  136.4631  182.2064 C   0  0  0  0  0  0  0  0  0  0  0  0
  150.9613  135.3592  181.4007 O   0  0  0  0  0  0  0  0  0  0  0  0
  151.5741  134.7957  181.9116 H   0  0  0  0  0  0  0  0  0  0  0  0
  154.2246  137.6008  186.7334 C   0  0  0  0  0  0  0  0  0  0  0  0
  154.7172  136.7900  189.0479 N   0  0  0  0  0  0  0  0  0  0  0  0
  154.2247  137.8168  188.1871 C   0  0  0  0  0  0  0  0  0  0  0  0
  153.8014  138.9066  188.6556 O   0  0  0  0  0  0  0  0  0  0  0  0
  155.0556  135.8889  188.6511 H   0  0  0  0  0  0  0  0  0  0  0  0
  154.7200  137.0654  190.4875 C   0  0  0  0  0  0  0  0  0  0  0  0
  156.1608  137.1614  190.9457 C   0  0  0  0  0  0  0  0  0  0  0  0
  156.6723  136.2181  191.8206 O   0  0  0  0  0  0  0  0  0  0  0  0
  156.8734  138.0883  190.5325 O   0  0  0  0  0  0  0  0  0  0  0  0
  156.8465  136.4199  192.8053 H   0  0  0  0  0  0  0  0  0  0  0  0
  153.9985  136.0160  191.2550 C   0  0  0  0  0  0  0  0  0  0  0  0
  152.5951  136.4011  191.5302 C   0  0  0  0  0  0  0  0  0  0  0  0
  152.3162  137.1306  192.8008 C   0  0  0  0  0  0  0  0  0  0  0  0
  150.0999  136.0782  193.1929 N   0  0  0  0  0  0  0  0  0  0  0  0
  151.3584  136.4666  193.7133 C   0  0  0  0  0  0  0  0  0  0  0  0
  150.0931  135.1335  192.7406 H   0  0  0  0  0  0  0  0  0  0  0  0
  149.2890  136.2388  193.8094 H   0  0  0  0  0  0  0  0  0  0  0  0
  153.4642  136.4299  186.2298 C   0  0  0  0  0  0  0  0  0  0  0  0
  154.1645  135.3303  185.6086 C   0  0  0  0  0  0  0  0  0  0  0  0
  153.9550  135.1819  184.2231 C   0  0  0  0  0  0  0  0  0  0  0  0
  154.5762  134.1925  183.4942 C   0  0  0  0  0  0  0  0  0  0  0  0
  155.4429  133.2906  184.0978 C   0  0  0  0  0  0  0  0  0  0  0  0
  155.6433  133.4436  185.4609 C   0  0  0  0  0  0  0  0  0  0  0  0
  155.0163  134.4372  186.1775 C   0  0  0  0  0  0  0  0  0  0  0  0
 50 51  1  0  0  0
 51 49  1  0  0  0
 49 48  1  0  0  0
 48 47  1  0  0  0
 47 42  1  0  0  0
 42 38  1  0  0  0
 38 39  1  0  0  0
 39 40  2  0  0  0
 39 37  1  0  0  0
 37 54  1  0  0  0
 54 55  1  0  0  0
 55 56  2  0  0  0
 56 57  1  0  0  0
 57 58  2  0  0  0
 58 59  1  0  0  0
 59 60  2  0  0  0
 37  1  1  0  0  0
  1  2  1  0  0  0
  2  3  2  0  0  0
  2  4  1  0  0  0
  4  7  1  0  0  0
  7 25  1  0  0  0
 25 26  1  0  0  0
 26 27  2  0  0  0
 27 28  1  0  0  0
 28 29  1  0  0  0
 29 30  2  0  0  0
 28 31  1  0  0  0
 31 32  1  0  0  0
 31 34  1  0  0  0
 34 35  1  0  0  0
  7  8  1  0  0  0
  8  9  2  0  0  0
  8 10  1  0  0  0
 10 12  1  0  0  0
 12 18  1  0  0  0
 18 19  1  0  0  0
 19 20  2  0  0  0
 20 21  1  0  0  0
 21 22  1  0  0  0
 22 23  2  0  0  0
 12 13  1  0  0  0
 13 14  1  0  0  0
 13 15  2  0  0  0
 42 43  1  0  0  0
 43 44  1  0  0  0
 43 45  2  0  0  0
 60 55  1  0  0  0
 30 26  1  0  0  0
 23 19  1  0  0  0
 50 52  1  0  0  0
 50 53  1  0  0  0
 38 41  1  0  0  0
  1  5  1  0  0  0
  4  6  1  0  0  0
 32 33  1  0  0  0
 35 36  1  0  0  0
 10 11  1  0  0  0
 21 24  1  0  0  0
 14 16  1  0  0  0
 14 17  1  0  0  0
 44 46  1  0  0  0
M  END
> <minimizedAffinity>
-7.51115

> <CNNscore>
0.1633600891

> <CNNaffinity>
6.5929441452

> <CNN_VS>
1.0770239830

> <CNNaffinity_variance>
0.1979063451

$$$$
[H]OC(=O)[C@@]([H])(N([H])C(=O)[C@]([H])(N([H])C(=O)N([H])[C@]([H])(C(=O)N([H])[C@]([H])(C(=O)N([H])[H])C([H])([H])c1nc([H])n([H])c1[H])C([H])([H])c1nc([H])n([C@@]([H])(O[H])C([H])([H])O[H])c1[H])C([H])([H])c1c([H])c([H])c([H])c([H])c1[H])C([H])([H])C([H])([H])C([H])([H])C([H])([H])N([H])[H]


 60 62  0  0  0  0  0  0  0  0999 V2000
  154.6138  139.2393  184.3915 N   0  0  0  0  0  0  0  0  0  0  0  0
  153.9951  138.5151  185.4224 C   0  0  0  0  0  0  0  0  0  0  0  0
  152.7283  138.3872  185.3542 O   0  0  0  0  0  0  0  0  0  0  0  0
  154.6614  137.9308  186.5054 N   0  0  0  0  0  0  0  0  0  0  0  0
  155.6312  139.3639  184.3809 H   0  0  0  0  0  0  0  0  0  0  0  0
  155.6912  138.0207  186.6178 H   0  0  0  0  0  0  0  0  0  0  0  0
  153.8721  137.1729  187.4965 C   0  0  0  0  0  0  0  0  0  0  0  0
  154.1725  137.7042  188.8301 C   0  0  0  0  0  0  0  0  0  0  0  0
  154.2672  138.9249  189.0393 O   0  0  0  0  0  0  0  0  0  0  0  0
  154.3499  136.7938  189.8962 N   0  0  0  0  0  0  0  0  0  0  0  0
  154.2709  135.7759  189.7543 H   0  0  0  0  0  0  0  0  0  0  0  0
  154.6542  137.2253  191.2849 C   0  0  0  0  0  0  0  0  0  0  0  0
  156.1194  137.2644  191.3608 C   0  0  0  0  0  0  0  0  0  0  0  0
  156.9380  138.0470  190.5417 N   0  0  0  0  0  0  0  0  0  0  0  0
  156.7406  136.5443  192.2229 O   0  0  0  0  0  0  0  0  0  0  0  0
  157.0031  137.8274  189.5244 H   0  0  0  0  0  0  0  0  0  0  0  0
  157.4816  138.8403  190.9217 H   0  0  0  0  0  0  0  0  0  0  0  0
  154.1493  136.0617  192.1240 C   0  0  0  0  0  0  0  0  0  0  0  0
  152.7149  136.0914  192.3585 C   0  0  0  0  0  0  0  0  0  0  0  0
  152.0659  135.2252  193.2709 C   0  0  0  0  0  0  0  0  0  0  0  0
  150.7661  135.4789  193.2370 N   0  0  0  0  0  0  0  0  0  0  0  0
  150.5231  136.4525  192.3637 C   0  0  0  0  0  0  0  0  0  0  0  0
  151.7142  136.7994  191.8520 N   0  0  0  0  0  0  0  0  0  0  0  0
  150.0026  135.0041  193.8017 H   0  0  0  0  0  0  0  0  0  0  0  0
  154.2670  135.7436  187.2696 C   0  0  0  0  0  0  0  0  0  0  0  0
  155.5878  135.3459  187.7264 C   0  0  0  0  0  0  0  0  0  0  0  0
  155.9353  134.1054  188.1968 C   0  0  0  0  0  0  0  0  0  0  0  0
  157.2262  134.1325  188.5179 N   0  0  0  0  0  0  0  0  0  0  0  0
  157.6879  135.3609  188.2574 C   0  0  0  0  0  0  0  0  0  0  0  0
  156.6833  136.1068  187.7717 N   0  0  0  0  0  0  0  0  0  0  0  0
  157.9884  133.0073  189.0546 C   0  0  0  0  0  0  0  0  0  0  0  0
  157.7043  131.8640  188.3437 O   0  0  0  0  0  0  0  0  0  0  0  0
  157.8564  131.0826  188.9236 H   0  0  0  0  0  0  0  0  0  0  0  0
  159.4371  133.3711  189.0418 C   0  0  0  0  0  0  0  0  0  0  0  0
  160.0219  132.7046  187.9527 O   0  0  0  0  0  0  0  0  0  0  0  0
  160.8944  133.1143  187.7953 H   0  0  0  0  0  0  0  0  0  0  0  0
  153.8483  139.8437  183.2899 C   0  0  0  0  0  0  0  0  0  0  0  0
  156.0120  140.7214  182.3926 N   0  0  0  0  0  0  0  0  0  0  0  0
  154.6233  140.9200  182.6568 C   0  0  0  0  0  0  0  0  0  0  0  0
  154.0529  141.9990  182.3453 O   0  0  0  0  0  0  0  0  0  0  0  0
  156.4763  139.8295  182.6631 H   0  0  0  0  0  0  0  0  0  0  0  0
  156.7334  141.8154  181.7361 C   0  0  0  0  0  0  0  0  0  0  0  0
  157.8928  141.2189  180.9649 C   0  0  0  0  0  0  0  0  0  0  0  0
  158.4312  140.0045  181.3555 O   0  0  0  0  0  0  0  0  0  0  0  0
  158.3531  141.8257  179.9862 O   0  0  0  0  0  0  0  0  0  0  0  0
  159.3310  139.9301  181.8302 H   0  0  0  0  0  0  0  0  0  0  0  0
  157.2222  142.8236  182.7136 C   0  0  0  0  0  0  0  0  0  0  0  0
  158.4999  142.4111  183.3387 C   0  0  0  0  0  0  0  0  0  0  0  0
  158.4602  141.9675  184.7620 C   0  0  0  0  0  0  0  0  0  0  0  0
  157.7655  139.6071  184.4164 N   0  0  0  0  0  0  0  0  0  0  0  0
  158.6888  140.5212  184.9796 C   0  0  0  0  0  0  0  0  0  0  0  0
  157.9744  139.3383  183.4258 H   0  0  0  0  0  0  0  0  0  0  0  0
  157.5092  138.8035  185.0095 H   0  0  0  0  0  0  0  0  0  0  0  0
  153.3083  138.7906  182.3943 C   0  0  0  0  0  0  0  0  0  0  0  0
  152.1048  139.0389  181.6357 C   0  0  0  0  0  0  0  0  0  0  0  0
  152.2995  139.5584  180.3404 C   0  0  0  0  0  0  0  0  0  0  0  0
  151.2451  139.8215  179.4949 C   0  0  0  0  0  0  0  0  0  0  0  0
  149.9335  139.5848  179.8852 C   0  0  0  0  0  0  0  0  0  0  0  0
  149.7507  139.0739  181.1608 C   0  0  0  0  0  0  0  0  0  0  0  0
  150.8136  138.8150  181.9957 C   0  0  0  0  0  0  0  0  0  0  0  0
 50 51  1  0  0  0
 51 49  1  0  0  0
 49 48  1  0  0  0
 48 47  1  0  0  0
 47 42  1  0  0  0
 42 38  1  0  0  0
 38 39  1  0  0  0
 39 40  2  0  0  0
 39 37  1  0  0  0
 37 54  1  0  0  0
 54 55  1  0  0  0
 55 56  2  0  0  0
 56 57  1  0  0  0
 57 58  2  0  0  0
 58 59  1  0  0  0
 59 60  2  0  0  0
 37  1  1  0  0  0
  1  2  1  0  0  0
  2  3  2  0  0  0
  2  4  1  0  0  0
  4  7  1  0  0  0
  7 25  1  0  0  0
 25 26  1  0  0  0
 26 27  2  0  0  0
 27 28  1  0  0  0
 28 29  1  0  0  0
 29 30  2  0  0  0
 28 31  1  0  0  0
 31 32  1  0  0  0
 31 34  1  0  0  0
 34 35  1  0  0  0
  7  8  1  0  0  0
  8  9  2  0  0  0
  8 10  1  0  0  0
 10 12  1  0  0  0
 12 18  1  0  0  0
 18 19  1  0  0  0
 19 20  2  0  0  0
 20 21  1  0  0  0
 21 22  1  0  0  0
 22 23  2  0  0  0
 12 13  1  0  0  0
 13 14  1  0  0  0
 13 15  2  0  0  0
 42 43  1  0  0  0
 43 44  1  0  0  0
 43 45  2  0  0  0
 60 55  1  0  0  0
 30 26  1  0  0  0
 23 19  1  0  0  0
 50 52  1  0  0  0
 50 53  1  0  0  0
 38 41  1  0  0  0
  1  5  1  0  0  0
  4  6  1  0  0  0
 32 33  1  0  0  0
 35 36  1  0  0  0
 10 11  1  0  0  0
 21 24  1  0  0  0
 14 16  1  0  0  0
 14 17  1  0  0  0
 44 46  1  0  0  0
M  END
> <minimizedAffinity>
-7.15647

> <CNNscore>
0.1412283033

> <CNNaffinity>
6.1205115318

> <CNN_VS>
0.8643894792

> <CNNaffinity_variance>
0.5333948731

$$$$
[H]OC(=O)[C@@]([H])(N([H])C(=O)[C@]([H])(N([H])C(=O)N([H])[C@]([H])(C(=O)N([H])[C@]([H])(C(=O)N([H])[H])C([H])([H])c1nc([H])n([H])c1[H])C([H])([H])c1nc([H])n([C@@]([H])(O[H])C([H])([H])O[H])c1[H])C([H])([H])c1c([H])c([H])c([H])c([H])c1[H])C([H])([H])C([H])([H])C([H])([H])C([H])([H])N([H])[H]


 60 62  0  0  0  0  0  0  0  0999 V2000
  153.8705  139.1154  185.8967 N   0  0  0  0  0  0  0  0  0  0  0  0
  154.2986  139.3746  184.5854 C   0  0  0  0  0  0  0  0  0  0  0  0
  154.8079  138.3975  183.9438 O   0  0  0  0  0  0  0  0  0  0  0  0
  154.2068  140.6131  183.9405 N   0  0  0  0  0  0  0  0  0  0  0  0
  153.4383  139.8554  186.4591 H   0  0  0  0  0  0  0  0  0  0  0  0
  153.8163  141.4463  184.4249 H   0  0  0  0  0  0  0  0  0  0  0  0
  154.6752  140.7206  182.5445 C   0  0  0  0  0  0  0  0  0  0  0  0
  155.7887  141.6742  182.5030 C   0  0  0  0  0  0  0  0  0  0  0  0
  155.7459  142.7534  183.1166 O   0  0  0  0  0  0  0  0  0  0  0  0
  156.9355  141.3417  181.7474 N   0  0  0  0  0  0  0  0  0  0  0  0
  157.0023  140.4509  181.2331 H   0  0  0  0  0  0  0  0  0  0  0  0
  158.1191  142.2334  181.6405 C   0  0  0  0  0  0  0  0  0  0  0  0
  158.3659  142.3703  180.2002 C   0  0  0  0  0  0  0  0  0  0  0  0
  157.7688  141.5824  179.2121 N   0  0  0  0  0  0  0  0  0  0  0  0
  159.1823  143.2610  179.7670 O   0  0  0  0  0  0  0  0  0  0  0  0
  158.0099  140.5698  179.1506 H   0  0  0  0  0  0  0  0  0  0  0  0
  157.0921  141.9811  178.5396 H   0  0  0  0  0  0  0  0  0  0  0  0
  159.2334  141.3993  182.2531 C   0  0  0  0  0  0  0  0  0  0  0  0
  159.3950  141.6029  183.6835 C   0  0  0  0  0  0  0  0  0  0  0  0
  160.6372  141.9284  184.2793 C   0  0  0  0  0  0  0  0  0  0  0  0
  160.4621  142.0198  185.5892 N   0  0  0  0  0  0  0  0  0  0  0  0
  159.1892  141.7758  185.8885 C   0  0  0  0  0  0  0  0  0  0  0  0
  158.5734  141.5283  184.7221 N   0  0  0  0  0  0  0  0  0  0  0  0
  161.1951  142.2501  186.3221 H   0  0  0  0  0  0  0  0  0  0  0  0
  153.4531  141.1248  181.7741 C   0  0  0  0  0  0  0  0  0  0  0  0
  152.5494  140.0615  181.3693 C   0  0  0  0  0  0  0  0  0  0  0  0
  151.2805  140.2297  180.8770 C   0  0  0  0  0  0  0  0  0  0  0  0
  150.7728  139.0260  180.6246 N   0  0  0  0  0  0  0  0  0  0  0  0
  151.6973  138.1148  180.9486 C   0  0  0  0  0  0  0  0  0  0  0  0
  152.7882  138.7490  181.4060 N   0  0  0  0  0  0  0  0  0  0  0  0
  149.4402  138.7661  180.0845 C   0  0  0  0  0  0  0  0  0  0  0  0
  149.4868  138.7350  178.7097 O   0  0  0  0  0  0  0  0  0  0  0  0
  148.6018  138.9825  178.3555 H   0  0  0  0  0  0  0  0  0  0  0  0
  148.9247  137.5020  180.6908 C   0  0  0  0  0  0  0  0  0  0  0  0
  148.7906  136.5682  179.6505 O   0  0  0  0  0  0  0  0  0  0  0  0
  148.6866  135.6882  180.0611 H   0  0  0  0  0  0  0  0  0  0  0  0
  154.0143  137.7905  186.5203 C   0  0  0  0  0  0  0  0  0  0  0  0
  155.0915  137.3296  188.7304 N   0  0  0  0  0  0  0  0  0  0  0  0
  155.2114  137.7516  187.3720 C   0  0  0  0  0  0  0  0  0  0  0  0
  156.3288  138.0799  186.8924 O   0  0  0  0  0  0  0  0  0  0  0  0
  154.1615  137.0698  189.1200 H   0  0  0  0  0  0  0  0  0  0  0  0
  156.3192  137.2835  189.5297 C   0  0  0  0  0  0  0  0  0  0  0  0
  156.9066  135.8922  189.4105 C   0  0  0  0  0  0  0  0  0  0  0  0
  157.6529  135.5500  188.2955 O   0  0  0  0  0  0  0  0  0  0  0  0
  156.7131  135.0671  190.3157 O   0  0  0  0  0  0  0  0  0  0  0  0
  157.2930  134.9426  187.5592 H   0  0  0  0  0  0  0  0  0  0  0  0
  156.0667  137.6216  190.9554 C   0  0  0  0  0  0  0  0  0  0  0  0
  154.7343  138.2391  191.1479 C   0  0  0  0  0  0  0  0  0  0  0  0
  153.7156  137.4592  191.9083 C   0  0  0  0  0  0  0  0  0  0  0  0
  153.5710  135.2361  190.8081 N   0  0  0  0  0  0  0  0  0  0  0  0
  153.9382  135.9962  191.9451 C   0  0  0  0  0  0  0  0  0  0  0  0
  154.3118  135.1792  190.0697 H   0  0  0  0  0  0  0  0  0  0  0  0
  153.1186  134.3295  190.9998 H   0  0  0  0  0  0  0  0  0  0  0  0
  152.7349  137.3686  187.1430 C   0  0  0  0  0  0  0  0  0  0  0  0
  151.6163  136.9978  186.3082 C   0  0  0  0  0  0  0  0  0  0  0  0
  150.4148  136.7205  186.9903 C   0  0  0  0  0  0  0  0  0  0  0  0
  149.2605  136.3776  186.3226 C   0  0  0  0  0  0  0  0  0  0  0  0
  149.2299  136.2892  184.9370 C   0  0  0  0  0  0  0  0  0  0  0  0
  150.4160  136.5634  184.2738 C   0  0  0  0  0  0  0  0  0  0  0  0
  151.5627  136.9053  184.9534 C   0  0  0  0  0  0  0  0  0  0  0  0
 50 51  1  0  0  0
 51 49  1  0  0  0
 49 48  1  0  0  0
 48 47  1  0  0  0
 47 42  1  0  0  0
 42 38  1  0  0  0
 38 39  1  0  0  0
 39 40  2  0  0  0
 39 37  1  0  0  0
 37 54  1  0  0  0
 54 55  1  0  0  0
 55 56  2  0  0  0
 56 57  1  0  0  0
 57 58  2  0  0  0
 58 59  1  0  0  0
 59 60  2  0  0  0
 37  1  1  0  0  0
  1  2  1  0  0  0
  2  3  2  0  0  0
  2  4  1  0  0  0
  4  7  1  0  0  0
  7 25  1  0  0  0
 25 26  1  0  0  0
 26 27  2  0  0  0
 27 28  1  0  0  0
 28 29  1  0  0  0
 29 30  2  0  0  0
 28 31  1  0  0  0
 31 32  1  0  0  0
 31 34  1  0  0  0
 34 35  1  0  0  0
  7  8  1  0  0  0
  8  9  2  0  0  0
  8 10  1  0  0  0
 10 12  1  0  0  0
 12 18  1  0  0  0
 18 19  1  0  0  0
 19 20  2  0  0  0
 20 21  1  0  0  0
 21 22  1  0  0  0
 22 23  2  0  0  0
 12 13  1  0  0  0
 13 14  1  0  0  0
 13 15  2  0  0  0
 42 43  1  0  0  0
 43 44  1  0  0  0
 43 45  2  0  0  0
 60 55  1  0  0  0
 30 26  1  0  0  0
 23 19  1  0  0  0
 50 52  1  0  0  0
 50 53  1  0  0  0
 38 41  1  0  0  0
  1  5  1  0  0  0
  4  6  1  0  0  0
 32 33  1  0  0  0
 35 36  1  0  0  0
 10 11  1  0  0  0
 21 24  1  0  0  0
 14 16  1  0  0  0
 14 17  1  0  0  0
 44 46  1  0  0  0
M  END
> <minimizedAffinity>
-7.22164

> <CNNscore>
0.1397649944

> <CNNaffinity>
6.6746544838

> <CNN_VS>
0.9328830242

> <CNNaffinity_variance>
0.3428860903

$$$$
[H]OC(=O)[C@@]([H])(N([H])C(=O)[C@]([H])(N([H])C(=O)N([H])[C@]([H])(C(=O)N([H])[C@]([H])(C(=O)N([H])[H])C([H])([H])c1nc([H])n([H])c1[H])C([H])([H])c1nc([H])n([C@@]([H])(O[H])C([H])([H])O[H])c1[H])C([H])([H])c1c([H])c([H])c([H])c([H])c1[H])C([H])([H])C([H])([H])C([H])([H])C([H])([H])N([H])[H]


 60 62  0  0  0  0  0  0  0  0999 V2000
  154.7384  137.5476  186.0193 N   0  0  0  0  0  0  0  0  0  0  0  0
  154.6775  138.1759  184.7658 C   0  0  0  0  0  0  0  0  0  0  0  0
  154.0873  137.5388  183.8321 O   0  0  0  0  0  0  0  0  0  0  0  0
  155.2110  139.4357  184.4719 N   0  0  0  0  0  0  0  0  0  0  0  0
  155.1856  138.0148  186.8146 H   0  0  0  0  0  0  0  0  0  0  0  0
  155.7175  139.9888  185.1923 H   0  0  0  0  0  0  0  0  0  0  0  0
  155.0400  139.9763  183.1088 C   0  0  0  0  0  0  0  0  0  0  0  0
  156.0521  141.0157  182.8937 C   0  0  0  0  0  0  0  0  0  0  0  0
  155.7384  142.2050  182.7198 O   0  0  0  0  0  0  0  0  0  0  0  0
  157.4149  140.6422  182.8928 N   0  0  0  0  0  0  0  0  0  0  0  0
  157.7057  139.6645  183.0408 H   0  0  0  0  0  0  0  0  0  0  0  0
  158.5191  141.6148  182.6872 C   0  0  0  0  0  0  0  0  0  0  0  0
  158.8036  141.5716  181.2480 C   0  0  0  0  0  0  0  0  0  0  0  0
  158.4548  140.5173  180.3992 N   0  0  0  0  0  0  0  0  0  0  0  0
  159.4171  142.5466  180.6818 O   0  0  0  0  0  0  0  0  0  0  0  0
  158.9234  139.5928  180.5130 H   0  0  0  0  0  0  0  0  0  0  0  0
  157.7415  140.6331  179.6597 H   0  0  0  0  0  0  0  0  0  0  0  0
  159.6797  140.9797  183.4371 C   0  0  0  0  0  0  0  0  0  0  0  0
  160.0277  141.6722  184.6670 C   0  0  0  0  0  0  0  0  0  0  0  0
  161.2647  142.3349  184.8539 C   0  0  0  0  0  0  0  0  0  0  0  0
  161.2887  142.8393  186.0786 N   0  0  0  0  0  0  0  0  0  0  0  0
  160.1506  142.5503  186.7037 C   0  0  0  0  0  0  0  0  0  0  0  0
  159.4136  141.8479  185.8295 N   0  0  0  0  0  0  0  0  0  0  0  0
  162.0726  143.3944  186.5309 H   0  0  0  0  0  0  0  0  0  0  0  0
  153.6163  140.4478  183.0735 C   0  0  0  0  0  0  0  0  0  0  0  0
  152.7754  139.9214  182.0119 C   0  0  0  0  0  0  0  0  0  0  0  0
  151.5875  139.2576  182.1825 C   0  0  0  0  0  0  0  0  0  0  0  0
  151.1199  138.9325  180.9800 N   0  0  0  0  0  0  0  0  0  0  0  0
  151.9899  139.3793  180.0671 C   0  0  0  0  0  0  0  0  0  0  0  0
  153.0066  139.9864  180.6991 N   0  0  0  0  0  0  0  0  0  0  0  0
  149.8719  138.2176  180.7225 C   0  0  0  0  0  0  0  0  0  0  0  0
  150.0991  136.8607  180.7148 O   0  0  0  0  0  0  0  0  0  0  0  0
  149.4169  136.4268  180.1523 H   0  0  0  0  0  0  0  0  0  0  0  0
  148.8652  138.6464  181.7394 C   0  0  0  0  0  0  0  0  0  0  0  0
  148.1669  139.7373  181.1967 O   0  0  0  0  0  0  0  0  0  0  0  0
  147.3658  139.8691  181.7396 H   0  0  0  0  0  0  0  0  0  0  0  0
  154.1705  136.2107  186.2541 C   0  0  0  0  0  0  0  0  0  0  0  0
  156.1721  135.6669  187.6525 N   0  0  0  0  0  0  0  0  0  0  0  0
  155.2240  135.2704  186.6617 C   0  0  0  0  0  0  0  0  0  0  0  0
  155.2721  134.1242  186.1417 O   0  0  0  0  0  0  0  0  0  0  0  0
  156.1296  136.6203  188.0690 H   0  0  0  0  0  0  0  0  0  0  0  0
  157.1862  134.6832  188.0425 C   0  0  0  0  0  0  0  0  0  0  0  0
  156.9230  134.2800  189.4789 C   0  0  0  0  0  0  0  0  0  0  0  0
  156.9224  135.2394  190.4772 O   0  0  0  0  0  0  0  0  0  0  0  0
  156.7101  133.0890  189.7506 O   0  0  0  0  0  0  0  0  0  0  0  0
  157.6862  135.3358  191.1466 H   0  0  0  0  0  0  0  0  0  0  0  0
  158.5653  135.2197  187.8968 C   0  0  0  0  0  0  0  0  0  0  0  0
  159.5812  134.2787  188.4221 C   0  0  0  0  0  0  0  0  0  0  0  0
  159.8643  133.0520  187.6227 C   0  0  0  0  0  0  0  0  0  0  0  0
  158.5755  131.1164  188.4978 N   0  0  0  0  0  0  0  0  0  0  0  0
  159.8206  131.7806  188.3796 C   0  0  0  0  0  0  0  0  0  0  0  0
  158.3511  130.4754  187.7002 H   0  0  0  0  0  0  0  0  0  0  0  0
  158.3717  130.7030  189.4203 H   0  0  0  0  0  0  0  0  0  0  0  0
  152.9766  136.3007  187.1310 C   0  0  0  0  0  0  0  0  0  0  0  0
  151.6541  136.2197  186.5565 C   0  0  0  0  0  0  0  0  0  0  0  0
  151.5987  135.7788  185.2193 C   0  0  0  0  0  0  0  0  0  0  0  0
  150.4046  135.6302  184.5500 C   0  0  0  0  0  0  0  0  0  0  0  0
  149.1933  135.9108  185.1687 C   0  0  0  0  0  0  0  0  0  0  0  0
  149.2567  136.3440  186.4840 C   0  0  0  0  0  0  0  0  0  0  0  0
  150.4571  136.4879  187.1414 C   0  0  0  0  0  0  0  0  0  0  0  0
 50 51  1  0  0  0
 51 49  1  0  0  0
 49 48  1  0  0  0
 48 47  1  0  0  0
 47 42  1  0  0  0
 42 38  1  0  0  0
 38 39  1  0  0  0
 39 40  2  0  0  0
 39 37  1  0  0  0
 37 54  1  0  0  0
 54 55  1  0  0  0
 55 56  2  0  0  0
 56 57  1  0  0  0
 57 58  2  0  0  0
 58 59  1  0  0  0
 59 60  2  0  0  0
 37  1  1  0  0  0
  1  2  1  0  0  0
  2  3  2  0  0  0
  2  4  1  0  0  0
  4  7  1  0  0  0
  7 25  1  0  0  0
 25 26  1  0  0  0
 26 27  2  0  0  0
 27 28  1  0  0  0
 28 29  1  0  0  0
 29 30  2  0  0  0
 28 31  1  0  0  0
 31 32  1  0  0  0
 31 34  1  0  0  0
 34 35  1  0  0  0
  7  8  1  0  0  0
  8  9  2  0  0  0
  8 10  1  0  0  0
 10 12  1  0  0  0
 12 18  1  0  0  0
 18 19  1  0  0  0
 19 20  2  0  0  0
 20 21  1  0  0  0
 21 22  1  0  0  0
 22 23  2  0  0  0
 12 13  1  0  0  0
 13 14  1  0  0  0
 13 15  2  0  0  0
 42 43  1  0  0  0
 43 44  1  0  0  0
 43 45  2  0  0  0
 60 55  1  0  0  0
 30 26  1  0  0  0
 23 19  1  0  0  0
 50 52  1  0  0  0
 50 53  1  0  0  0
 38 41  1  0  0  0
  1  5  1  0  0  0
  4  6  1  0  0  0
 32 33  1  0  0  0
 35 36  1  0  0  0
 10 11  1  0  0  0
 21 24  1  0  0  0
 14 16  1  0  0  0
 14 17  1  0  0  0
 44 46  1  0  0  0
M  END
> <minimizedAffinity>
-6.54455

> <CNNscore>
0.1193592101

> <CNNaffinity>
6.6459007263

> <CNN_VS>
0.7932494879

> <CNNaffinity_variance>
0.1239650473

$$$$
[H]OC(=O)[C@@]([H])(N([H])C(=O)[C@]([H])(N([H])C(=O)N([H])[C@]([H])(C(=O)N([H])[C@]([H])(C(=O)N([H])[H])C([H])([H])c1nc([H])n([H])c1[H])C([H])([H])c1nc([H])n([C@@]([H])(O[H])C([H])([H])O[H])c1[H])C([H])([H])c1c([H])c([H])c([H])c([H])c1[H])C([H])([H])C([H])([H])C([H])([H])C([H])([H])N([H])[H]


 60 62  0  0  0  0  0  0  0  0999 V2000
  153.9175  139.1516  182.7579 N   0  0  0  0  0  0  0  0  0  0  0  0
  153.8751  138.9070  184.1393 C   0  0  0  0  0  0  0  0  0  0  0  0
  153.3829  139.8281  184.8708 O   0  0  0  0  0  0  0  0  0  0  0  0
  154.3281  137.7388  184.7624 N   0  0  0  0  0  0  0  0  0  0  0  0
  154.2871  138.4440  182.1150 H   0  0  0  0  0  0  0  0  0  0  0  0
  154.7542  136.9649  184.2139 H   0  0  0  0  0  0  0  0  0  0  0  0
  154.1882  137.6180  186.2271 C   0  0  0  0  0  0  0  0  0  0  0  0
  155.5229  137.4290  186.8048 C   0  0  0  0  0  0  0  0  0  0  0  0
  156.4409  138.2415  186.6044 O   0  0  0  0  0  0  0  0  0  0  0  0
  155.7552  136.2932  187.6127 N   0  0  0  0  0  0  0  0  0  0  0  0
  155.0112  135.6054  187.8020 H   0  0  0  0  0  0  0  0  0  0  0  0
  157.0677  136.0081  188.2478 C   0  0  0  0  0  0  0  0  0  0  0  0
  157.5304  134.7616  187.6264 C   0  0  0  0  0  0  0  0  0  0  0  0
  156.7182  133.8839  186.9028 N   0  0  0  0  0  0  0  0  0  0  0  0
  158.7597  134.4067  187.7290 O   0  0  0  0  0  0  0  0  0  0  0  0
  155.9712  133.3517  187.3991 H   0  0  0  0  0  0  0  0  0  0  0  0
  156.8409  133.7499  185.8849 H   0  0  0  0  0  0  0  0  0  0  0  0
  156.6947  135.7271  189.6951 C   0  0  0  0  0  0  0  0  0  0  0  0
  155.9688  136.8140  190.3315 C   0  0  0  0  0  0  0  0  0  0  0  0
  154.7893  136.6129  191.0881 C   0  0  0  0  0  0  0  0  0  0  0  0
  154.3557  137.7919  191.5089 N   0  0  0  0  0  0  0  0  0  0  0  0
  155.1728  138.7489  191.0778 C   0  0  0  0  0  0  0  0  0  0  0  0
  156.1322  138.1296  190.3728 N   0  0  0  0  0  0  0  0  0  0  0  0
  153.4959  137.9879  192.1003 H   0  0  0  0  0  0  0  0  0  0  0  0
  153.2379  136.4726  186.4150 C   0  0  0  0  0  0  0  0  0  0  0  0
  151.8620  136.6844  185.9986 C   0  0  0  0  0  0  0  0  0  0  0  0
  150.8661  137.2330  186.7654 C   0  0  0  0  0  0  0  0  0  0  0  0
  149.7518  137.2576  186.0387 N   0  0  0  0  0  0  0  0  0  0  0  0
  150.0333  136.7372  184.8386 C   0  0  0  0  0  0  0  0  0  0  0  0
  151.3282  136.3849  184.8127 N   0  0  0  0  0  0  0  0  0  0  0  0
  148.4597  137.7707  186.4882 C   0  0  0  0  0  0  0  0  0  0  0  0
  147.7169  138.1884  185.4080 O   0  0  0  0  0  0  0  0  0  0  0  0
  147.0852  138.8829  185.7055 H   0  0  0  0  0  0  0  0  0  0  0  0
  147.7879  136.7103  187.2978 C   0  0  0  0  0  0  0  0  0  0  0  0
  147.1591  137.3501  188.3784 O   0  0  0  0  0  0  0  0  0  0  0  0
  146.5320  136.7117  188.7696 H   0  0  0  0  0  0  0  0  0  0  0  0
  153.4391  140.4131  182.1705 C   0  0  0  0  0  0  0  0  0  0  0  0
  155.8495  141.0537  181.9774 N   0  0  0  0  0  0  0  0  0  0  0  0
  154.4950  141.4343  182.2189 C   0  0  0  0  0  0  0  0  0  0  0  0
  154.1927  142.6327  182.4616 O   0  0  0  0  0  0  0  0  0  0  0  0
  156.0900  140.0586  181.7874 H   0  0  0  0  0  0  0  0  0  0  0  0
  156.8607  142.1141  182.0112 C   0  0  0  0  0  0  0  0  0  0  0  0
  157.8336  141.8733  180.8753 C   0  0  0  0  0  0  0  0  0  0  0  0
  159.1572  142.2583  181.0054 O   0  0  0  0  0  0  0  0  0  0  0  0
  157.4352  141.3319  179.8332 O   0  0  0  0  0  0  0  0  0  0  0  0
  159.5417  143.0730  180.5268 H   0  0  0  0  0  0  0  0  0  0  0  0
  157.5793  142.1548  183.3123 C   0  0  0  0  0  0  0  0  0  0  0  0
  157.7897  140.7985  183.8685 C   0  0  0  0  0  0  0  0  0  0  0  0
  159.1857  140.2745  183.9001 C   0  0  0  0  0  0  0  0  0  0  0  0
  161.5186  141.1117  183.7271 N   0  0  0  0  0  0  0  0  0  0  0  0
  160.2225  141.2613  184.2776 C   0  0  0  0  0  0  0  0  0  0  0  0
  161.6439  141.5626  182.7899 H   0  0  0  0  0  0  0  0  0  0  0  0
  162.3042  141.2892  184.3710 H   0  0  0  0  0  0  0  0  0  0  0  0
  152.8074  140.1642  180.8509 C   0  0  0  0  0  0  0  0  0  0  0  0
  151.4755  139.6098  180.7838 C   0  0  0  0  0  0  0  0  0  0  0  0
  150.9145  139.5310  179.4937 C   0  0  0  0  0  0  0  0  0  0  0  0
  149.6620  139.0026  179.2749 C   0  0  0  0  0  0  0  0  0  0  0  0
  148.8910  138.5207  180.3247 C   0  0  0  0  0  0  0  0  0  0  0  0
  149.4502  138.6021  181.5905 C   0  0  0  0  0  0  0  0  0  0  0  0
  150.7035  139.1323  181.7952 C   0  0  0  0  0  0  0  0  0  0  0  0
 50 51  1  0  0  0
 51 49  1  0  0  0
 49 48  1  0  0  0
 48 47  1  0  0  0
 47 42  1  0  0  0
 42 38  1  0  0  0
 38 39  1  0  0  0
 39 40  2  0  0  0
 39 37  1  0  0  0
 37 54  1  0  0  0
 54 55  1  0  0  0
 55 56  2  0  0  0
 56 57  1  0  0  0
 57 58  2  0  0  0
 58 59  1  0  0  0
 59 60  2  0  0  0
 37  1  1  0  0  0
  1  2  1  0  0  0
  2  3  2  0  0  0
  2  4  1  0  0  0
  4  7  1  0  0  0
  7 25  1  0  0  0
 25 26  1  0  0  0
 26 27  2  0  0  0
 27 28  1  0  0  0
 28 29  1  0  0  0
 29 30  2  0  0  0
 28 31  1  0  0  0
 31 32  1  0  0  0
 31 34  1  0  0  0
 34 35  1  0  0  0
  7  8  1  0  0  0
  8  9  2  0  0  0
  8 10  1  0  0  0
 10 12  1  0  0  0
 12 18  1  0  0  0
 18 19  1  0  0  0
 19 20  2  0  0  0
 20 21  1  0  0  0
 21 22  1  0  0  0
 22 23  2  0  0  0
 12 13  1  0  0  0
 13 14  1  0  0  0
 13 15  2  0  0  0
 42 43  1  0  0  0
 43 44  1  0  0  0
 43 45  2  0  0  0
 60 55  1  0  0  0
 30 26  1  0  0  0
 23 19  1  0  0  0
 50 52  1  0  0  0
 50 53  1  0  0  0
 38 41  1  0  0  0
  1  5  1  0  0  0
  4  6  1  0  0  0
 32 33  1  0  0  0
 35 36  1  0  0  0
 10 11  1  0  0  0
 21 24  1  0  0  0
 14 16  1  0  0  0
 14 17  1  0  0  0
 44 46  1  0  0  0
M  END
> <minimizedAffinity>
-7.20714

> <CNNscore>
0.1105976105

> <CNNaffinity>
6.2864036560

> <CNN_VS>
0.6952612400

> <CNNaffinity_variance>
0.6655344367

$$$$
[H]OB(O[H])[C@@]([H])(N([H])C(=O)[C@@]([H])(N([H])C(=O)OC([H])([H])c1c([H])c([H])c([H])c([H])c1[H])C([H])(c1c([H])c([H])c([H])c([H])c1[H])c1c([H])c([H])c([H])c([H])c1[H])C([H])([H])C([H])(C([H])([H])[H])C([H])([H])[H]


 40 42  0  0  0  0  0  0  0  0999 V2000
  153.3695  138.6028  184.3632 C   0  0  0  0  0  0  0  0  0  0  0  0
  153.2161  138.3637  186.9699 N   0  0  0  0  0  0  0  0  0  0  0  0
  153.6941  138.1124  185.6995 C   0  0  0  0  0  0  0  0  0  0  0  0
  154.6628  137.2271  185.6643 O   0  0  0  0  0  0  0  0  0  0  0  0
  152.4264  139.0112  187.2214 H   0  0  0  0  0  0  0  0  0  0  0  0
  153.7753  137.6964  188.1393 C   0  0  0  0  0  0  0  0  0  0  0  0
  152.6598  136.7431  188.7934 B   0  0  0  0  0  0  0  0  0  0  0  0
  151.6005  136.2069  187.9658 O   0  0  0  0  0  0  0  0  0  0  0  0
  152.5805  136.5736  190.2397 O   0  0  0  0  0  0  0  0  0  0  0  0
  152.0548  135.6609  187.2408 H   0  0  0  0  0  0  0  0  0  0  0  0
  152.2831  135.7027  190.5441 H   0  0  0  0  0  0  0  0  0  0  0  0
  154.2523  138.6910  189.1482 C   0  0  0  0  0  0  0  0  0  0  0  0
  155.7292  138.0274  191.0780 C   0  0  0  0  0  0  0  0  0  0  0  0
  155.6525  138.3233  189.6042 C   0  0  0  0  0  0  0  0  0  0  0  0
  156.1731  137.2084  188.7733 C   0  0  0  0  0  0  0  0  0  0  0  0
  153.9616  139.9289  184.1438 N   0  0  0  0  0  0  0  0  0  0  0  0
  155.2995  140.1896  183.8139 C   0  0  0  0  0  0  0  0  0  0  0  0
  156.0853  139.1805  183.6978 O   0  0  0  0  0  0  0  0  0  0  0  0
  153.3158  140.7293  184.2471 H   0  0  0  0  0  0  0  0  0  0  0  0
  155.8601  141.4084  183.5990 O   0  0  0  0  0  0  0  0  0  0  0  0
  157.2079  141.7541  183.5961 C   0  0  0  0  0  0  0  0  0  0  0  0
  157.7671  142.1338  182.2999 C   0  0  0  0  0  0  0  0  0  0  0  0
  157.8549  141.2677  181.2271 C   0  0  0  0  0  0  0  0  0  0  0  0
  158.4205  141.6665  180.0360 C   0  0  0  0  0  0  0  0  0  0  0  0
  158.9186  142.9452  179.8707 C   0  0  0  0  0  0  0  0  0  0  0  0
  158.8342  143.8238  180.9427 C   0  0  0  0  0  0  0  0  0  0  0  0
  158.2690  143.4236  182.1330 C   0  0  0  0  0  0  0  0  0  0  0  0
  153.1134  137.7801  183.2210 C   0  0  0  0  0  0  0  0  0  0  0  0
  152.2053  138.4854  182.2545 C   0  0  0  0  0  0  0  0  0  0  0  0
  150.8409  138.4743  182.3428 C   0  0  0  0  0  0  0  0  0  0  0  0
  150.0552  139.1350  181.4192 C   0  0  0  0  0  0  0  0  0  0  0  0
  150.5972  139.8244  180.3832 C   0  0  0  0  0  0  0  0  0  0  0  0
  151.9767  139.8656  180.2493 C   0  0  0  0  0  0  0  0  0  0  0  0
  152.7507  139.1990  181.1833 C   0  0  0  0  0  0  0  0  0  0  0  0
  152.7405  136.4010  183.2276 C   0  0  0  0  0  0  0  0  0  0  0  0
  151.9536  135.8128  184.1656 C   0  0  0  0  0  0  0  0  0  0  0  0
  151.6022  134.4669  184.1218 C   0  0  0  0  0  0  0  0  0  0  0  0
  152.0899  133.6973  183.0560 C   0  0  0  0  0  0  0  0  0  0  0  0
  152.8903  134.2713  182.0921 C   0  0  0  0  0  0  0  0  0  0  0  0
  153.1996  135.6012  182.1929 C   0  0  0  0  0  0  0  0  0  0  0  0
 13 14  1  0  0  0
 14 15  1  0  0  0
 14 12  1  0  0  0
 12  6  1  0  0  0
  6  2  1  0  0  0
  2  3  1  0  0  0
  3  4  2  0  0  0
  3  1  1  0  0  0
  1 16  1  0  0  0
 16 17  1  0  0  0
 17 18  2  0  0  0
 17 20  1  0  0  0
 20 21  1  0  0  0
 21 22  1  0  0  0
 22 23  2  0  0  0
 23 24  1  0  0  0
 24 25  2  0  0  0
 25 26  1  0  0  0
 26 27  2  0  0  0
  1 28  1  0  0  0
 28 29  1  0  0  0
 29 30  2  0  0  0
 30 31  1  0  0  0
 31 32  2  0  0  0
 32 33  1  0  0  0
 33 34  2  0  0  0
 28 35  1  0  0  0
 35 36  2  0  0  0
 36 37  1  0  0  0
 37 38  2  0  0  0
 38 39  1  0  0  0
 39 40  2  0  0  0
  6  7  1  0  0  0
  7  8  1  0  0  0
  7  9  1  0  0  0
 27 22  1  0  0  0
 34 29  1  0  0  0
 40 35  1  0  0  0
  2  5  1  0  0  0
 16 19  1  0  0  0
  8 10  1  0  0  0
  9 11  1  0  0  0
M  END
> <minimizedAffinity>
-7.63988

> <CNNscore>
0.4597933590

> <CNNaffinity>
6.0715899467

> <CNN_VS>
2.7916767597

> <CNNaffinity_variance>
0.0633318350

$$$$
[H]OB(O[H])[C@@]([H])(N([H])C(=O)[C@@]([H])(N([H])C(=O)OC([H])([H])c1c([H])c([H])c([H])c([H])c1[H])C([H])(c1c([H])c([H])c([H])c([H])c1[H])c1c([H])c([H])c([H])c([H])c1[H])C([H])([H])C([H])(C([H])([H])[H])C([H])([H])[H]


 40 42  0  0  0  0  0  0  0  0999 V2000
  153.2010  138.4982  184.0175 C   0  0  0  0  0  0  0  0  0  0  0  0
  153.1360  138.3157  186.6325 N   0  0  0  0  0  0  0  0  0  0  0  0
  153.5192  137.9872  185.3477 C   0  0  0  0  0  0  0  0  0  0  0  0
  154.3619  136.9824  185.2875 O   0  0  0  0  0  0  0  0  0  0  0  0
  152.4496  139.0643  186.9055 H   0  0  0  0  0  0  0  0  0  0  0  0
  153.6560  137.5965  187.7891 C   0  0  0  0  0  0  0  0  0  0  0  0
  152.4937  136.6805  188.4141 B   0  0  0  0  0  0  0  0  0  0  0  0
  151.4198  136.2079  187.5668 O   0  0  0  0  0  0  0  0  0  0  0  0
  152.3932  136.4860  189.8560 O   0  0  0  0  0  0  0  0  0  0  0  0
  151.8566  135.6569  186.8348 H   0  0  0  0  0  0  0  0  0  0  0  0
  152.0550  135.6231  190.1401 H   0  0  0  0  0  0  0  0  0  0  0  0
  154.1711  138.5445  188.8239 C   0  0  0  0  0  0  0  0  0  0  0  0
  155.9189  138.1431  190.5930 C   0  0  0  0  0  0  0  0  0  0  0  0
  155.6273  138.2350  189.1192 C   0  0  0  0  0  0  0  0  0  0  0  0
  156.0394  137.0142  188.3816 C   0  0  0  0  0  0  0  0  0  0  0  0
  154.4262  138.8986  183.3133 N   0  0  0  0  0  0  0  0  0  0  0  0
  154.9250  140.2048  183.2052 C   0  0  0  0  0  0  0  0  0  0  0  0
  154.2495  141.1420  183.7662 O   0  0  0  0  0  0  0  0  0  0  0  0
  154.9536  138.1321  182.8631 H   0  0  0  0  0  0  0  0  0  0  0  0
  156.0602  140.5901  182.5658 O   0  0  0  0  0  0  0  0  0  0  0  0
  156.9722  141.5737  182.9361 C   0  0  0  0  0  0  0  0  0  0  0  0
  157.7353  142.1797  181.8463 C   0  0  0  0  0  0  0  0  0  0  0  0
  158.3981  143.3863  181.9620 C   0  0  0  0  0  0  0  0  0  0  0  0
  159.0769  143.9298  180.8936 C   0  0  0  0  0  0  0  0  0  0  0  0
  159.1206  143.2886  179.6699 C   0  0  0  0  0  0  0  0  0  0  0  0
  158.4584  142.0746  179.5435 C   0  0  0  0  0  0  0  0  0  0  0  0
  157.7798  141.5327  180.6123 C   0  0  0  0  0  0  0  0  0  0  0  0
  152.0668  138.1139  183.2345 C   0  0  0  0  0  0  0  0  0  0  0  0
  152.0293  136.6230  183.0550 C   0  0  0  0  0  0  0  0  0  0  0  0
  151.2216  135.7879  183.7760 C   0  0  0  0  0  0  0  0  0  0  0  0
  151.2357  134.4221  183.5732 C   0  0  0  0  0  0  0  0  0  0  0  0
  152.0488  133.8449  182.6523 C   0  0  0  0  0  0  0  0  0  0  0  0
  152.8875  134.6489  181.8956 C   0  0  0  0  0  0  0  0  0  0  0  0
  152.8616  136.0161  182.1099 C   0  0  0  0  0  0  0  0  0  0  0  0
  151.6381  138.7023  182.0053 C   0  0  0  0  0  0  0  0  0  0  0  0
  152.4666  139.1344  181.0195 C   0  0  0  0  0  0  0  0  0  0  0  0
  152.0022  139.6868  179.8294 C   0  0  0  0  0  0  0  0  0  0  0  0
  150.6151  139.7953  179.6555 C   0  0  0  0  0  0  0  0  0  0  0  0
  149.7542  139.3642  180.6414 C   0  0  0  0  0  0  0  0  0  0  0  0
  150.2749  138.8299  181.7894 C   0  0  0  0  0  0  0  0  0  0  0  0
 13 14  1  0  0  0
 14 15  1  0  0  0
 14 12  1  0  0  0
 12  6  1  0  0  0
  6  2  1  0  0  0
  2  3  1  0  0  0
  3  4  2  0  0  0
  3  1  1  0  0  0
  1 16  1  0  0  0
 16 17  1  0  0  0
 17 18  2  0  0  0
 17 20  1  0  0  0
 20 21  1  0  0  0
 21 22  1  0  0  0
 22 23  2  0  0  0
 23 24  1  0  0  0
 24 25  2  0  0  0
 25 26  1  0  0  0
 26 27  2  0  0  0
  1 28  1  0  0  0
 28 29  1  0  0  0
 29 30  2  0  0  0
 30 31  1  0  0  0
 31 32  2  0  0  0
 32 33  1  0  0  0
 33 34  2  0  0  0
 28 35  1  0  0  0
 35 36  2  0  0  0
 36 37  1  0  0  0
 37 38  2  0  0  0
 38 39  1  0  0  0
 39 40  2  0  0  0
  6  7  1  0  0  0
  7  8  1  0  0  0
  7  9  1  0  0  0
 27 22  1  0  0  0
 34 29  1  0  0  0
 40 35  1  0  0  0
  2  5  1  0  0  0
 16 19  1  0  0  0
  8 10  1  0  0  0
  9 11  1  0  0  0
M  END
> <minimizedAffinity>
-7.86001

> <CNNscore>
0.4090559185

> <CNNaffinity>
5.9904365540

> <CNN_VS>
2.4504234791

> <CNNaffinity_variance>
0.0742328838

$$$$
[H]OB(O[H])[C@@]([H])(N([H])C(=O)[C@@]([H])(N([H])C(=O)OC([H])([H])c1c([H])c([H])c([H])c([H])c1[H])C([H])(c1c([H])c([H])c([H])c([H])c1[H])c1c([H])c([H])c([H])c([H])c1[H])C([H])([H])C([H])(C([H])([H])[H])C([H])([H])[H]


 40 42  0  0  0  0  0  0  0  0999 V2000
  157.5251  140.5353  183.6396 C   0  0  0  0  0  0  0  0  0  0  0  0
  156.0979  139.1743  185.3677 N   0  0  0  0  0  0  0  0  0  0  0  0
  157.2332  139.5538  184.6804 C   0  0  0  0  0  0  0  0  0  0  0  0
  158.3092  138.8860  185.0264 O   0  0  0  0  0  0  0  0  0  0  0  0
  155.1280  139.5559  185.2270 H   0  0  0  0  0  0  0  0  0  0  0  0
  156.1380  138.1334  186.3877 C   0  0  0  0  0  0  0  0  0  0  0  0
  154.8642  137.1697  186.2162 B   0  0  0  0  0  0  0  0  0  0  0  0
  153.5356  137.7408  186.1598 O   0  0  0  0  0  0  0  0  0  0  0  0
  155.0066  135.7219  186.3200 O   0  0  0  0  0  0  0  0  0  0  0  0
  153.5296  138.3684  185.3621 H   0  0  0  0  0  0  0  0  0  0  0  0
  154.4071  135.2008  185.7644 H   0  0  0  0  0  0  0  0  0  0  0  0
  156.1488  138.7263  187.7599 C   0  0  0  0  0  0  0  0  0  0  0  0
  156.7202  137.0217  189.5244 C   0  0  0  0  0  0  0  0  0  0  0  0
  155.6232  137.7110  188.7582 C   0  0  0  0  0  0  0  0  0  0  0  0
  154.6260  138.3553  189.6498 C   0  0  0  0  0  0  0  0  0  0  0  0
  156.5326  140.4516  182.5602 N   0  0  0  0  0  0  0  0  0  0  0  0
  155.1962  140.8700  182.6355 C   0  0  0  0  0  0  0  0  0  0  0  0
  154.7960  141.3671  183.7500 O   0  0  0  0  0  0  0  0  0  0  0  0
  156.8709  140.0437  181.6728 H   0  0  0  0  0  0  0  0  0  0  0  0
  154.2689  140.8078  181.6444 O   0  0  0  0  0  0  0  0  0  0  0  0
  152.9101  141.1005  181.7092 C   0  0  0  0  0  0  0  0  0  0  0  0
  152.0103  140.0755  181.1829 C   0  0  0  0  0  0  0  0  0  0  0  0
  151.3411  140.1965  179.9803 C   0  0  0  0  0  0  0  0  0  0  0  0
  150.4788  139.2146  179.5446 C   0  0  0  0  0  0  0  0  0  0  0  0
  150.2529  138.0744  180.2926 C   0  0  0  0  0  0  0  0  0  0  0  0
  150.9214  137.9427  181.5025 C   0  0  0  0  0  0  0  0  0  0  0  0
  151.7829  138.9253  181.9370 C   0  0  0  0  0  0  0  0  0  0  0  0
  158.1961  141.7822  183.8450 C   0  0  0  0  0  0  0  0  0  0  0  0
  158.5290  142.4262  182.5294 C   0  0  0  0  0  0  0  0  0  0  0  0
  158.8473  141.7286  181.3974 C   0  0  0  0  0  0  0  0  0  0  0  0
  159.1532  142.3754  180.2163 C   0  0  0  0  0  0  0  0  0  0  0  0
  159.1528  143.7295  180.1225 C   0  0  0  0  0  0  0  0  0  0  0  0
  158.8370  144.4826  181.2431 C   0  0  0  0  0  0  0  0  0  0  0  0
  158.5320  143.8199  182.4193 C   0  0  0  0  0  0  0  0  0  0  0  0
  159.2912  142.0278  184.7291 C   0  0  0  0  0  0  0  0  0  0  0  0
  160.5983  142.0499  184.3604 C   0  0  0  0  0  0  0  0  0  0  0  0
  161.6320  142.3108  185.2550 C   0  0  0  0  0  0  0  0  0  0  0  0
  161.2930  142.5597  186.5926 C   0  0  0  0  0  0  0  0  0  0  0  0
  159.9738  142.5425  186.9911 C   0  0  0  0  0  0  0  0  0  0  0  0
  159.0038  142.2793  186.0615 C   0  0  0  0  0  0  0  0  0  0  0  0
 13 14  1  0  0  0
 14 15  1  0  0  0
 14 12  1  0  0  0
 12  6  1  0  0  0
  6  2  1  0  0  0
  2  3  1  0  0  0
  3  4  2  0  0  0
  3  1  1  0  0  0
  1 16  1  0  0  0
 16 17  1  0  0  0
 17 18  2  0  0  0
 17 20  1  0  0  0
 20 21  1  0  0  0
 21 22  1  0  0  0
 22 23  2  0  0  0
 23 24  1  0  0  0
 24 25  2  0  0  0
 25 26  1  0  0  0
 26 27  2  0  0  0
  1 28  1  0  0  0
 28 29  1  0  0  0
 29 30  2  0  0  0
 30 31  1  0  0  0
 31 32  2  0  0  0
 32 33  1  0  0  0
 33 34  2  0  0  0
 28 35  1  0  0  0
 35 36  2  0  0  0
 36 37  1  0  0  0
 37 38  2  0  0  0
 38 39  1  0  0  0
 39 40  2  0  0  0
  6  7  1  0  0  0
  7  8  1  0  0  0
  7  9  1  0  0  0
 27 22  1  0  0  0
 34 29  1  0  0  0
 40 35  1  0  0  0
  2  5  1  0  0  0
 16 19  1  0  0  0
  8 10  1  0  0  0
  9 11  1  0  0  0
M  END
> <minimizedAffinity>
-8.71214

> <CNNscore>
0.3511905968

> <CNNaffinity>
6.4937796593

> <CNN_VS>
2.2805542946

> <CNNaffinity_variance>
0.0286185332

$$$$
[H]OB(O[H])[C@@]([H])(N([H])C(=O)[C@@]([H])(N([H])C(=O)OC([H])([H])c1c([H])c([H])c([H])c([H])c1[H])C([H])(c1c([H])c([H])c([H])c([H])c1[H])c1c([H])c([H])c([H])c([H])c1[H])C([H])([H])C([H])(C([H])([H])[H])C([H])([H])[H]


 40 42  0  0  0  0  0  0  0  0999 V2000
  155.3103  137.7662  186.5947 C   0  0  0  0  0  0  0  0  0  0  0  0
  153.2274  136.6610  185.4479 N   0  0  0  0  0  0  0  0  0  0  0  0
  153.9243  137.6152  186.1614 C   0  0  0  0  0  0  0  0  0  0  0  0
  153.1855  138.6274  186.5528 O   0  0  0  0  0  0  0  0  0  0  0  0
  153.6157  135.7602  185.0684 H   0  0  0  0  0  0  0  0  0  0  0  0
  151.8052  136.8108  185.1641 C   0  0  0  0  0  0  0  0  0  0  0  0
  150.9516  136.1509  186.3543 B   0  0  0  0  0  0  0  0  0  0  0  0
  151.1858  136.5670  187.7205 O   0  0  0  0  0  0  0  0  0  0  0  0
  150.0919  134.9996  186.1042 O   0  0  0  0  0  0  0  0  0  0  0  0
  150.9965  137.5637  187.7505 H   0  0  0  0  0  0  0  0  0  0  0  0
  149.2888  134.9509  186.6448 H   0  0  0  0  0  0  0  0  0  0  0  0
  151.4470  136.1695  183.8622 C   0  0  0  0  0  0  0  0  0  0  0  0
  149.4880  137.6920  183.4262 C   0  0  0  0  0  0  0  0  0  0  0  0
  150.8252  137.2017  182.9393 C   0  0  0  0  0  0  0  0  0  0  0  0
  151.7861  138.3095  182.7073 C   0  0  0  0  0  0  0  0  0  0  0  0
  155.9477  138.8912  185.8981 N   0  0  0  0  0  0  0  0  0  0  0  0
  155.8243  139.1922  184.5339 C   0  0  0  0  0  0  0  0  0  0  0  0
  155.0932  138.4123  183.8221 O   0  0  0  0  0  0  0  0  0  0  0  0
  156.5369  139.5045  186.4855 H   0  0  0  0  0  0  0  0  0  0  0  0
  156.3994  140.2330  183.8769 O   0  0  0  0  0  0  0  0  0  0  0  0
  155.9442  140.9009  182.7442 C   0  0  0  0  0  0  0  0  0  0  0  0
  156.9261  141.7404  182.0601 C   0  0  0  0  0  0  0  0  0  0  0  0
  157.8617  141.2459  181.1719 C   0  0  0  0  0  0  0  0  0  0  0  0
  158.7866  142.0761  180.5780 C   0  0  0  0  0  0  0  0  0  0  0  0
  158.8116  143.4316  180.8475 C   0  0  0  0  0  0  0  0  0  0  0  0
  157.8748  143.9389  181.7381 C   0  0  0  0  0  0  0  0  0  0  0  0
  156.9510  143.1076  182.3315 C   0  0  0  0  0  0  0  0  0  0  0  0
  155.8205  137.3895  187.8773 C   0  0  0  0  0  0  0  0  0  0  0  0
  156.5048  136.0544  187.8026 C   0  0  0  0  0  0  0  0  0  0  0  0
  157.6462  135.7428  188.4878 C   0  0  0  0  0  0  0  0  0  0  0  0
  158.2366  134.4996  188.3738 C   0  0  0  0  0  0  0  0  0  0  0  0
  157.7146  133.5311  187.5789 C   0  0  0  0  0  0  0  0  0  0  0  0
  156.5577  133.7979  186.8626 C   0  0  0  0  0  0  0  0  0  0  0  0
  155.9774  135.0482  186.9878 C   0  0  0  0  0  0  0  0  0  0  0  0
  155.1234  137.4422  189.1233 C   0  0  0  0  0  0  0  0  0  0  0  0
  154.1519  136.5745  189.5080 C   0  0  0  0  0  0  0  0  0  0  0  0
  153.5111  136.6548  190.7409 C   0  0  0  0  0  0  0  0  0  0  0  0
  153.8967  137.6827  191.6133 C   0  0  0  0  0  0  0  0  0  0  0  0
  154.8798  138.5756  191.2454 C   0  0  0  0  0  0  0  0  0  0  0  0
  155.4714  138.4420  190.0180 C   0  0  0  0  0  0  0  0  0  0  0  0
 13 14  1  0  0  0
 14 15  1  0  0  0
 14 12  1  0  0  0
 12  6  1  0  0  0
  6  2  1  0  0  0
  2  3  1  0  0  0
  3  4  2  0  0  0
  3  1  1  0  0  0
  1 16  1  0  0  0
 16 17  1  0  0  0
 17 18  2  0  0  0
 17 20  1  0  0  0
 20 21  1  0  0  0
 21 22  1  0  0  0
 22 23  2  0  0  0
 23 24  1  0  0  0
 24 25  2  0  0  0
 25 26  1  0  0  0
 26 27  2  0  0  0
  1 28  1  0  0  0
 28 29  1  0  0  0
 29 30  2  0  0  0
 30 31  1  0  0  0
 31 32  2  0  0  0
 32 33  1  0  0  0
 33 34  2  0  0  0
 28 35  1  0  0  0
 35 36  2  0  0  0
 36 37  1  0  0  0
 37 38  2  0  0  0
 38 39  1  0  0  0
 39 40  2  0  0  0
  6  7  1  0  0  0
  7  8  1  0  0  0
  7  9  1  0  0  0
 27 22  1  0  0  0
 34 29  1  0  0  0
 40 35  1  0  0  0
  2  5  1  0  0  0
 16 19  1  0  0  0
  8 10  1  0  0  0
  9 11  1  0  0  0
M  END
> <minimizedAffinity>
-6.69246

> <CNNscore>
0.3165739179

> <CNNaffinity>
5.6949033737

> <CNN_VS>
1.8028578758

> <CNNaffinity_variance>
0.1759440452

$$$$
[H]OB(O[H])[C@@]([H])(N([H])C(=O)[C@@]([H])(N([H])C(=O)OC([H])([H])c1c([H])c([H])c([H])c([H])c1[H])C([H])(c1c([H])c([H])c([H])c([H])c1[H])c1c([H])c([H])c([H])c([H])c1[H])C([H])([H])C([H])(C([H])([H])[H])C([H])([H])[H]


 40 42  0  0  0  0  0  0  0  0999 V2000
  153.8925  137.7845  185.8016 C   0  0  0  0  0  0  0  0  0  0  0  0
  153.7128  137.9891  188.4096 N   0  0  0  0  0  0  0  0  0  0  0  0
  154.1207  137.4525  187.2050 C   0  0  0  0  0  0  0  0  0  0  0  0
  154.8897  136.3958  187.3298 O   0  0  0  0  0  0  0  0  0  0  0  0
  153.0726  138.8133  188.5393 H   0  0  0  0  0  0  0  0  0  0  0  0
  154.1338  137.4128  189.6809 C   0  0  0  0  0  0  0  0  0  0  0  0
  152.8699  136.7325  190.4024 B   0  0  0  0  0  0  0  0  0  0  0  0
  152.5654  137.0644  191.7778 O   0  0  0  0  0  0  0  0  0  0  0  0
  152.1476  135.6385  189.7634 O   0  0  0  0  0  0  0  0  0  0  0  0
  152.4028  138.0660  191.7994 H   0  0  0  0  0  0  0  0  0  0  0  0
  151.1967  135.5998  189.9477 H   0  0  0  0  0  0  0  0  0  0  0  0
  154.7304  138.4548  190.5714 C   0  0  0  0  0  0  0  0  0  0  0  0
  156.2415  136.7960  191.7164 C   0  0  0  0  0  0  0  0  0  0  0  0
  156.1567  138.0710  190.9208 C   0  0  0  0  0  0  0  0  0  0  0  0
  156.9800  138.0257  189.6861 C   0  0  0  0  0  0  0  0  0  0  0  0
  155.0930  138.3945  185.2152 N   0  0  0  0  0  0  0  0  0  0  0  0
  155.1231  139.5336  184.3978 C   0  0  0  0  0  0  0  0  0  0  0  0
  154.0001  140.0958  184.1288 O   0  0  0  0  0  0  0  0  0  0  0  0
  155.9868  137.9252  185.4377 H   0  0  0  0  0  0  0  0  0  0  0  0
  156.2248  140.1150  183.8555 O   0  0  0  0  0  0  0  0  0  0  0  0
  156.5184  141.4696  183.7327 C   0  0  0  0  0  0  0  0  0  0  0  0
  157.2831  141.8523  182.5470 C   0  0  0  0  0  0  0  0  0  0  0  0
  157.5441  143.1644  182.2019 C   0  0  0  0  0  0  0  0  0  0  0  0
  158.2429  143.4724  181.0555 C   0  0  0  0  0  0  0  0  0  0  0  0
  158.7083  142.4821  180.2109 C   0  0  0  0  0  0  0  0  0  0  0  0
  158.4521  141.1600  180.5493 C   0  0  0  0  0  0  0  0  0  0  0  0
  157.7530  140.8536  181.6955 C   0  0  0  0  0  0  0  0  0  0  0  0
  152.9854  137.1044  184.9288 C   0  0  0  0  0  0  0  0  0  0  0  0
  151.8588  136.4916  185.7109 C   0  0  0  0  0  0  0  0  0  0  0  0
  151.8085  135.1735  186.0709 C   0  0  0  0  0  0  0  0  0  0  0  0
  150.7417  134.6631  186.7839 C   0  0  0  0  0  0  0  0  0  0  0  0
  149.6957  135.4420  187.1600 C   0  0  0  0  0  0  0  0  0  0  0  0
  149.6991  136.7859  186.8186 C   0  0  0  0  0  0  0  0  0  0  0  0
  150.7756  137.2828  186.1045 C   0  0  0  0  0  0  0  0  0  0  0  0
  153.3269  136.1901  183.8855 C   0  0  0  0  0  0  0  0  0  0  0  0
  154.3275  135.2739  183.9512 C   0  0  0  0  0  0  0  0  0  0  0  0
  154.6134  134.3907  182.9143 C   0  0  0  0  0  0  0  0  0  0  0  0
  153.8247  134.4623  181.7572 C   0  0  0  0  0  0  0  0  0  0  0  0
  152.8038  135.3837  181.6666 C   0  0  0  0  0  0  0  0  0  0  0  0
  152.5740  136.2245  182.7223 C   0  0  0  0  0  0  0  0  0  0  0  0
 13 14  1  0  0  0
 14 15  1  0  0  0
 14 12  1  0  0  0
 12  6  1  0  0  0
  6  2  1  0  0  0
  2  3  1  0  0  0
  3  4  2  0  0  0
  3  1  1  0  0  0
  1 16  1  0  0  0
 16 17  1  0  0  0
 17 18  2  0  0  0
 17 20  1  0  0  0
 20 21  1  0  0  0
 21 22  1  0  0  0
 22 23  2  0  0  0
 23 24  1  0  0  0
 24 25  2  0  0  0
 25 26  1  0  0  0
 26 27  2  0  0  0
  1 28  1  0  0  0
 28 29  1  0  0  0
 29 30  2  0  0  0
 30 31  1  0  0  0
 31 32  2  0  0  0
 32 33  1  0  0  0
 33 34  2  0  0  0
 28 35  1  0  0  0
 35 36  2  0  0  0
 36 37  1  0  0  0
 37 38  2  0  0  0
 38 39  1  0  0  0
 39 40  2  0  0  0
  6  7  1  0  0  0
  7  8  1  0  0  0
  7  9  1  0  0  0
 27 22  1  0  0  0
 34 29  1  0  0  0
 40 35  1  0  0  0
  2  5  1  0  0  0
 16 19  1  0  0  0
  8 10  1  0  0  0
  9 11  1  0  0  0
M  END
> <minimizedAffinity>
-6.90002

> <CNNscore>
0.2887189686

> <CNNaffinity>
5.6976709366

> <CNN_VS>
1.6450257301

> <CNNaffinity_variance>
0.1296274364

$$$$
[H]OB(O[H])[C@@]([H])(N([H])C(=O)[C@@]([H])(N([H])C(=O)OC([H])([H])c1c([H])c([H])c([H])c([H])c1[H])C([H])(c1c([H])c([H])c([H])c([H])c1[H])c1c([H])c([H])c([H])c([H])c1[H])C([H])([H])C([H])(C([H])([H])[H])C([H])([H])[H]


 40 42  0  0  0  0  0  0  0  0999 V2000
  154.0342  135.3887  188.0712 C   0  0  0  0  0  0  0  0  0  0  0  0
  151.5247  135.7130  188.7587 N   0  0  0  0  0  0  0  0  0  0  0  0
  152.6325  135.0400  188.2840 C   0  0  0  0  0  0  0  0  0  0  0  0
  152.3878  133.7985  187.9345 O   0  0  0  0  0  0  0  0  0  0  0  0
  151.4902  136.7191  189.0630 H   0  0  0  0  0  0  0  0  0  0  0  0
  150.2243  135.0616  188.8604 C   0  0  0  0  0  0  0  0  0  0  0  0
  149.4061  135.2887  187.4967 B   0  0  0  0  0  0  0  0  0  0  0  0
  148.2044  136.0952  187.5075 O   0  0  0  0  0  0  0  0  0  0  0  0
  149.7389  134.5335  186.2942 O   0  0  0  0  0  0  0  0  0  0  0  0
  148.4828  137.0159  187.8315 H   0  0  0  0  0  0  0  0  0  0  0  0
  149.6030  134.9998  185.4553 H   0  0  0  0  0  0  0  0  0  0  0  0
  149.4451  135.5964  190.0186 C   0  0  0  0  0  0  0  0  0  0  0  0
  150.5796  136.5722  192.0451 C   0  0  0  0  0  0  0  0  0  0  0  0
  150.1935  135.3172  191.3092 C   0  0  0  0  0  0  0  0  0  0  0  0
  149.4056  134.3836  192.1531 C   0  0  0  0  0  0  0  0  0  0  0  0
  154.1562  136.4195  187.0321 N   0  0  0  0  0  0  0  0  0  0  0  0
  154.2675  136.1901  185.6530 C   0  0  0  0  0  0  0  0  0  0  0  0
  154.2698  134.9684  185.2570 O   0  0  0  0  0  0  0  0  0  0  0  0
  154.1584  137.3964  187.3697 H   0  0  0  0  0  0  0  0  0  0  0  0
  154.3718  137.1317  184.6791 O   0  0  0  0  0  0  0  0  0  0  0  0
  153.3671  137.6640  183.8770 C   0  0  0  0  0  0  0  0  0  0  0  0
  153.5856  139.0289  183.4013 C   0  0  0  0  0  0  0  0  0  0  0  0
  154.3974  139.9391  184.0504 C   0  0  0  0  0  0  0  0  0  0  0  0
  154.5442  141.2245  183.5775 C   0  0  0  0  0  0  0  0  0  0  0  0
  153.8871  141.6494  182.4381 C   0  0  0  0  0  0  0  0  0  0  0  0
  153.0695  140.7419  181.7777 C   0  0  0  0  0  0  0  0  0  0  0  0
  152.9233  139.4573  182.2519 C   0  0  0  0  0  0  0  0  0  0  0  0
  155.0667  135.2986  189.0576 C   0  0  0  0  0  0  0  0  0  0  0  0
  155.1345  136.5612  189.8687 C   0  0  0  0  0  0  0  0  0  0  0  0
  156.0943  137.5214  189.7065 C   0  0  0  0  0  0  0  0  0  0  0  0
  156.1116  138.6598  190.4879 C   0  0  0  0  0  0  0  0  0  0  0  0
  155.1807  138.8795  191.4510 C   0  0  0  0  0  0  0  0  0  0  0  0
  154.1862  137.9351  191.6550 C   0  0  0  0  0  0  0  0  0  0  0  0
  154.1817  136.7997  190.8635 C   0  0  0  0  0  0  0  0  0  0  0  0
  156.4079  134.8512  188.8524 C   0  0  0  0  0  0  0  0  0  0  0  0
  157.1075  134.9955  187.6971 C   0  0  0  0  0  0  0  0  0  0  0  0
  158.4203  134.5582  187.5484 C   0  0  0  0  0  0  0  0  0  0  0  0
  159.0341  133.9432  188.6490 C   0  0  0  0  0  0  0  0  0  0  0  0
  158.3448  133.7851  189.8318 C   0  0  0  0  0  0  0  0  0  0  0  0
  157.0551  134.2374  189.9132 C   0  0  0  0  0  0  0  0  0  0  0  0
 13 14  1  0  0  0
 14 15  1  0  0  0
 14 12  1  0  0  0
 12  6  1  0  0  0
  6  2  1  0  0  0
  2  3  1  0  0  0
  3  4  2  0  0  0
  3  1  1  0  0  0
  1 16  1  0  0  0
 16 17  1  0  0  0
 17 18  2  0  0  0
 17 20  1  0  0  0
 20 21  1  0  0  0
 21 22  1  0  0  0
 22 23  2  0  0  0
 23 24  1  0  0  0
 24 25  2  0  0  0
 25 26  1  0  0  0
 26 27  2  0  0  0
  1 28  1  0  0  0
 28 29  1  0  0  0
 29 30  2  0  0  0
 30 31  1  0  0  0
 31 32  2  0  0  0
 32 33  1  0  0  0
 33 34  2  0  0  0
 28 35  1  0  0  0
 35 36  2  0  0  0
 36 37  1  0  0  0
 37 38  2  0  0  0
 38 39  1  0  0  0
 39 40  2  0  0  0
  6  7  1  0  0  0
  7  8  1  0  0  0
  7  9  1  0  0  0
 27 22  1  0  0  0
 34 29  1  0  0  0
 40 35  1  0  0  0
  2  5  1  0  0  0
 16 19  1  0  0  0
  8 10  1  0  0  0
  9 11  1  0  0  0
M  END
> <minimizedAffinity>
-6.54205

> <CNNscore>
0.2782126963

> <CNNaffinity>
5.6433210373

> <CNN_VS>
1.5700435638

> <CNNaffinity_variance>
0.1346281916

$$$$
[H]OB(O[H])[C@@]([H])(N([H])C(=O)[C@@]([H])(N([H])C(=O)OC([H])([H])c1c([H])c([H])c([H])c([H])c1[H])C([H])(c1c([H])c([H])c([H])c([H])c1[H])c1c([H])c([H])c([H])c([H])c1[H])C([H])([H])C([H])(C([H])([H])[H])C([H])([H])[H]


 40 42  0  0  0  0  0  0  0  0999 V2000
  154.2203  137.9679  184.5392 C   0  0  0  0  0  0  0  0  0  0  0  0
  153.6983  137.4371  187.0535 N   0  0  0  0  0  0  0  0  0  0  0  0
  154.4852  137.6886  185.9476 C   0  0  0  0  0  0  0  0  0  0  0  0
  155.7734  137.6736  186.2004 O   0  0  0  0  0  0  0  0  0  0  0  0
  152.6487  137.3727  187.0693 H   0  0  0  0  0  0  0  0  0  0  0  0
  154.2849  137.1974  188.3664 C   0  0  0  0  0  0  0  0  0  0  0  0
  153.3956  136.1196  189.1590 B   0  0  0  0  0  0  0  0  0  0  0  0
  152.0376  136.4489  189.5359 O   0  0  0  0  0  0  0  0  0  0  0  0
  153.9968  134.8976  189.6810 O   0  0  0  0  0  0  0  0  0  0  0  0
  151.5434  136.6488  188.6723 H   0  0  0  0  0  0  0  0  0  0  0  0
  153.4203  134.1184  189.6918 H   0  0  0  0  0  0  0  0  0  0  0  0
  154.3738  138.4647  189.1543 C   0  0  0  0  0  0  0  0  0  0  0  0
  156.6089  138.0507  190.2401 C   0  0  0  0  0  0  0  0  0  0  0  0
  155.1265  138.2094  190.4474 C   0  0  0  0  0  0  0  0  0  0  0  0
  154.8014  139.2703  191.4339 C   0  0  0  0  0  0  0  0  0  0  0  0
  155.1792  138.9521  184.0205 N   0  0  0  0  0  0  0  0  0  0  0  0
  154.8575  140.1569  183.3788 C   0  0  0  0  0  0  0  0  0  0  0  0
  153.6117  140.4268  183.2219 O   0  0  0  0  0  0  0  0  0  0  0  0
  156.1769  138.7154  184.1504 H   0  0  0  0  0  0  0  0  0  0  0  0
  155.7315  141.0813  182.9018 O   0  0  0  0  0  0  0  0  0  0  0  0
  157.1220  141.0322  182.8859 C   0  0  0  0  0  0  0  0  0  0  0  0
  157.7782  141.8487  181.8662 C   0  0  0  0  0  0  0  0  0  0  0  0
  158.0135  141.4105  180.5773 C   0  0  0  0  0  0  0  0  0  0  0  0
  158.6652  142.2085  179.6629 C   0  0  0  0  0  0  0  0  0  0  0  0
  159.1056  143.4745  180.0005 C   0  0  0  0  0  0  0  0  0  0  0  0
  158.8731  143.9248  181.2934 C   0  0  0  0  0  0  0  0  0  0  0  0
  158.2219  143.1257  182.2066 C   0  0  0  0  0  0  0  0  0  0  0  0
  153.6229  137.0544  183.6142 C   0  0  0  0  0  0  0  0  0  0  0  0
  152.1320  137.2351  183.5812 C   0  0  0  0  0  0  0  0  0  0  0  0
  151.4641  137.8834  182.5797 C   0  0  0  0  0  0  0  0  0  0  0  0
  150.0909  138.0267  182.6067 C   0  0  0  0  0  0  0  0  0  0  0  0
  149.3410  137.5330  183.6246 C   0  0  0  0  0  0  0  0  0  0  0  0
  149.9714  136.8674  184.6649 C   0  0  0  0  0  0  0  0  0  0  0  0
  151.3482  136.7313  184.6234 C   0  0  0  0  0  0  0  0  0  0  0  0
  153.8852  135.6542  183.5057 C   0  0  0  0  0  0  0  0  0  0  0  0
  154.3711  134.8745  184.5061 C   0  0  0  0  0  0  0  0  0  0  0  0
  154.5954  133.5088  184.3593 C   0  0  0  0  0  0  0  0  0  0  0  0
  154.3020  132.9268  183.1178 C   0  0  0  0  0  0  0  0  0  0  0  0
  153.8084  133.6973  182.0873 C   0  0  0  0  0  0  0  0  0  0  0  0
  153.6100  135.0358  182.2962 C   0  0  0  0  0  0  0  0  0  0  0  0
 13 14  1  0  0  0
 14 15  1  0  0  0
 14 12  1  0  0  0
 12  6  1  0  0  0
  6  2  1  0  0  0
  2  3  1  0  0  0
  3  4  2  0  0  0
  3  1  1  0  0  0
  1 16  1  0  0  0
 16 17  1  0  0  0
 17 18  2  0  0  0
 17 20  1  0  0  0
 20 21  1  0  0  0
 21 22  1  0  0  0
 22 23  2  0  0  0
 23 24  1  0  0  0
 24 25  2  0  0  0
 25 26  1  0  0  0
 26 27  2  0  0  0
  1 28  1  0  0  0
 28 29  1  0  0  0
 29 30  2  0  0  0
 30 31  1  0  0  0
 31 32  2  0  0  0
 32 33  1  0  0  0
 33 34  2  0  0  0
 28 35  1  0  0  0
 35 36  2  0  0  0
 36 37  1  0  0  0
 37 38  2  0  0  0
 38 39  1  0  0  0
 39 40  2  0  0  0
  6  7  1  0  0  0
  7  8  1  0  0  0
  7  9  1  0  0  0
 27 22  1  0  0  0
 34 29  1  0  0  0
 40 35  1  0  0  0
  2  5  1  0  0  0
 16 19  1  0  0  0
  8 10  1  0  0  0
  9 11  1  0  0  0
M  END
> <minimizedAffinity>
-7.19354

> <CNNscore>
0.2645622492

> <CNNaffinity>
5.7338318825

> <CNN_VS>
1.5169554949

> <CNNaffinity_variance>
0.1812616587

$$$$
[H]OB(O[H])[C@@]([H])(N([H])C(=O)[C@@]([H])(N([H])C(=O)OC([H])([H])c1c([H])c([H])c([H])c([H])c1[H])C([H])(c1c([H])c([H])c([H])c([H])c1[H])c1c([H])c([H])c([H])c([H])c1[H])C([H])([H])C([H])(C([H])([H])[H])C([H])([H])[H]


 40 42  0  0  0  0  0  0  0  0999 V2000
  155.7120  137.9203  186.5125 C   0  0  0  0  0  0  0  0  0  0  0  0
  153.7300  137.2474  184.9331 N   0  0  0  0  0  0  0  0  0  0  0  0
  154.3844  137.9741  185.9073 C   0  0  0  0  0  0  0  0  0  0  0  0
  153.6597  138.9393  186.4237 O   0  0  0  0  0  0  0  0  0  0  0  0
  154.1122  136.4165  184.4138 H   0  0  0  0  0  0  0  0  0  0  0  0
  152.3647  137.5665  184.5338 C   0  0  0  0  0  0  0  0  0  0  0  0
  151.3346  136.7434  185.4515 B   0  0  0  0  0  0  0  0  0  0  0  0
  150.4107  135.8147  184.8364 O   0  0  0  0  0  0  0  0  0  0  0  0
  151.1769  137.0642  186.8655 O   0  0  0  0  0  0  0  0  0  0  0  0
  150.9789  135.1255  184.3544 H   0  0  0  0  0  0  0  0  0  0  0  0
  150.9704  136.3149  187.4448 H   0  0  0  0  0  0  0  0  0  0  0  0
  152.1369  137.2414  183.0926 C   0  0  0  0  0  0  0  0  0  0  0  0
  152.3898  138.7409  181.0842 C   0  0  0  0  0  0  0  0  0  0  0  0
  151.6416  138.4770  182.3633 C   0  0  0  0  0  0  0  0  0  0  0  0
  150.1749  138.3805  182.1537 C   0  0  0  0  0  0  0  0  0  0  0  0
  156.5358  139.0436  186.0469 N   0  0  0  0  0  0  0  0  0  0  0  0
  156.5707  139.5542  184.7412 C   0  0  0  0  0  0  0  0  0  0  0  0
  155.8203  138.9876  183.8665 O   0  0  0  0  0  0  0  0  0  0  0  0
  157.1376  139.4834  186.7630 H   0  0  0  0  0  0  0  0  0  0  0  0
  157.3196  140.5972  184.2971 O   0  0  0  0  0  0  0  0  0  0  0  0
  158.6543  140.6004  183.9036 C   0  0  0  0  0  0  0  0  0  0  0  0
  159.5545  141.4272  184.7055 C   0  0  0  0  0  0  0  0  0  0  0  0
  160.7903  141.8562  184.2614 C   0  0  0  0  0  0  0  0  0  0  0  0
  161.6147  142.6076  185.0696 C   0  0  0  0  0  0  0  0  0  0  0  0
  161.2360  142.9600  186.3513 C   0  0  0  0  0  0  0  0  0  0  0  0
  159.9951  142.5346  186.8070 C   0  0  0  0  0  0  0  0  0  0  0  0
  159.1722  141.7831  185.9981 C   0  0  0  0  0  0  0  0  0  0  0  0
  156.0171  137.3407  187.7845 C   0  0  0  0  0  0  0  0  0  0  0  0
  156.4742  135.9191  187.6216 C   0  0  0  0  0  0  0  0  0  0  0  0
  157.5840  135.4003  188.2288 C   0  0  0  0  0  0  0  0  0  0  0  0
  157.9613  134.0861  188.0354 C   0  0  0  0  0  0  0  0  0  0  0  0
  157.2517  133.2494  187.2363 C   0  0  0  0  0  0  0  0  0  0  0  0
  156.1179  133.7278  186.5973 C   0  0  0  0  0  0  0  0  0  0  0  0
  155.7522  135.0470  186.8016 C   0  0  0  0  0  0  0  0  0  0  0  0
  155.2133  137.3976  188.9643 C   0  0  0  0  0  0  0  0  0  0  0  0
  154.1126  136.6352  189.1927 C   0  0  0  0  0  0  0  0  0  0  0  0
  153.3690  136.7133  190.3666 C   0  0  0  0  0  0  0  0  0  0  0  0
  153.7874  137.6240  191.3472 C   0  0  0  0  0  0  0  0  0  0  0  0
  154.9009  138.4087  191.1385 C   0  0  0  0  0  0  0  0  0  0  0  0
  155.5890  138.2838  189.9616 C   0  0  0  0  0  0  0  0  0  0  0  0
 13 14  1  0  0  0
 14 15  1  0  0  0
 14 12  1  0  0  0
 12  6  1  0  0  0
  6  2  1  0  0  0
  2  3  1  0  0  0
  3  4  2  0  0  0
  3  1  1  0  0  0
  1 16  1  0  0  0
 16 17  1  0  0  0
 17 18  2  0  0  0
 17 20  1  0  0  0
 20 21  1  0  0  0
 21 22  1  0  0  0
 22 23  2  0  0  0
 23 24  1  0  0  0
 24 25  2  0  0  0
 25 26  1  0  0  0
 26 27  2  0  0  0
  1 28  1  0  0  0
 28 29  1  0  0  0
 29 30  2  0  0  0
 30 31  1  0  0  0
 31 32  2  0  0  0
 32 33  1  0  0  0
 33 34  2  0  0  0
 28 35  1  0  0  0
 35 36  2  0  0  0
 36 37  1  0  0  0
 37 38  2  0  0  0
 38 39  1  0  0  0
 39 40  2  0  0  0
  6  7  1  0  0  0
  7  8  1  0  0  0
  7  9  1  0  0  0
 27 22  1  0  0  0
 34 29  1  0  0  0
 40 35  1  0  0  0
  2  5  1  0  0  0
 16 19  1  0  0  0
  8 10  1  0  0  0
  9 11  1  0  0  0
M  END
> <minimizedAffinity>
-7.60482

> <CNNscore>
0.2628747523

> <CNNaffinity>
5.8907117844

> <CNN_VS>
1.5485193729

> <CNNaffinity_variance>
0.1345153004

$$$$
[H]OB(O[H])[C@@]([H])(N([H])C(=O)[C@@]([H])(N([H])C(=O)OC([H])([H])c1c([H])c([H])c([H])c([H])c1[H])C([H])(c1c([H])c([H])c([H])c([H])c1[H])c1c([H])c([H])c([H])c([H])c1[H])C([H])([H])C([H])(C([H])([H])[H])C([H])([H])[H]


 40 42  0  0  0  0  0  0  0  0999 V2000
  155.3383  137.6850  186.0276 C   0  0  0  0  0  0  0  0  0  0  0  0
  153.8001  137.6419  183.9045 N   0  0  0  0  0  0  0  0  0  0  0  0
  154.2021  138.0138  185.1716 C   0  0  0  0  0  0  0  0  0  0  0  0
  153.3840  138.8547  185.7608 O   0  0  0  0  0  0  0  0  0  0  0  0
  154.2887  136.9587  183.2715 H   0  0  0  0  0  0  0  0  0  0  0  0
  152.5797  138.1708  183.3074 C   0  0  0  0  0  0  0  0  0  0  0  0
  151.3562  137.1808  183.6295 B   0  0  0  0  0  0  0  0  0  0  0  0
  150.8728  137.0570  184.9880 O   0  0  0  0  0  0  0  0  0  0  0  0
  150.8595  136.2569  182.6162 O   0  0  0  0  0  0  0  0  0  0  0  0
  150.5721  137.9850  185.2685 H   0  0  0  0  0  0  0  0  0  0  0  0
  149.9094  136.0676  182.6513 H   0  0  0  0  0  0  0  0  0  0  0  0
  152.7312  138.3313  181.8289 C   0  0  0  0  0  0  0  0  0  0  0  0
  153.1369  140.8169  181.8853 C   0  0  0  0  0  0  0  0  0  0  0  0
  152.2391  139.7052  181.4121 C   0  0  0  0  0  0  0  0  0  0  0  0
  152.0233  139.7357  179.9435 C   0  0  0  0  0  0  0  0  0  0  0  0
  156.2319  138.8426  186.1640 N   0  0  0  0  0  0  0  0  0  0  0  0
  156.7800  139.5891  185.1108 C   0  0  0  0  0  0  0  0  0  0  0  0
  156.4816  139.2282  183.9149 O   0  0  0  0  0  0  0  0  0  0  0  0
  156.4657  139.1149  187.1333 H   0  0  0  0  0  0  0  0  0  0  0  0
  157.6000  140.6668  185.2202 O   0  0  0  0  0  0  0  0  0  0  0  0
  158.6812  141.0182  184.4178 C   0  0  0  0  0  0  0  0  0  0  0  0
  159.7898  141.6866  185.0970 C   0  0  0  0  0  0  0  0  0  0  0  0
  159.6781  142.2637  186.3472 C   0  0  0  0  0  0  0  0  0  0  0  0
  160.7460  142.9101  186.9298 C   0  0  0  0  0  0  0  0  0  0  0  0
  161.9659  143.0038  186.2866 C   0  0  0  0  0  0  0  0  0  0  0  0
  162.0888  142.4261  185.0299 C   0  0  0  0  0  0  0  0  0  0  0  0
  161.0203  141.7806  184.4485 C   0  0  0  0  0  0  0  0  0  0  0  0
  155.3276  136.7127  187.0772 C   0  0  0  0  0  0  0  0  0  0  0  0
  155.4647  137.3790  188.4164 C   0  0  0  0  0  0  0  0  0  0  0  0
  156.5826  137.2954  189.1992 C   0  0  0  0  0  0  0  0  0  0  0  0
  156.6489  137.9232  190.4274 C   0  0  0  0  0  0  0  0  0  0  0  0
  155.6117  138.6504  190.9149 C   0  0  0  0  0  0  0  0  0  0  0  0
  154.4550  138.7653  190.1591 C   0  0  0  0  0  0  0  0  0  0  0  0
  154.4039  138.1310  188.9299 C   0  0  0  0  0  0  0  0  0  0  0  0
  156.0802  135.4993  187.1256 C   0  0  0  0  0  0  0  0  0  0  0  0
  157.4099  135.4192  187.3911 C   0  0  0  0  0  0  0  0  0  0  0  0
  158.0989  134.2112  187.4446 C   0  0  0  0  0  0  0  0  0  0  0  0
  157.3744  133.0334  187.2118 C   0  0  0  0  0  0  0  0  0  0  0  0
  156.0245  133.0889  186.9400 C   0  0  0  0  0  0  0  0  0  0  0  0
  155.4054  134.3095  186.9018 C   0  0  0  0  0  0  0  0  0  0  0  0
 13 14  1  0  0  0
 14 15  1  0  0  0
 14 12  1  0  0  0
 12  6  1  0  0  0
  6  2  1  0  0  0
  2  3  1  0  0  0
  3  4  2  0  0  0
  3  1  1  0  0  0
  1 16  1  0  0  0
 16 17  1  0  0  0
 17 18  2  0  0  0
 17 20  1  0  0  0
 20 21  1  0  0  0
 21 22  1  0  0  0
 22 23  2  0  0  0
 23 24  1  0  0  0
 24 25  2  0  0  0
 25 26  1  0  0  0
 26 27  2  0  0  0
  1 28  1  0  0  0
 28 29  1  0  0  0
 29 30  2  0  0  0
 30 31  1  0  0  0
 31 32  2  0  0  0
 32 33  1  0  0  0
 33 34  2  0  0  0
 28 35  1  0  0  0
 35 36  2  0  0  0
 36 37  1  0  0  0
 37 38  2  0  0  0
 38 39  1  0  0  0
 39 40  2  0  0  0
  6  7  1  0  0  0
  7  8  1  0  0  0
  7  9  1  0  0  0
 27 22  1  0  0  0
 34 29  1  0  0  0
 40 35  1  0  0  0
  2  5  1  0  0  0
 16 19  1  0  0  0
  8 10  1  0  0  0
  9 11  1  0  0  0
M  END
> <minimizedAffinity>
-8.38385

> <CNNscore>
0.2618208826

> <CNNaffinity>
5.8147649765

> <CNN_VS>
1.5224268436

> <CNNaffinity_variance>
0.2165197432

$$$$
[H]c1sc(N2C([H])([H])C([H])([H])C([H])(C(=O)N([H])c3c([H])c([H])c4c([H])c([H])c(OC([H])([H])[H])c(C([H])([H])N(C([H])([H])[H])C([H])([H])[H])c4c3[H])C([H])([H])C2([H])[H])c([H])c1[H]


 31 34  0  0  0  0  0  0  0  0999 V2000
  154.1402  133.1577  180.1604 C   0  0  0  0  0  0  0  0  0  0  0  0
  153.5188  133.3543  181.4370 C   0  0  0  0  0  0  0  0  0  0  0  0
  152.1626  133.4666  181.4198 C   0  0  0  0  0  0  0  0  0  0  0  0
  151.4082  133.4028  180.2227 C   0  0  0  0  0  0  0  0  0  0  0  0
  150.0343  133.4799  180.2285 C   0  0  0  0  0  0  0  0  0  0  0  0
  149.3737  133.6163  181.4180 C   0  0  0  0  0  0  0  0  0  0  0  0
  150.0366  133.6772  182.6006 C   0  0  0  0  0  0  0  0  0  0  0  0
  151.4431  133.5984  182.5844 C   0  0  0  0  0  0  0  0  0  0  0  0
  152.0710  133.2158  179.0265 C   0  0  0  0  0  0  0  0  0  0  0  0
  153.4182  133.0958  179.0178 C   0  0  0  0  0  0  0  0  0  0  0  0
  149.4319  133.8418  183.8774 N   0  0  0  0  0  0  0  0  0  0  0  0
  149.6982  134.8154  184.8412 C   0  0  0  0  0  0  0  0  0  0  0  0
  150.5651  135.6898  184.6558 O   0  0  0  0  0  0  0  0  0  0  0  0
  148.6670  133.1399  184.1493 H   0  0  0  0  0  0  0  0  0  0  0  0
  148.9738  134.8777  186.1396 C   0  0  0  0  0  0  0  0  0  0  0  0
  148.2691  133.5959  186.4277 C   0  0  0  0  0  0  0  0  0  0  0  0
  147.7411  133.4503  187.7985 C   0  0  0  0  0  0  0  0  0  0  0  0
  148.3127  134.3266  188.7711 N   0  0  0  0  0  0  0  0  0  0  0  0
  149.0507  135.5186  188.4801 C   0  0  0  0  0  0  0  0  0  0  0  0
  149.9444  135.1593  187.2812 C   0  0  0  0  0  0  0  0  0  0  0  0
  148.1376  133.9813  190.1612 C   0  0  0  0  0  0  0  0  0  0  0  0
  149.3305  133.6987  191.3559 S   0  0  0  0  0  0  0  0  0  0  0  0
  148.3130  133.3535  192.6786 C   0  0  0  0  0  0  0  0  0  0  0  0
  147.0610  133.4692  192.1469 C   0  0  0  0  0  0  0  0  0  0  0  0
  146.9718  133.7937  190.8462 C   0  0  0  0  0  0  0  0  0  0  0  0
  156.1094  131.7544  180.0966 C   0  0  0  0  0  0  0  0  0  0  0  0
  155.5297  133.0299  180.1241 O   0  0  0  0  0  0  0  0  0  0  0  0
  154.4344  133.3853  182.5565 C   0  0  0  0  0  0  0  0  0  0  0  0
  154.7921  132.3142  183.3607 N   0  0  0  0  0  0  0  0  0  0  0  0
  153.6893  131.3552  183.5851 C   0  0  0  0  0  0  0  0  0  0  0  0
  155.3589  132.6174  184.6313 C   0  0  0  0  0  0  0  0  0  0  0  0
 26 27  1  0  0  0
 27  1  1  0  0  0
  1  2  2  0  0  0
  2 28  1  0  0  0
 28 29  1  0  0  0
 29 30  1  0  0  0
 29 31  1  0  0  0
  2  3  1  0  0  0
  3  4  2  0  0  0
  4  5  1  0  0  0
  5  6  2  0  0  0
  6  7  1  0  0  0
  7 11  1  0  0  0
 11 12  1  0  0  0
 12 13  2  0  0  0
 12 15  1  0  0  0
 15 16  1  0  0  0
 16 17  1  0  0  0
 17 18  1  0  0  0
 18 21  1  0  0  0
 21 22  1  0  0  0
 22 23  1  0  0  0
 23 24  2  0  0  0
 24 25  1  0  0  0
 18 19  1  0  0  0
 19 20  1  0  0  0
  7  8  2  0  0  0
  4  9  1  0  0  0
  9 10  2  0  0  0
 10  1  1  0  0  0
  8  3  1  0  0  0
 20 15  1  0  0  0
 25 21  2  0  0  0
 11 14  1  0  0  0
M  END
> <minimizedAffinity>
-1.80628

> <CNNscore>
0.6780571342

> <CNNaffinity>
5.1163311005

> <CNN_VS>
3.4691648483

> <CNNaffinity_variance>
0.4817050397

$$$$
[H]c1sc(N2C([H])([H])C([H])([H])C([H])(C(=O)N([H])c3c([H])c([H])c4c([H])c([H])c(OC([H])([H])[H])c(C([H])([H])N(C([H])([H])[H])C([H])([H])[H])c4c3[H])C([H])([H])C2([H])[H])c([H])c1[H]


 31 34  0  0  0  0  0  0  0  0999 V2000
  151.8661  136.8419  191.8792 C   0  0  0  0  0  0  0  0  0  0  0  0
  152.4001  136.3499  190.6434 C   0  0  0  0  0  0  0  0  0  0  0  0
  151.5449  135.6096  189.8865 C   0  0  0  0  0  0  0  0  0  0  0  0
  150.2158  135.3322  190.2901 C   0  0  0  0  0  0  0  0  0  0  0  0
  149.3531  134.6141  189.4940 C   0  0  0  0  0  0  0  0  0  0  0  0
  149.7820  134.1583  188.2783 C   0  0  0  0  0  0  0  0  0  0  0  0
  151.0408  134.3953  187.8299 C   0  0  0  0  0  0  0  0  0  0  0  0
  151.9171  135.1305  188.6523 C   0  0  0  0  0  0  0  0  0  0  0  0
  149.7668  135.8338  191.4951 C   0  0  0  0  0  0  0  0  0  0  0  0
  150.5960  136.5771  192.2629 C   0  0  0  0  0  0  0  0  0  0  0  0
  151.5751  133.9394  186.5931 N   0  0  0  0  0  0  0  0  0  0  0  0
  151.9547  132.6435  186.2404 C   0  0  0  0  0  0  0  0  0  0  0  0
  151.8596  131.6991  187.0464 O   0  0  0  0  0  0  0  0  0  0  0  0
  151.7048  134.6705  185.8183 H   0  0  0  0  0  0  0  0  0  0  0  0
  152.4908  132.3031  184.8946 C   0  0  0  0  0  0  0  0  0  0  0  0
  151.5136  131.4935  184.1122 C   0  0  0  0  0  0  0  0  0  0  0  0
  151.8254  131.3239  182.6794 C   0  0  0  0  0  0  0  0  0  0  0  0
  152.7517  132.2673  182.1384 N   0  0  0  0  0  0  0  0  0  0  0  0
  153.6358  133.0928  182.9046 C   0  0  0  0  0  0  0  0  0  0  0  0
  152.8042  133.5704  184.1069 C   0  0  0  0  0  0  0  0  0  0  0  0
  152.7980  132.4049  180.7028 C   0  0  0  0  0  0  0  0  0  0  0  0
  151.7110  131.7944  179.5299 S   0  0  0  0  0  0  0  0  0  0  0  0
  152.4728  132.3808  178.1229 C   0  0  0  0  0  0  0  0  0  0  0  0
  153.5628  133.0418  178.6114 C   0  0  0  0  0  0  0  0  0  0  0  0
  153.7296  133.0535  179.9445 C   0  0  0  0  0  0  0  0  0  0  0  0
  152.1464  138.5831  193.5347 C   0  0  0  0  0  0  0  0  0  0  0  0
  152.7012  137.6126  192.6896 O   0  0  0  0  0  0  0  0  0  0  0  0
  153.7699  136.7341  190.3813 C   0  0  0  0  0  0  0  0  0  0  0  0
  154.9081  136.0245  190.7316 N   0  0  0  0  0  0  0  0  0  0  0  0
  155.9756  136.8730  191.3031 C   0  0  0  0  0  0  0  0  0  0  0  0
  155.5022  135.2121  189.7243 C   0  0  0  0  0  0  0  0  0  0  0  0
 26 27  1  0  0  0
 27  1  1  0  0  0
  1  2  2  0  0  0
  2 28  1  0  0  0
 28 29  1  0  0  0
 29 30  1  0  0  0
 29 31  1  0  0  0
  2  3  1  0  0  0
  3  4  2  0  0  0
  4  5  1  0  0  0
  5  6  2  0  0  0
  6  7  1  0  0  0
  7 11  1  0  0  0
 11 12  1  0  0  0
 12 13  2  0  0  0
 12 15  1  0  0  0
 15 16  1  0  0  0
 16 17  1  0  0  0
 17 18  1  0  0  0
 18 21  1  0  0  0
 21 22  1  0  0  0
 22 23  1  0  0  0
 23 24  2  0  0  0
 24 25  1  0  0  0
 18 19  1  0  0  0
 19 20  1  0  0  0
  7  8  2  0  0  0
  4  9  1  0  0  0
  9 10  2  0  0  0
 10  1  1  0  0  0
  8  3  1  0  0  0
 20 15  1  0  0  0
 25 21  2  0  0  0
 11 14  1  0  0  0
M  END
> <minimizedAffinity>
-3.41234

> <CNNscore>
0.5326724648

> <CNNaffinity>
5.2221364975

> <CNN_VS>
2.7816882133

> <CNNaffinity_variance>
0.5303438902

$$$$
[H]c1sc(N2C([H])([H])C([H])([H])C([H])(C(=O)N([H])c3c([H])c([H])c4c([H])c([H])c(OC([H])([H])[H])c(C([H])([H])N(C([H])([H])[H])C([H])([H])[H])c4c3[H])C([H])([H])C2([H])[H])c([H])c1[H]


 31 34  0  0  0  0  0  0  0  0999 V2000
  151.9069  136.3908  192.1212 C   0  0  0  0  0  0  0  0  0  0  0  0
  152.7843  135.7396  191.1935 C   0  0  0  0  0  0  0  0  0  0  0  0
  152.1875  135.2147  190.0888 C   0  0  0  0  0  0  0  0  0  0  0  0
  150.7908  135.2952  189.8669 C   0  0  0  0  0  0  0  0  0  0  0  0
  150.2096  134.7923  188.7254 C   0  0  0  0  0  0  0  0  0  0  0  0
  150.9958  134.2033  187.7742 C   0  0  0  0  0  0  0  0  0  0  0  0
  152.3408  134.1001  187.9226 C   0  0  0  0  0  0  0  0  0  0  0  0
  152.9265  134.6169  189.0950 C   0  0  0  0  0  0  0  0  0  0  0  0
  150.0029  135.9332  190.8036 C   0  0  0  0  0  0  0  0  0  0  0  0
  150.5731  136.4679  191.9073 C   0  0  0  0  0  0  0  0  0  0  0  0
  153.2276  133.4836  186.9971 N   0  0  0  0  0  0  0  0  0  0  0  0
  153.1934  132.1781  186.5049 C   0  0  0  0  0  0  0  0  0  0  0  0
  152.3178  131.3714  186.8700 O   0  0  0  0  0  0  0  0  0  0  0  0
  154.0286  134.0859  186.6133 H   0  0  0  0  0  0  0  0  0  0  0  0
  154.1856  131.6655  185.5214 C   0  0  0  0  0  0  0  0  0  0  0  0
  153.5911  131.5602  184.1583 C   0  0  0  0  0  0  0  0  0  0  0  0
  154.5473  131.3171  183.0604 C   0  0  0  0  0  0  0  0  0  0  0  0
  155.9104  131.6259  183.3560 N   0  0  0  0  0  0  0  0  0  0  0  0
  156.4552  131.7962  184.6692 C   0  0  0  0  0  0  0  0  0  0  0  0
  155.3943  132.5919  185.4480 C   0  0  0  0  0  0  0  0  0  0  0  0
  156.8126  131.7849  182.2412 C   0  0  0  0  0  0  0  0  0  0  0  0
  156.4437  132.0066  180.5844 S   0  0  0  0  0  0  0  0  0  0  0  0
  158.0282  132.0968  179.9636 C   0  0  0  0  0  0  0  0  0  0  0  0
  158.8070  131.9502  181.0751 C   0  0  0  0  0  0  0  0  0  0  0  0
  158.1777  131.7892  182.2512 C   0  0  0  0  0  0  0  0  0  0  0  0
  152.0602  138.2226  193.6935 C   0  0  0  0  0  0  0  0  0  0  0  0
  152.4706  136.9520  193.2682 O   0  0  0  0  0  0  0  0  0  0  0  0
  154.1813  135.7568  191.5689 C   0  0  0  0  0  0  0  0  0  0  0  0
  155.2291  136.2815  190.8282 N   0  0  0  0  0  0  0  0  0  0  0  0
  156.3489  135.3339  190.6433 C   0  0  0  0  0  0  0  0  0  0  0  0
  155.7834  137.5157  191.2720 C   0  0  0  0  0  0  0  0  0  0  0  0
 26 27  1  0  0  0
 27  1  1  0  0  0
  1  2  2  0  0  0
  2 28  1  0  0  0
 28 29  1  0  0  0
 29 30  1  0  0  0
 29 31  1  0  0  0
  2  3  1  0  0  0
  3  4  2  0  0  0
  4  5  1  0  0  0
  5  6  2  0  0  0
  6  7  1  0  0  0
  7 11  1  0  0  0
 11 12  1  0  0  0
 12 13  2  0  0  0
 12 15  1  0  0  0
 15 16  1  0  0  0
 16 17  1  0  0  0
 17 18  1  0  0  0
 18 21  1  0  0  0
 21 22  1  0  0  0
 22 23  1  0  0  0
 23 24  2  0  0  0
 24 25  1  0  0  0
 18 19  1  0  0  0
 19 20  1  0  0  0
  7  8  2  0  0  0
  4  9  1  0  0  0
  9 10  2  0  0  0
 10  1  1  0  0  0
  8  3  1  0  0  0
 20 15  1  0  0  0
 25 21  2  0  0  0
 11 14  1  0  0  0
M  END
> <minimizedAffinity>
-3.97304

> <CNNscore>
0.4949595928

> <CNNaffinity>
5.0154023170

> <CNN_VS>
2.4824213982

> <CNNaffinity_variance>
0.0763265416

$$$$
[H]c1sc(N2C([H])([H])C([H])([H])C([H])(C(=O)N([H])c3c([H])c([H])c4c([H])c([H])c(OC([H])([H])[H])c(C([H])([H])N(C([H])([H])[H])C([H])([H])[H])c4c3[H])C([H])([H])C2([H])[H])c([H])c1[H]


 31 34  0  0  0  0  0  0  0  0999 V2000
  148.8805  137.4065  180.8079 C   0  0  0  0  0  0  0  0  0  0  0  0
  149.5667  137.4549  182.0654 C   0  0  0  0  0  0  0  0  0  0  0  0
  149.1648  136.5411  182.9903 C   0  0  0  0  0  0  0  0  0  0  0  0
  148.1316  135.6057  182.7377 C   0  0  0  0  0  0  0  0  0  0  0  0
  147.7646  134.6637  183.6713 C   0  0  0  0  0  0  0  0  0  0  0  0
  148.4138  134.6206  184.8739 C   0  0  0  0  0  0  0  0  0  0  0  0
  149.4165  135.4838  185.1759 C   0  0  0  0  0  0  0  0  0  0  0  0
  149.7845  136.4453  184.2142 C   0  0  0  0  0  0  0  0  0  0  0  0
  147.5093  135.6166  181.5057 C   0  0  0  0  0  0  0  0  0  0  0  0
  147.8945  136.5116  180.5676 C   0  0  0  0  0  0  0  0  0  0  0  0
  150.1266  135.5244  186.4076 N   0  0  0  0  0  0  0  0  0  0  0  0
  151.2947  134.8441  186.7551 C   0  0  0  0  0  0  0  0  0  0  0  0
  151.8569  134.0728  185.9553 O   0  0  0  0  0  0  0  0  0  0  0  0
  149.7315  136.1580  187.1783 H   0  0  0  0  0  0  0  0  0  0  0  0
  151.9427  134.9916  188.0865 C   0  0  0  0  0  0  0  0  0  0  0  0
  151.3825  136.1529  188.8349 C   0  0  0  0  0  0  0  0  0  0  0  0
  151.7582  136.2369  190.2600 C   0  0  0  0  0  0  0  0  0  0  0  0
  152.2387  135.0227  190.8392 N   0  0  0  0  0  0  0  0  0  0  0  0
  152.7076  133.8847  190.1075 C   0  0  0  0  0  0  0  0  0  0  0  0
  151.7360  133.7350  188.9248 C   0  0  0  0  0  0  0  0  0  0  0  0
  152.2484  134.9316  192.2792 C   0  0  0  0  0  0  0  0  0  0  0  0
  151.9822  136.1658  193.4351 S   0  0  0  0  0  0  0  0  0  0  0  0
  152.1725  135.2493  194.8591 C   0  0  0  0  0  0  0  0  0  0  0  0
  152.4407  133.9960  194.3892 C   0  0  0  0  0  0  0  0  0  0  0  0
  152.4795  133.8332  193.0561 C   0  0  0  0  0  0  0  0  0  0  0  0
  148.4940  138.4390  178.6549 C   0  0  0  0  0  0  0  0  0  0  0  0
  149.2599  138.3190  179.8222 O   0  0  0  0  0  0  0  0  0  0  0  0
  150.6003  138.4634  182.1514 C   0  0  0  0  0  0  0  0  0  0  0  0
  151.8785  138.3833  181.6205 N   0  0  0  0  0  0  0  0  0  0  0  0
  152.4801  137.0380  181.7401 C   0  0  0  0  0  0  0  0  0  0  0  0
  152.8378  139.3233  182.0935 C   0  0  0  0  0  0  0  0  0  0  0  0
 26 27  1  0  0  0
 27  1  1  0  0  0
  1  2  2  0  0  0
  2 28  1  0  0  0
 28 29  1  0  0  0
 29 30  1  0  0  0
 29 31  1  0  0  0
  2  3  1  0  0  0
  3  4  2  0  0  0
  4  5  1  0  0  0
  5  6  2  0  0  0
  6  7  1  0  0  0
  7 11  1  0  0  0
 11 12  1  0  0  0
 12 13  2  0  0  0
 12 15  1  0  0  0
 15 16  1  0  0  0
 16 17  1  0  0  0
 17 18  1  0  0  0
 18 21  1  0  0  0
 21 22  1  0  0  0
 22 23  1  0  0  0
 23 24  2  0  0  0
 24 25  1  0  0  0
 18 19  1  0  0  0
 19 20  1  0  0  0
  7  8  2  0  0  0
  4  9  1  0  0  0
  9 10  2  0  0  0
 10  1  1  0  0  0
  8  3  1  0  0  0
 20 15  1  0  0  0
 25 21  2  0  0  0
 11 14  1  0  0  0
M  END
> <minimizedAffinity>
-3.59367

> <CNNscore>
0.4148387611

> <CNNaffinity>
5.2718081474

> <CNN_VS>
2.1869504452

> <CNNaffinity_variance>
0.3670460582

$$$$
[H]c1sc(N2C([H])([H])C([H])([H])C([H])(C(=O)N([H])c3c([H])c([H])c4c([H])c([H])c(OC([H])([H])[H])c(C([H])([H])N(C([H])([H])[H])C([H])([H])[H])c4c3[H])C([H])([H])C2([H])[H])c([H])c1[H]


 31 34  0  0  0  0  0  0  0  0999 V2000
  149.6020  138.8034  180.7651 C   0  0  0  0  0  0  0  0  0  0  0  0
  150.0525  138.1885  181.9789 C   0  0  0  0  0  0  0  0  0  0  0  0
  149.1905  138.2601  183.0296 C   0  0  0  0  0  0  0  0  0  0  0  0
  147.9327  138.9054  182.9402 C   0  0  0  0  0  0  0  0  0  0  0  0
  147.0577  138.9348  184.0019 C   0  0  0  0  0  0  0  0  0  0  0  0
  147.4030  138.3224  185.1748 C   0  0  0  0  0  0  0  0  0  0  0  0
  148.5899  137.6816  185.3237 C   0  0  0  0  0  0  0  0  0  0  0  0
  149.4796  137.6577  184.2316 C   0  0  0  0  0  0  0  0  0  0  0  0
  147.5628  139.4811  181.7415 C   0  0  0  0  0  0  0  0  0  0  0  0
  148.3997  139.4183  180.6808 C   0  0  0  0  0  0  0  0  0  0  0  0
  149.0378  137.0411  186.5121 N   0  0  0  0  0  0  0  0  0  0  0  0
  148.6216  135.8207  187.0462 C   0  0  0  0  0  0  0  0  0  0  0  0
  147.7442  135.1355  186.4883 O   0  0  0  0  0  0  0  0  0  0  0  0
  149.7965  137.5434  187.0810 H   0  0  0  0  0  0  0  0  0  0  0  0
  149.1903  135.2591  188.3015 C   0  0  0  0  0  0  0  0  0  0  0  0
  150.5345  135.8349  188.5912 C   0  0  0  0  0  0  0  0  0  0  0  0
  151.0749  135.5529  189.9357 C   0  0  0  0  0  0  0  0  0  0  0  0
  150.1122  135.1468  190.9098 N   0  0  0  0  0  0  0  0  0  0  0  0
  148.7958  134.6626  190.6217 C   0  0  0  0  0  0  0  0  0  0  0  0
  148.2751  135.5569  189.4840 C   0  0  0  0  0  0  0  0  0  0  0  0
  150.4937  135.2358  192.2985 C   0  0  0  0  0  0  0  0  0  0  0  0
  151.9437  135.8419  192.9770 S   0  0  0  0  0  0  0  0  0  0  0  0
  151.5995  135.5847  194.6261 C   0  0  0  0  0  0  0  0  0  0  0  0
  150.3530  135.0286  194.6011 C   0  0  0  0  0  0  0  0  0  0  0  0
  149.7829  134.8490  193.3978 C   0  0  0  0  0  0  0  0  0  0  0  0
  150.9489  139.9403  179.1086 C   0  0  0  0  0  0  0  0  0  0  0  0
  150.4467  138.7517  179.6552 O   0  0  0  0  0  0  0  0  0  0  0  0
  151.3557  137.5664  181.8937 C   0  0  0  0  0  0  0  0  0  0  0  0
  152.5643  138.1251  182.2798 N   0  0  0  0  0  0  0  0  0  0  0  0
  153.0935  137.5642  183.5413 C   0  0  0  0  0  0  0  0  0  0  0  0
  152.6185  139.5439  182.3878 C   0  0  0  0  0  0  0  0  0  0  0  0
 26 27  1  0  0  0
 27  1  1  0  0  0
  1  2  2  0  0  0
  2 28  1  0  0  0
 28 29  1  0  0  0
 29 30  1  0  0  0
 29 31  1  0  0  0
  2  3  1  0  0  0
  3  4  2  0  0  0
  4  5  1  0  0  0
  5  6  2  0  0  0
  6  7  1  0  0  0
  7 11  1  0  0  0
 11 12  1  0  0  0
 12 13  2  0  0  0
 12 15  1  0  0  0
 15 16  1  0  0  0
 16 17  1  0  0  0
 17 18  1  0  0  0
 18 21  1  0  0  0
 21 22  1  0  0  0
 22 23  1  0  0  0
 23 24  2  0  0  0
 24 25  1  0  0  0
 18 19  1  0  0  0
 19 20  1  0  0  0
  7  8  2  0  0  0
  4  9  1  0  0  0
  9 10  2  0  0  0
 10  1  1  0  0  0
  8  3  1  0  0  0
 20 15  1  0  0  0
 25 21  2  0  0  0
 11 14  1  0  0  0
M  END
> <minimizedAffinity>
-5.45206

> <CNNscore>
0.4086383581

> <CNNaffinity>
5.1819405556

> <CNN_VS>
2.1175396442

> <CNNaffinity_variance>
0.0812367573

$$$$
[H]c1sc(N2C([H])([H])C([H])([H])C([H])(C(=O)N([H])c3c([H])c([H])c4c([H])c([H])c(OC([H])([H])[H])c(C([H])([H])N(C([H])([H])[H])C([H])([H])[H])c4c3[H])C([H])([H])C2([H])[H])c([H])c1[H]


 31 34  0  0  0  0  0  0  0  0999 V2000
  155.1943  131.8974  179.9108 C   0  0  0  0  0  0  0  0  0  0  0  0
  155.6772  133.0649  180.5878 C   0  0  0  0  0  0  0  0  0  0  0  0
  154.8426  133.5872  181.5273 C   0  0  0  0  0  0  0  0  0  0  0  0
  153.5751  133.0251  181.8172 C   0  0  0  0  0  0  0  0  0  0  0  0
  152.7607  133.5442  182.7975 C   0  0  0  0  0  0  0  0  0  0  0  0
  153.1823  134.6272  183.5179 C   0  0  0  0  0  0  0  0  0  0  0  0
  154.3880  135.2087  183.2944 C   0  0  0  0  0  0  0  0  0  0  0  0
  155.2143  134.6709  182.2880 C   0  0  0  0  0  0  0  0  0  0  0  0
  153.1700  131.9021  181.1243 C   0  0  0  0  0  0  0  0  0  0  0  0
  153.9839  131.3609  180.1895 C   0  0  0  0  0  0  0  0  0  0  0  0
  154.8932  136.3488  183.9786 N   0  0  0  0  0  0  0  0  0  0  0  0
  155.6299  137.4136  183.4579 C   0  0  0  0  0  0  0  0  0  0  0  0
  155.9421  137.4570  182.2532 O   0  0  0  0  0  0  0  0  0  0  0  0
  154.6865  136.4187  185.0293 H   0  0  0  0  0  0  0  0  0  0  0  0
  156.0863  138.5574  184.2933 C   0  0  0  0  0  0  0  0  0  0  0  0
  156.6687  138.0869  185.5824 C   0  0  0  0  0  0  0  0  0  0  0  0
  157.3887  139.1073  186.3694 C   0  0  0  0  0  0  0  0  0  0  0  0
  157.7982  140.2659  185.6409 N   0  0  0  0  0  0  0  0  0  0  0  0
  157.2820  140.6691  184.3676 C   0  0  0  0  0  0  0  0  0  0  0  0
  157.1450  139.3699  183.5561 C   0  0  0  0  0  0  0  0  0  0  0  0
  158.8191  141.0965  186.2324 C   0  0  0  0  0  0  0  0  0  0  0  0
  160.2617  141.6905  185.5279 S   0  0  0  0  0  0  0  0  0  0  0  0
  160.8803  142.5517  186.8620 C   0  0  0  0  0  0  0  0  0  0  0  0
  159.9366  142.3500  187.8275 C   0  0  0  0  0  0  0  0  0  0  0  0
  158.8722  141.5980  187.5009 C   0  0  0  0  0  0  0  0  0  0  0  0
  157.4079  131.3591  179.0974 C   0  0  0  0  0  0  0  0  0  0  0  0
  156.0158  131.3188  178.9420 O   0  0  0  0  0  0  0  0  0  0  0  0
  156.9943  133.5001  180.1775 C   0  0  0  0  0  0  0  0  0  0  0  0
  158.1992  133.1600  180.7728 N   0  0  0  0  0  0  0  0  0  0  0  0
  159.1467  134.2911  180.8672 C   0  0  0  0  0  0  0  0  0  0  0  0
  158.9074  132.0553  180.2198 C   0  0  0  0  0  0  0  0  0  0  0  0
 26 27  1  0  0  0
 27  1  1  0  0  0
  1  2  2  0  0  0
  2 28  1  0  0  0
 28 29  1  0  0  0
 29 30  1  0  0  0
 29 31  1  0  0  0
  2  3  1  0  0  0
  3  4  2  0  0  0
  4  5  1  0  0  0
  5  6  2  0  0  0
  6  7  1  0  0  0
  7 11  1  0  0  0
 11 12  1  0  0  0
 12 13  2  0  0  0
 12 15  1  0  0  0
 15 16  1  0  0  0
 16 17  1  0  0  0
 17 18  1  0  0  0
 18 21  1  0  0  0
 21 22  1  0  0  0
 22 23  1  0  0  0
 23 24  2  0  0  0
 24 25  1  0  0  0
 18 19  1  0  0  0
 19 20  1  0  0  0
  7  8  2  0  0  0
  4  9  1  0  0  0
  9 10  2  0  0  0
 10  1  1  0  0  0
  8  3  1  0  0  0
 20 15  1  0  0  0
 25 21  2  0  0  0
 11 14  1  0  0  0
M  END
> <minimizedAffinity>
11.55012

> <CNNscore>
0.4081901610

> <CNNaffinity>
5.7286901474

> <CNN_VS>
2.3383948803

> <CNNaffinity_variance>
2.2072319984

$$$$
[H]c1sc(N2C([H])([H])C([H])([H])C([H])(C(=O)N([H])c3c([H])c([H])c4c([H])c([H])c(OC([H])([H])[H])c(C([H])([H])N(C([H])([H])[H])C([H])([H])[H])c4c3[H])C([H])([H])C2([H])[H])c([H])c1[H]


 31 34  0  0  0  0  0  0  0  0999 V2000
  155.4015  133.6722  182.2815 C   0  0  0  0  0  0  0  0  0  0  0  0
  154.7340  133.6179  183.5487 C   0  0  0  0  0  0  0  0  0  0  0  0
  153.9872  134.7101  183.8674 C   0  0  0  0  0  0  0  0  0  0  0  0
  153.8783  135.8341  183.0124 C   0  0  0  0  0  0  0  0  0  0  0  0
  153.0878  136.9136  183.3340 C   0  0  0  0  0  0  0  0  0  0  0  0
  152.3823  136.9051  184.5052 C   0  0  0  0  0  0  0  0  0  0  0  0
  152.4378  135.8566  185.3651 C   0  0  0  0  0  0  0  0  0  0  0  0
  153.2505  134.7564  185.0277 C   0  0  0  0  0  0  0  0  0  0  0  0
  154.5513  135.8224  181.8073 C   0  0  0  0  0  0  0  0  0  0  0  0
  155.2956  134.7461  181.4652 C   0  0  0  0  0  0  0  0  0  0  0  0
  151.7576  135.7756  186.6116 N   0  0  0  0  0  0  0  0  0  0  0  0
  151.8581  136.6322  187.7088 C   0  0  0  0  0  0  0  0  0  0  0  0
  152.6208  137.6164  187.6940 O   0  0  0  0  0  0  0  0  0  0  0  0
  151.0710  134.9610  186.7409 H   0  0  0  0  0  0  0  0  0  0  0  0
  151.0706  136.4339  188.9558 C   0  0  0  0  0  0  0  0  0  0  0  0
  150.2269  135.2076  188.8733 C   0  0  0  0  0  0  0  0  0  0  0  0
  149.6097  134.7693  190.1406 C   0  0  0  0  0  0  0  0  0  0  0  0
  150.2090  135.2931  191.3268 N   0  0  0  0  0  0  0  0  0  0  0  0
  151.0770  136.4304  191.3837 C   0  0  0  0  0  0  0  0  0  0  0  0
  151.9975  136.2991  190.1587 C   0  0  0  0  0  0  0  0  0  0  0  0
  149.9215  134.6191  192.5699 C   0  0  0  0  0  0  0  0  0  0  0  0
  149.5236  132.9752  192.8331 S   0  0  0  0  0  0  0  0  0  0  0  0
  149.3380  133.0089  194.5267 C   0  0  0  0  0  0  0  0  0  0  0  0
  149.5935  134.3123  194.8421 C   0  0  0  0  0  0  0  0  0  0  0  0
  149.8949  135.1431  193.8302 C   0  0  0  0  0  0  0  0  0  0  0  0
  157.4953  132.4638  182.3619 C   0  0  0  0  0  0  0  0  0  0  0  0
  156.1754  132.5736  181.9042 O   0  0  0  0  0  0  0  0  0  0  0  0
  154.9442  132.3939  184.2905 C   0  0  0  0  0  0  0  0  0  0  0  0
  154.5723  132.1496  185.6035 N   0  0  0  0  0  0  0  0  0  0  0  0
  155.6719  131.6150  186.4348 C   0  0  0  0  0  0  0  0  0  0  0  0
  153.4362  131.3170  185.8120 C   0  0  0  0  0  0  0  0  0  0  0  0
 26 27  1  0  0  0
 27  1  1  0  0  0
  1  2  2  0  0  0
  2 28  1  0  0  0
 28 29  1  0  0  0
 29 30  1  0  0  0
 29 31  1  0  0  0
  2  3  1  0  0  0
  3  4  2  0  0  0
  4  5  1  0  0  0
  5  6  2  0  0  0
  6  7  1  0  0  0
  7 11  1  0  0  0
 11 12  1  0  0  0
 12 13  2  0  0  0
 12 15  1  0  0  0
 15 16  1  0  0  0
 16 17  1  0  0  0
 17 18  1  0  0  0
 18 21  1  0  0  0
 21 22  1  0  0  0
 22 23  1  0  0  0
 23 24  2  0  0  0
 24 25  1  0  0  0
 18 19  1  0  0  0
 19 20  1  0  0  0
  7  8  2  0  0  0
  4  9  1  0  0  0
  9 10  2  0  0  0
 10  1  1  0  0  0
  8  3  1  0  0  0
 20 15  1  0  0  0
 25 21  2  0  0  0
 11 14  1  0  0  0
M  END
> <minimizedAffinity>
-1.41444

> <CNNscore>
0.3878546655

> <CNNaffinity>
5.2317643166

> <CNN_VS>
2.0291643143

> <CNNaffinity_variance>
1.2951670885

$$$$
[H]c1sc(N2C([H])([H])C([H])([H])C([H])(C(=O)N([H])c3c([H])c([H])c4c([H])c([H])c(OC([H])([H])[H])c(C([H])([H])N(C([H])([H])[H])C([H])([H])[H])c4c3[H])C([H])([H])C2([H])[H])c([H])c1[H]


 31 34  0  0  0  0  0  0  0  0999 V2000
  159.2177  142.3666  184.8817 C   0  0  0  0  0  0  0  0  0  0  0  0
  158.0598  141.7830  184.2710 C   0  0  0  0  0  0  0  0  0  0  0  0
  157.3411  140.9386  185.0601 C   0  0  0  0  0  0  0  0  0  0  0  0
  157.7110  140.6443  186.3954 C   0  0  0  0  0  0  0  0  0  0  0  0
  156.9509  139.8179  187.1910 C   0  0  0  0  0  0  0  0  0  0  0  0
  155.8048  139.2678  186.6875 C   0  0  0  0  0  0  0  0  0  0  0  0
  155.3912  139.5147  185.4187 C   0  0  0  0  0  0  0  0  0  0  0  0
  156.1765  140.3611  184.6115 C   0  0  0  0  0  0  0  0  0  0  0  0
  158.8411  141.2381  186.9202 C   0  0  0  0  0  0  0  0  0  0  0  0
  159.5691  142.0854  186.1577 C   0  0  0  0  0  0  0  0  0  0  0  0
  154.2288  138.9669  184.8090 N   0  0  0  0  0  0  0  0  0  0  0  0
  153.8400  137.6285  184.7355 C   0  0  0  0  0  0  0  0  0  0  0  0
  154.5384  136.7235  185.2294 O   0  0  0  0  0  0  0  0  0  0  0  0
  153.5495  139.6566  184.3458 H   0  0  0  0  0  0  0  0  0  0  0  0
  152.5803  137.1946  184.0727 C   0  0  0  0  0  0  0  0  0  0  0  0
  151.4684  138.1490  184.3471 C   0  0  0  0  0  0  0  0  0  0  0  0
  150.2513  137.9644  183.5326 C   0  0  0  0  0  0  0  0  0  0  0  0
  150.4256  137.2067  182.3342 N   0  0  0  0  0  0  0  0  0  0  0  0
  151.5357  136.3477  182.0513 C   0  0  0  0  0  0  0  0  0  0  0  0
  152.7735  137.1033  182.5632 C   0  0  0  0  0  0  0  0  0  0  0  0
  149.4030  137.3189  181.3223 C   0  0  0  0  0  0  0  0  0  0  0  0
  149.2885  136.5114  179.8173 S   0  0  0  0  0  0  0  0  0  0  0  0
  147.8338  137.1961  179.2523 C   0  0  0  0  0  0  0  0  0  0  0  0
  147.4753  138.0425  180.2617 C   0  0  0  0  0  0  0  0  0  0  0  0
  148.2869  138.1048  181.3306 C   0  0  0  0  0  0  0  0  0  0  0  0
  159.8306  144.6283  184.2816 C   0  0  0  0  0  0  0  0  0  0  0  0
  159.9858  143.2455  184.1163 O   0  0  0  0  0  0  0  0  0  0  0  0
  157.8222  142.1987  182.9059 C   0  0  0  0  0  0  0  0  0  0  0  0
  157.5083  141.3763  181.8349 N   0  0  0  0  0  0  0  0  0  0  0  0
  157.5809  139.9358  182.1605 C   0  0  0  0  0  0  0  0  0  0  0  0
  158.2349  141.5778  180.6270 C   0  0  0  0  0  0  0  0  0  0  0  0
 26 27  1  0  0  0
 27  1  1  0  0  0
  1  2  2  0  0  0
  2 28  1  0  0  0
 28 29  1  0  0  0
 29 30  1  0  0  0
 29 31  1  0  0  0
  2  3  1  0  0  0
  3  4  2  0  0  0
  4  5  1  0  0  0
  5  6  2  0  0  0
  6  7  1  0  0  0
  7 11  1  0  0  0
 11 12  1  0  0  0
 12 13  2  0  0  0
 12 15  1  0  0  0
 15 16  1  0  0  0
 16 17  1  0  0  0
 17 18  1  0  0  0
 18 21  1  0  0  0
 21 22  1  0  0  0
 22 23  1  0  0  0
 23 24  2  0  0  0
 24 25  1  0  0  0
 18 19  1  0  0  0
 19 20  1  0  0  0
  7  8  2  0  0  0
  4  9  1  0  0  0
  9 10  2  0  0  0
 10  1  1  0  0  0
  8  3  1  0  0  0
 20 15  1  0  0  0
 25 21  2  0  0  0
 11 14  1  0  0  0
M  END
> <minimizedAffinity>
1.95387

> <CNNscore>
0.3875967860

> <CNNaffinity>
6.3301992416

> <CNN_VS>
2.4535648823

> <CNNaffinity_variance>
2.6359963417

$$$$
[H]c1sc(N2C([H])([H])C([H])([H])C([H])(C(=O)N([H])c3c([H])c([H])c4c([H])c([H])c(OC([H])([H])[H])c(C([H])([H])N(C([H])([H])[H])C([H])([H])[H])c4c3[H])C([H])([H])C2([H])[H])c([H])c1[H]


 31 34  0  0  0  0  0  0  0  0999 V2000
  149.2556  138.2617  179.6227 C   0  0  0  0  0  0  0  0  0  0  0  0
  149.8002  137.9501  180.9115 C   0  0  0  0  0  0  0  0  0  0  0  0
  150.9217  138.6387  181.2582 C   0  0  0  0  0  0  0  0  0  0  0  0
  151.5222  139.5959  180.4040 C   0  0  0  0  0  0  0  0  0  0  0  0
  152.6342  140.3104  180.7870 C   0  0  0  0  0  0  0  0  0  0  0  0
  153.1751  140.0997  182.0250 C   0  0  0  0  0  0  0  0  0  0  0  0
  152.6442  139.2020  182.8934 C   0  0  0  0  0  0  0  0  0  0  0  0
  151.5065  138.4745  182.4920 C   0  0  0  0  0  0  0  0  0  0  0  0
  150.9479  139.8446  179.1738 C   0  0  0  0  0  0  0  0  0  0  0  0
  149.8297  139.1770  178.8084 C   0  0  0  0  0  0  0  0  0  0  0  0
  153.1556  138.9040  184.1867 N   0  0  0  0  0  0  0  0  0  0  0  0
  153.9113  137.8001  184.5845 C   0  0  0  0  0  0  0  0  0  0  0  0
  154.2206  136.9029  183.7783 O   0  0  0  0  0  0  0  0  0  0  0  0
  152.9483  139.6098  184.9681 H   0  0  0  0  0  0  0  0  0  0  0  0
  154.3956  137.6207  185.9801 C   0  0  0  0  0  0  0  0  0  0  0  0
  153.6743  138.5225  186.9230 C   0  0  0  0  0  0  0  0  0  0  0  0
  153.8828  138.2464  188.3580 C   0  0  0  0  0  0  0  0  0  0  0  0
  154.3818  136.9435  188.6646 N   0  0  0  0  0  0  0  0  0  0  0  0
  155.0090  136.0560  187.7323 C   0  0  0  0  0  0  0  0  0  0  0  0
  154.1877  136.1815  186.4381 C   0  0  0  0  0  0  0  0  0  0  0  0
  154.2384  136.4797  190.0235 C   0  0  0  0  0  0  0  0  0  0  0  0
  152.9187  136.6845  191.0943 S   0  0  0  0  0  0  0  0  0  0  0  0
  153.5427  135.8668  192.4530 C   0  0  0  0  0  0  0  0  0  0  0  0
  154.7731  135.4536  192.0299 C   0  0  0  0  0  0  0  0  0  0  0  0
  155.1312  135.7709  190.7744 C   0  0  0  0  0  0  0  0  0  0  0  0
  147.4734  137.9387  178.0195 C   0  0  0  0  0  0  0  0  0  0  0  0
  148.1011  137.5873  179.2221 O   0  0  0  0  0  0  0  0  0  0  0  0
  149.0578  136.9576  181.6574 C   0  0  0  0  0  0  0  0  0  0  0  0
  148.0807  137.2009  182.6103 N   0  0  0  0  0  0  0  0  0  0  0  0
  146.8129  136.4874  182.3458 C   0  0  0  0  0  0  0  0  0  0  0  0
  147.7570  138.5620  182.8752 C   0  0  0  0  0  0  0  0  0  0  0  0
 26 27  1  0  0  0
 27  1  1  0  0  0
  1  2  2  0  0  0
  2 28  1  0  0  0
 28 29  1  0  0  0
 29 30  1  0  0  0
 29 31  1  0  0  0
  2  3  1  0  0  0
  3  4  2  0  0  0
  4  5  1  0  0  0
  5  6  2  0  0  0
  6  7  1  0  0  0
  7 11  1  0  0  0
 11 12  1  0  0  0
 12 13  2  0  0  0
 12 15  1  0  0  0
 15 16  1  0  0  0
 16 17  1  0  0  0
 17 18  1  0  0  0
 18 21  1  0  0  0
 21 22  1  0  0  0
 22 23  1  0  0  0
 23 24  2  0  0  0
 24 25  1  0  0  0
 18 19  1  0  0  0
 19 20  1  0  0  0
  7  8  2  0  0  0
  4  9  1  0  0  0
  9 10  2  0  0  0
 10  1  1  0  0  0
  8  3  1  0  0  0
 20 15  1  0  0  0
 25 21  2  0  0  0
 11 14  1  0  0  0
M  END
> <minimizedAffinity>
-6.32277

> <CNNscore>
0.3595834970

> <CNNaffinity>
5.4415278435

> <CNN_VS>
1.9566836357

> <CNNaffinity_variance>
0.0706105381

$$$$
[H]Oc1c([H])c(OC([H])([H])C([H])([H])[H])c([H])c2c([H])nc(N([H])c3c([H])c([H])c(N([H])C(=O)N(C([H])([H])[H])C([H])([H])[H])c([H])c3[H])nc(=O)c12


 32 34  0  0  0  0  0  0  0  0999 V2000
  152.9019  139.9933  181.6346 C   0  0  0  0  0  0  0  0  0  0  0  0
  151.7885  140.1123  180.7947 C   0  0  0  0  0  0  0  0  0  0  0  0
  150.6772  139.3136  180.9515 C   0  0  0  0  0  0  0  0  0  0  0  0
  149.5620  139.4187  180.1253 O   0  0  0  0  0  0  0  0  0  0  0  0
  150.6670  138.3766  181.9613 C   0  0  0  0  0  0  0  0  0  0  0  0
  151.7254  138.2281  182.7981 C   0  0  0  0  0  0  0  0  0  0  0  0
  152.8448  139.0496  182.6216 C   0  0  0  0  0  0  0  0  0  0  0  0
  151.9244  137.3636  183.8628 C   0  0  0  0  0  0  0  0  0  0  0  0
  151.0123  136.4673  184.2713 N   0  0  0  0  0  0  0  0  0  0  0  0
  149.7494  136.2373  183.9880 C   0  0  0  0  0  0  0  0  0  0  0  0
  149.0546  136.8240  182.9718 N   0  0  0  0  0  0  0  0  0  0  0  0
  149.4922  137.6596  181.9886 C   0  0  0  0  0  0  0  0  0  0  0  0
  148.7199  137.7726  181.0065 O   0  0  0  0  0  0  0  0  0  0  0  0
  149.5750  140.1173  179.3760 H   0  0  0  0  0  0  0  0  0  0  0  0
  149.0180  135.3371  184.7480 N   0  0  0  0  0  0  0  0  0  0  0  0
  148.2900  134.7592  184.1839 H   0  0  0  0  0  0  0  0  0  0  0  0
  149.0955  135.0684  186.1397 C   0  0  0  0  0  0  0  0  0  0  0  0
  148.4286  135.9381  187.0150 C   0  0  0  0  0  0  0  0  0  0  0  0
  148.4392  135.7319  188.3702 C   0  0  0  0  0  0  0  0  0  0  0  0
  149.1062  134.6561  188.9648 C   0  0  0  0  0  0  0  0  0  0  0  0
  149.7551  133.8094  188.1154 C   0  0  0  0  0  0  0  0  0  0  0  0
  149.7443  134.0204  186.7200 C   0  0  0  0  0  0  0  0  0  0  0  0
  149.0643  134.5343  190.3739 N   0  0  0  0  0  0  0  0  0  0  0  0
  149.8052  135.2066  191.3379 C   0  0  0  0  0  0  0  0  0  0  0  0
  150.6627  136.0625  191.0466 O   0  0  0  0  0  0  0  0  0  0  0  0
  149.6072  134.9370  192.7132 N   0  0  0  0  0  0  0  0  0  0  0  0
  148.6273  133.9548  193.1062 C   0  0  0  0  0  0  0  0  0  0  0  0
  150.3608  135.6199  193.7323 C   0  0  0  0  0  0  0  0  0  0  0  0
  148.3567  133.8208  190.7753 H   0  0  0  0  0  0  0  0  0  0  0  0
  153.9789  140.8178  181.4271 O   0  0  0  0  0  0  0  0  0  0  0  0
  154.0272  142.8083  182.7399 C   0  0  0  0  0  0  0  0  0  0  0  0
  154.7067  141.5263  182.3674 C   0  0  0  0  0  0  0  0  0  0  0  0
 31 32  1  0  0  0
 32 30  1  0  0  0
 30  1  1  0  0  0
  1  2  2  0  0  0
  2  3  1  0  0  0
  3  4  1  0  0  0
  3  5  2  0  0  0
  5  6  1  0  0  0
  6  7  2  0  0  0
  6  8  1  0  0  0
  8  9  2  0  0  0
  9 10  1  0  0  0
 10 15  1  0  0  0
 15 17  1  0  0  0
 17 18  2  0  0  0
 18 19  1  0  0  0
 19 20  2  0  0  0
 20 23  1  0  0  0
 23 24  1  0  0  0
 24 25  2  0  0  0
 24 26  1  0  0  0
 26 27  1  0  0  0
 26 28  1  0  0  0
 20 21  1  0  0  0
 21 22  2  0  0  0
 10 11  2  0  0  0
 11 12  1  0  0  0
 12 13  2  0  0  0
  7  1  1  0  0  0
 22 17  1  0  0  0
 12  5  1  0  0  0
  4 14  1  0  0  0
 15 16  1  0  0  0
 23 29  1  0  0  0
M  END
> <minimizedAffinity>
-5.55594

> <CNNscore>
0.2587675154

> <CNNaffinity>
5.3353967667

> <CNN_VS>
1.3806273937

> <CNNaffinity_variance>
0.3045039177

$$$$
[H]Oc1c([H])c(OC([H])([H])C([H])([H])[H])c([H])c2c([H])nc(N([H])c3c([H])c([H])c(N([H])C(=O)N(C([H])([H])[H])C([H])([H])[H])c([H])c3[H])nc(=O)c12


 32 34  0  0  0  0  0  0  0  0999 V2000
  154.3863  141.2219  182.8775 C   0  0  0  0  0  0  0  0  0  0  0  0
  153.3802  141.0229  181.9248 C   0  0  0  0  0  0  0  0  0  0  0  0
  152.6474  139.8574  181.8814 C   0  0  0  0  0  0  0  0  0  0  0  0
  151.6438  139.6434  180.9409 O   0  0  0  0  0  0  0  0  0  0  0  0
  152.9154  138.8669  182.8005 C   0  0  0  0  0  0  0  0  0  0  0  0
  153.8823  139.0187  183.7411 C   0  0  0  0  0  0  0  0  0  0  0  0
  154.6155  140.2106  183.7679 C   0  0  0  0  0  0  0  0  0  0  0  0
  154.3113  138.1656  184.7453 C   0  0  0  0  0  0  0  0  0  0  0  0
  153.7795  136.9530  184.9663 N   0  0  0  0  0  0  0  0  0  0  0  0
  152.7250  136.3091  184.5173 C   0  0  0  0  0  0  0  0  0  0  0  0
  151.9407  136.7173  183.4790 N   0  0  0  0  0  0  0  0  0  0  0  0
  152.1030  137.7690  182.6283 C   0  0  0  0  0  0  0  0  0  0  0  0
  151.4247  137.7080  181.5748 O   0  0  0  0  0  0  0  0  0  0  0  0
  151.4487  140.3834  180.2598 H   0  0  0  0  0  0  0  0  0  0  0  0
  152.3338  135.1167  185.1072 N   0  0  0  0  0  0  0  0  0  0  0  0
  152.3793  134.2528  184.4486 H   0  0  0  0  0  0  0  0  0  0  0  0
  151.8957  134.8752  186.4356 C   0  0  0  0  0  0  0  0  0  0  0  0
  152.8709  134.6526  187.4189 C   0  0  0  0  0  0  0  0  0  0  0  0
  152.5266  134.4341  188.7276 C   0  0  0  0  0  0  0  0  0  0  0  0
  151.1988  134.4179  189.1663 C   0  0  0  0  0  0  0  0  0  0  0  0
  150.2493  134.6342  188.2117 C   0  0  0  0  0  0  0  0  0  0  0  0
  150.6026  134.8599  186.8641 C   0  0  0  0  0  0  0  0  0  0  0  0
  150.9460  134.1761  190.5374 N   0  0  0  0  0  0  0  0  0  0  0  0
  150.5246  135.0590  191.5238 C   0  0  0  0  0  0  0  0  0  0  0  0
  150.3051  136.2639  191.2943 O   0  0  0  0  0  0  0  0  0  0  0  0
  150.3258  134.6108  192.8515 N   0  0  0  0  0  0  0  0  0  0  0  0
  150.5658  133.2257  193.1726 C   0  0  0  0  0  0  0  0  0  0  0  0
  149.8887  135.5044  193.8923 C   0  0  0  0  0  0  0  0  0  0  0  0
  151.0952  133.1618  190.8835 H   0  0  0  0  0  0  0  0  0  0  0  0
  155.0818  142.4047  182.8688 O   0  0  0  0  0  0  0  0  0  0  0  0
  156.5349  144.1418  182.1212 C   0  0  0  0  0  0  0  0  0  0  0  0
  156.3093  142.6702  182.2869 C   0  0  0  0  0  0  0  0  0  0  0  0
 31 32  1  0  0  0
 32 30  1  0  0  0
 30  1  1  0  0  0
  1  2  2  0  0  0
  2  3  1  0  0  0
  3  4  1  0  0  0
  3  5  2  0  0  0
  5  6  1  0  0  0
  6  7  2  0  0  0
  6  8  1  0  0  0
  8  9  2  0  0  0
  9 10  1  0  0  0
 10 15  1  0  0  0
 15 17  1  0  0  0
 17 18  2  0  0  0
 18 19  1  0  0  0
 19 20  2  0  0  0
 20 23  1  0  0  0
 23 24  1  0  0  0
 24 25  2  0  0  0
 24 26  1  0  0  0
 26 27  1  0  0  0
 26 28  1  0  0  0
 20 21  1  0  0  0
 21 22  2  0  0  0
 10 11  2  0  0  0
 11 12  1  0  0  0
 12 13  2  0  0  0
  7  1  1  0  0  0
 22 17  1  0  0  0
 12  5  1  0  0  0
  4 14  1  0  0  0
 15 16  1  0  0  0
 23 29  1  0  0  0
M  END
> <minimizedAffinity>
-5.49175

> <CNNscore>
0.2145258039

> <CNNaffinity>
5.4348993301

> <CNN_VS>
1.1659260988

> <CNNaffinity_variance>
0.4184227586

$$$$
[H]Oc1c([H])c(OC([H])([H])C([H])([H])[H])c([H])c2c([H])nc(N([H])c3c([H])c([H])c(N([H])C(=O)N(C([H])([H])[H])C([H])([H])[H])c([H])c3[H])nc(=O)c12


 32 34  0  0  0  0  0  0  0  0999 V2000
  149.0755  135.8563  181.2840 C   0  0  0  0  0  0  0  0  0  0  0  0
  149.7126  135.5003  182.4786 C   0  0  0  0  0  0  0  0  0  0  0  0
  150.7671  136.2311  182.9799 C   0  0  0  0  0  0  0  0  0  0  0  0
  151.4116  135.8911  184.1658 O   0  0  0  0  0  0  0  0  0  0  0  0
  151.2011  137.3383  182.2845 C   0  0  0  0  0  0  0  0  0  0  0  0
  150.6117  137.7185  181.1223 C   0  0  0  0  0  0  0  0  0  0  0  0
  149.5418  136.9622  180.6301 C   0  0  0  0  0  0  0  0  0  0  0  0
  150.8828  138.7802  180.2740 C   0  0  0  0  0  0  0  0  0  0  0  0
  151.8515  139.6817  180.4996 N   0  0  0  0  0  0  0  0  0  0  0  0
  152.6421  139.9564  181.5133 C   0  0  0  0  0  0  0  0  0  0  0  0
  152.7828  139.1852  182.6291 N   0  0  0  0  0  0  0  0  0  0  0  0
  152.2579  137.9597  182.9105 C   0  0  0  0  0  0  0  0  0  0  0  0
  152.8178  137.3467  183.8510 O   0  0  0  0  0  0  0  0  0  0  0  0
  151.0847  135.0668  184.6789 H   0  0  0  0  0  0  0  0  0  0  0  0
  153.4168  141.1064  181.5005 N   0  0  0  0  0  0  0  0  0  0  0  0
  153.0954  141.8575  180.7830 H   0  0  0  0  0  0  0  0  0  0  0  0
  154.5505  141.4323  182.2902 C   0  0  0  0  0  0  0  0  0  0  0  0
  155.2493  140.3812  182.9019 C   0  0  0  0  0  0  0  0  0  0  0  0
  156.3662  140.6147  183.6616 C   0  0  0  0  0  0  0  0  0  0  0  0
  156.8784  141.8982  183.8761 C   0  0  0  0  0  0  0  0  0  0  0  0
  156.2004  142.9214  183.2820 C   0  0  0  0  0  0  0  0  0  0  0  0
  155.0508  142.6821  182.4993 C   0  0  0  0  0  0  0  0  0  0  0  0
  158.0329  142.0358  184.6826 N   0  0  0  0  0  0  0  0  0  0  0  0
  159.3671  142.1154  184.3033 C   0  0  0  0  0  0  0  0  0  0  0  0
  159.7282  142.0690  183.1117 O   0  0  0  0  0  0  0  0  0  0  0  0
  160.3837  142.2551  185.2782 N   0  0  0  0  0  0  0  0  0  0  0  0
  160.0215  142.3135  186.6727 C   0  0  0  0  0  0  0  0  0  0  0  0
  161.7736  142.3408  184.9123 C   0  0  0  0  0  0  0  0  0  0  0  0
  157.8709  142.0910  185.7510 H   0  0  0  0  0  0  0  0  0  0  0  0
  148.0308  135.0876  180.8363 O   0  0  0  0  0  0  0  0  0  0  0  0
  148.7082  133.5669  179.1284 C   0  0  0  0  0  0  0  0  0  0  0  0
  148.0494  133.7555  180.4605 C   0  0  0  0  0  0  0  0  0  0  0  0
 31 32  1  0  0  0
 32 30  1  0  0  0
 30  1  1  0  0  0
  1  2  2  0  0  0
  2  3  1  0  0  0
  3  4  1  0  0  0
  3  5  2  0  0  0
  5  6  1  0  0  0
  6  7  2  0  0  0
  6  8  1  0  0  0
  8  9  2  0  0  0
  9 10  1  0  0  0
 10 15  1  0  0  0
 15 17  1  0  0  0
 17 18  2  0  0  0
 18 19  1  0  0  0
 19 20  2  0  0  0
 20 23  1  0  0  0
 23 24  1  0  0  0
 24 25  2  0  0  0
 24 26  1  0  0  0
 26 27  1  0  0  0
 26 28  1  0  0  0
 20 21  1  0  0  0
 21 22  2  0  0  0
 10 11  2  0  0  0
 11 12  1  0  0  0
 12 13  2  0  0  0
  7  1  1  0  0  0
 22 17  1  0  0  0
 12  5  1  0  0  0
  4 14  1  0  0  0
 15 16  1  0  0  0
 23 29  1  0  0  0
M  END
> <minimizedAffinity>
-6.66002

> <CNNscore>
0.1675714105

> <CNNaffinity>
5.5272345543

> <CNN_VS>
0.9262064695

> <CNNaffinity_variance>
0.0977511555

$$$$
[H]Oc1c([H])c(OC([H])([H])C([H])([H])[H])c([H])c2c([H])nc(N([H])c3c([H])c([H])c(N([H])C(=O)N(C([H])([H])[H])C([H])([H])[H])c([H])c3[H])nc(=O)c12


 32 34  0  0  0  0  0  0  0  0999 V2000
  150.8837  136.1524  192.1985 C   0  0  0  0  0  0  0  0  0  0  0  0
  152.0835  136.8019  192.5115 C   0  0  0  0  0  0  0  0  0  0  0  0
  153.0027  137.1286  191.5389 C   0  0  0  0  0  0  0  0  0  0  0  0
  154.2002  137.7742  191.8327 O   0  0  0  0  0  0  0  0  0  0  0  0
  152.7290  136.8058  190.2279 C   0  0  0  0  0  0  0  0  0  0  0  0
  151.5777  136.1760  189.8808 C   0  0  0  0  0  0  0  0  0  0  0  0
  150.6572  135.8528  190.8844 C   0  0  0  0  0  0  0  0  0  0  0  0
  151.1075  135.7644  188.6440 C   0  0  0  0  0  0  0  0  0  0  0  0
  151.7764  135.9532  187.4955 N   0  0  0  0  0  0  0  0  0  0  0  0
  152.8451  136.6355  187.1483 C   0  0  0  0  0  0  0  0  0  0  0  0
  153.7069  137.2376  188.0169 N   0  0  0  0  0  0  0  0  0  0  0  0
  153.7395  137.1957  189.3783 C   0  0  0  0  0  0  0  0  0  0  0  0
  154.8242  137.5583  189.8938 O   0  0  0  0  0  0  0  0  0  0  0  0
  154.3986  138.0119  192.8094 H   0  0  0  0  0  0  0  0  0  0  0  0
  153.1700  136.7868  185.8088 N   0  0  0  0  0  0  0  0  0  0  0  0
  152.7863  136.0021  185.1614 H   0  0  0  0  0  0  0  0  0  0  0  0
  153.9183  137.8153  185.1786 C   0  0  0  0  0  0  0  0  0  0  0  0
  155.1460  138.1795  185.7507 C   0  0  0  0  0  0  0  0  0  0  0  0
  155.9353  139.1486  185.1876 C   0  0  0  0  0  0  0  0  0  0  0  0
  155.5760  139.8313  184.0211 C   0  0  0  0  0  0  0  0  0  0  0  0
  154.3826  139.4784  183.4634 C   0  0  0  0  0  0  0  0  0  0  0  0
  153.5696  138.4804  184.0419 C   0  0  0  0  0  0  0  0  0  0  0  0
  156.4559  140.8208  183.5224 N   0  0  0  0  0  0  0  0  0  0  0  0
  156.1822  142.1252  183.1304 C   0  0  0  0  0  0  0  0  0  0  0  0
  155.0356  142.6111  183.1755 O   0  0  0  0  0  0  0  0  0  0  0  0
  157.2181  142.9650  182.6563 N   0  0  0  0  0  0  0  0  0  0  0  0
  158.5642  142.4531  182.5829 C   0  0  0  0  0  0  0  0  0  0  0  0
  156.9619  144.3207  182.2447 C   0  0  0  0  0  0  0  0  0  0  0  0
  157.4962  140.5380  183.4291 H   0  0  0  0  0  0  0  0  0  0  0  0
  150.0088  135.8532  193.2123 O   0  0  0  0  0  0  0  0  0  0  0  0
  150.1781  134.1060  194.8268 C   0  0  0  0  0  0  0  0  0  0  0  0
  149.5191  134.6119  193.5802 C   0  0  0  0  0  0  0  0  0  0  0  0
 31 32  1  0  0  0
 32 30  1  0  0  0
 30  1  1  0  0  0
  1  2  2  0  0  0
  2  3  1  0  0  0
  3  4  1  0  0  0
  3  5  2  0  0  0
  5  6  1  0  0  0
  6  7  2  0  0  0
  6  8  1  0  0  0
  8  9  2  0  0  0
  9 10  1  0  0  0
 10 15  1  0  0  0
 15 17  1  0  0  0
 17 18  2  0  0  0
 18 19  1  0  0  0
 19 20  2  0  0  0
 20 23  1  0  0  0
 23 24  1  0  0  0
 24 25  2  0  0  0
 24 26  1  0  0  0
 26 27  1  0  0  0
 26 28  1  0  0  0
 20 21  1  0  0  0
 21 22  2  0  0  0
 10 11  2  0  0  0
 11 12  1  0  0  0
 12 13  2  0  0  0
  7  1  1  0  0  0
 22 17  1  0  0  0
 12  5  1  0  0  0
  4 14  1  0  0  0
 15 16  1  0  0  0
 23 29  1  0  0  0
M  END
> <minimizedAffinity>
-6.72729

> <CNNscore>
0.1654258221

> <CNNaffinity>
5.3496212959

> <CNN_VS>
0.8849654794

> <CNNaffinity_variance>
0.0191789921

$$$$
[H]Oc1c([H])c(OC([H])([H])C([H])([H])[H])c([H])c2c([H])nc(N([H])c3c([H])c([H])c(N([H])C(=O)N(C([H])([H])[H])C([H])([H])[H])c([H])c3[H])nc(=O)c12


 32 34  0  0  0  0  0  0  0  0999 V2000
  160.4972  143.0327  184.9088 C   0  0  0  0  0  0  0  0  0  0  0  0
  160.2041  143.8353  183.8001 C   0  0  0  0  0  0  0  0  0  0  0  0
  159.1150  143.5844  182.9949 C   0  0  0  0  0  0  0  0  0  0  0  0
  158.8092  144.3722  181.8890 O   0  0  0  0  0  0  0  0  0  0  0  0
  158.2978  142.5161  183.2929 C   0  0  0  0  0  0  0  0  0  0  0  0
  158.5458  141.7125  184.3585 C   0  0  0  0  0  0  0  0  0  0  0  0
  159.6577  141.9847  185.1638 C   0  0  0  0  0  0  0  0  0  0  0  0
  157.8661  140.6022  184.8336 C   0  0  0  0  0  0  0  0  0  0  0  0
  156.7515  140.1154  184.2655 N   0  0  0  0  0  0  0  0  0  0  0  0
  155.9307  140.5358  183.3287 C   0  0  0  0  0  0  0  0  0  0  0  0
  156.1527  141.6076  182.5154 N   0  0  0  0  0  0  0  0  0  0  0  0
  157.2572  142.3969  182.3997 C   0  0  0  0  0  0  0  0  0  0  0  0
  157.3099  143.0842  181.3516 O   0  0  0  0  0  0  0  0  0  0  0  0
  159.4203  145.1654  181.6720 H   0  0  0  0  0  0  0  0  0  0  0  0
  154.7317  139.8758  183.1059 N   0  0  0  0  0  0  0  0  0  0  0  0
  154.3210  140.0134  182.1086 H   0  0  0  0  0  0  0  0  0  0  0  0
  153.9842  139.0526  183.9882 C   0  0  0  0  0  0  0  0  0  0  0  0
  153.1479  138.0767  183.4264 C   0  0  0  0  0  0  0  0  0  0  0  0
  152.4117  137.2298  184.2137 C   0  0  0  0  0  0  0  0  0  0  0  0
  152.4429  137.2798  185.6110 C   0  0  0  0  0  0  0  0  0  0  0  0
  153.2555  138.2279  186.1590 C   0  0  0  0  0  0  0  0  0  0  0  0
  154.0144  139.0999  185.3494 C   0  0  0  0  0  0  0  0  0  0  0  0
  151.6402  136.3668  186.3350 N   0  0  0  0  0  0  0  0  0  0  0  0
  150.3103  136.4782  186.7210 C   0  0  0  0  0  0  0  0  0  0  0  0
  149.6169  137.4781  186.4527 O   0  0  0  0  0  0  0  0  0  0  0  0
  149.6838  135.4376  187.4476 N   0  0  0  0  0  0  0  0  0  0  0  0
  150.4405  134.2575  187.7854 C   0  0  0  0  0  0  0  0  0  0  0  0
  148.3069  135.5271  187.8590 C   0  0  0  0  0  0  0  0  0  0  0  0
  152.1144  135.4423  186.6372 H   0  0  0  0  0  0  0  0  0  0  0  0
  161.5971  143.3338  185.6719 O   0  0  0  0  0  0  0  0  0  0  0  0
  163.1984  142.6411  187.2979 C   0  0  0  0  0  0  0  0  0  0  0  0
  161.7959  143.0878  187.0194 C   0  0  0  0  0  0  0  0  0  0  0  0
 31 32  1  0  0  0
 32 30  1  0  0  0
 30  1  1  0  0  0
  1  2  2  0  0  0
  2  3  1  0  0  0
  3  4  1  0  0  0
  3  5  2  0  0  0
  5  6  1  0  0  0
  6  7  2  0  0  0
  6  8  1  0  0  0
  8  9  2  0  0  0
  9 10  1  0  0  0
 10 15  1  0  0  0
 15 17  1  0  0  0
 17 18  2  0  0  0
 18 19  1  0  0  0
 19 20  2  0  0  0
 20 23  1  0  0  0
 23 24  1  0  0  0
 24 25  2  0  0  0
 24 26  1  0  0  0
 26 27  1  0  0  0
 26 28  1  0  0  0
 20 21  1  0  0  0
 21 22  2  0  0  0
 10 11  2  0  0  0
 11 12  1  0  0  0
 12 13  2  0  0  0
  7  1  1  0  0  0
 22 17  1  0  0  0
 12  5  1  0  0  0
  4 14  1  0  0  0
 15 16  1  0  0  0
 23 29  1  0  0  0
M  END
> <minimizedAffinity>
-7.95922

> <CNNscore>
0.1600508839

> <CNNaffinity>
5.8852834702

> <CNN_VS>
0.9419448376

> <CNNaffinity_variance>
0.0285036862

$$$$
[H]Oc1c([H])c(OC([H])([H])C([H])([H])[H])c([H])c2c([H])nc(N([H])c3c([H])c([H])c(N([H])C(=O)N(C([H])([H])[H])C([H])([H])[H])c([H])c3[H])nc(=O)c12


 32 34  0  0  0  0  0  0  0  0999 V2000
  149.9858  137.2995  181.0368 C   0  0  0  0  0  0  0  0  0  0  0  0
  150.5150  136.6062  182.1317 C   0  0  0  0  0  0  0  0  0  0  0  0
  151.5843  137.0965  182.8484 C   0  0  0  0  0  0  0  0  0  0  0  0
  152.1226  136.4202  183.9393 O   0  0  0  0  0  0  0  0  0  0  0  0
  152.1426  138.2990  182.4738 C   0  0  0  0  0  0  0  0  0  0  0  0
  151.6605  139.0036  181.4185 C   0  0  0  0  0  0  0  0  0  0  0  0
  150.5734  138.4877  180.7036 C   0  0  0  0  0  0  0  0  0  0  0  0
  152.0633  140.2139  180.8772 C   0  0  0  0  0  0  0  0  0  0  0  0
  153.0778  140.9445  181.3662 N   0  0  0  0  0  0  0  0  0  0  0  0
  153.8176  140.8913  182.4515 C   0  0  0  0  0  0  0  0  0  0  0  0
  153.8278  139.8596  183.3433 N   0  0  0  0  0  0  0  0  0  0  0  0
  153.1980  138.6529  183.2836 C   0  0  0  0  0  0  0  0  0  0  0  0
  153.6485  137.7808  184.0648 O   0  0  0  0  0  0  0  0  0  0  0  0
  151.7035  135.5264  184.2134 H   0  0  0  0  0  0  0  0  0  0  0  0
  154.6729  141.9373  182.7634 N   0  0  0  0  0  0  0  0  0  0  0  0
  154.2383  142.9261  182.6390 H   0  0  0  0  0  0  0  0  0  0  0  0
  156.0153  141.8910  183.2224 C   0  0  0  0  0  0  0  0  0  0  0  0
  156.9131  142.8470  182.7250 C   0  0  0  0  0  0  0  0  0  0  0  0
  158.2200  142.8801  183.1372 C   0  0  0  0  0  0  0  0  0  0  0  0
  158.7409  141.9759  184.0684 C   0  0  0  0  0  0  0  0  0  0  0  0
  157.8694  141.0457  184.5532 C   0  0  0  0  0  0  0  0  0  0  0  0
  156.5236  141.0112  184.1299 C   0  0  0  0  0  0  0  0  0  0  0  0
  160.1059  142.0877  184.4240 N   0  0  0  0  0  0  0  0  0  0  0  0
  160.6719  142.4363  185.6439 C   0  0  0  0  0  0  0  0  0  0  0  0
  159.9848  142.7148  186.6454 O   0  0  0  0  0  0  0  0  0  0  0  0
  162.0782  142.4881  185.7944 N   0  0  0  0  0  0  0  0  0  0  0  0
  162.9211  142.1757  184.6669 C   0  0  0  0  0  0  0  0  0  0  0  0
  162.6906  142.8454  187.0476 C   0  0  0  0  0  0  0  0  0  0  0  0
  160.8260  141.8714  183.6459 H   0  0  0  0  0  0  0  0  0  0  0  0
  148.9200  136.7585  180.3629 O   0  0  0  0  0  0  0  0  0  0  0  0
  147.2027  138.0571  179.3372 C   0  0  0  0  0  0  0  0  0  0  0  0
  148.3847  137.1561  179.1500 C   0  0  0  0  0  0  0  0  0  0  0  0
 31 32  1  0  0  0
 32 30  1  0  0  0
 30  1  1  0  0  0
  1  2  2  0  0  0
  2  3  1  0  0  0
  3  4  1  0  0  0
  3  5  2  0  0  0
  5  6  1  0  0  0
  6  7  2  0  0  0
  6  8  1  0  0  0
  8  9  2  0  0  0
  9 10  1  0  0  0
 10 15  1  0  0  0
 15 17  1  0  0  0
 17 18  2  0  0  0
 18 19  1  0  0  0
 19 20  2  0  0  0
 20 23  1  0  0  0
 23 24  1  0  0  0
 24 25  2  0  0  0
 24 26  1  0  0  0
 26 27  1  0  0  0
 26 28  1  0  0  0
 20 21  1  0  0  0
 21 22  2  0  0  0
 10 11  2  0  0  0
 11 12  1  0  0  0
 12 13  2  0  0  0
  7  1  1  0  0  0
 22 17  1  0  0  0
 12  5  1  0  0  0
  4 14  1  0  0  0
 15 16  1  0  0  0
 23 29  1  0  0  0
M  END
> <minimizedAffinity>
-7.74540

> <CNNscore>
0.1485800743

> <CNNaffinity>
5.7406435013

> <CNN_VS>
0.8529452085

> <CNNaffinity_variance>
0.0404304005

$$$$
[H]Oc1c([H])c(OC([H])([H])C([H])([H])[H])c([H])c2c([H])nc(N([H])c3c([H])c([H])c(N([H])C(=O)N(C([H])([H])[H])C([H])([H])[H])c([H])c3[H])nc(=O)c12


 32 34  0  0  0  0  0  0  0  0999 V2000
  160.1061  142.3197  185.0687 C   0  0  0  0  0  0  0  0  0  0  0  0
  160.2332  143.3132  184.0908 C   0  0  0  0  0  0  0  0  0  0  0  0
  159.2394  143.5476  183.1663 C   0  0  0  0  0  0  0  0  0  0  0  0
  159.3497  144.5311  182.1876 O   0  0  0  0  0  0  0  0  0  0  0  0
  158.0946  142.7825  183.2099 C   0  0  0  0  0  0  0  0  0  0  0  0
  157.9305  141.8089  184.1414 C   0  0  0  0  0  0  0  0  0  0  0  0
  158.9524  141.5868  185.0716 C   0  0  0  0  0  0  0  0  0  0  0  0
  156.8778  140.9355  184.3634 C   0  0  0  0  0  0  0  0  0  0  0  0
  155.7536  140.9267  183.6297 N   0  0  0  0  0  0  0  0  0  0  0  0
  155.2414  141.7161  182.7118 C   0  0  0  0  0  0  0  0  0  0  0  0
  155.8977  142.7505  182.1127 N   0  0  0  0  0  0  0  0  0  0  0  0
  157.1998  143.1354  182.2252 C   0  0  0  0  0  0  0  0  0  0  0  0
  157.6073  143.8982  181.3164 O   0  0  0  0  0  0  0  0  0  0  0  0
  160.2032  145.0971  182.1598 H   0  0  0  0  0  0  0  0  0  0  0  0
  153.9369  141.5281  182.2808 N   0  0  0  0  0  0  0  0  0  0  0  0
  153.4160  142.4434  182.0105 H   0  0  0  0  0  0  0  0  0  0  0  0
  153.2044  140.3203  182.1407 C   0  0  0  0  0  0  0  0  0  0  0  0
  152.4367  140.1483  180.9795 C   0  0  0  0  0  0  0  0  0  0  0  0
  151.7197  139.0002  180.7626 C   0  0  0  0  0  0  0  0  0  0  0  0
  151.7042  137.9370  181.6709 C   0  0  0  0  0  0  0  0  0  0  0  0
  152.4500  138.1024  182.8005 C   0  0  0  0  0  0  0  0  0  0  0  0
  153.1891  139.2836  183.0245 C   0  0  0  0  0  0  0  0  0  0  0  0
  150.9261  136.7970  181.3592 N   0  0  0  0  0  0  0  0  0  0  0  0
  149.5623  136.5901  181.5246 C   0  0  0  0  0  0  0  0  0  0  0  0
  148.8077  137.4559  182.0078 O   0  0  0  0  0  0  0  0  0  0  0  0
  148.9704  135.3628  181.1416 N   0  0  0  0  0  0  0  0  0  0  0  0
  149.7980  134.3255  180.5772 C   0  0  0  0  0  0  0  0  0  0  0  0
  147.5598  135.1228  181.3013 C   0  0  0  0  0  0  0  0  0  0  0  0
  151.4534  135.9570  180.9264 H   0  0  0  0  0  0  0  0  0  0  0  0
  161.1315  142.1343  185.9613 O   0  0  0  0  0  0  0  0  0  0  0  0
  163.0165  142.5673  187.3569 C   0  0  0  0  0  0  0  0  0  0  0  0
  161.7269  143.0729  186.7862 C   0  0  0  0  0  0  0  0  0  0  0  0
 31 32  1  0  0  0
 32 30  1  0  0  0
 30  1  1  0  0  0
  1  2  2  0  0  0
  2  3  1  0  0  0
  3  4  1  0  0  0
  3  5  2  0  0  0
  5  6  1  0  0  0
  6  7  2  0  0  0
  6  8  1  0  0  0
  8  9  2  0  0  0
  9 10  1  0  0  0
 10 15  1  0  0  0
 15 17  1  0  0  0
 17 18  2  0  0  0
 18 19  1  0  0  0
 19 20  2  0  0  0
 20 23  1  0  0  0
 23 24  1  0  0  0
 24 25  2  0  0  0
 24 26  1  0  0  0
 26 27  1  0  0  0
 26 28  1  0  0  0
 20 21  1  0  0  0
 21 22  2  0  0  0
 10 11  2  0  0  0
 11 12  1  0  0  0
 12 13  2  0  0  0
  7  1  1  0  0  0
 22 17  1  0  0  0
 12  5  1  0  0  0
  4 14  1  0  0  0
 15 16  1  0  0  0
 23 29  1  0  0  0
M  END
> <minimizedAffinity>
-8.36496

> <CNNscore>
0.1483073384

> <CNNaffinity>
5.8915424347

> <CNN_VS>
0.8737589717

> <CNNaffinity_variance>
0.0306291189

$$$$
[H]Oc1c([H])c(OC([H])([H])C([H])([H])[H])c([H])c2c([H])nc(N([H])c3c([H])c([H])c(N([H])C(=O)N(C([H])([H])[H])C([H])([H])[H])c([H])c3[H])nc(=O)c12


 32 34  0  0  0  0  0  0  0  0999 V2000
  160.3047  142.3739  184.9307 C   0  0  0  0  0  0  0  0  0  0  0  0
  160.2430  143.3437  183.9232 C   0  0  0  0  0  0  0  0  0  0  0  0
  159.1372  143.4728  183.1122 C   0  0  0  0  0  0  0  0  0  0  0  0
  159.0594  144.4314  182.1060 O   0  0  0  0  0  0  0  0  0  0  0  0
  158.0688  142.6240  183.3017 C   0  0  0  0  0  0  0  0  0  0  0  0
  158.0872  141.6697  184.2669 C   0  0  0  0  0  0  0  0  0  0  0  0
  159.2205  141.5552  185.0802 C   0  0  0  0  0  0  0  0  0  0  0  0
  157.1384  140.7255  184.6256 C   0  0  0  0  0  0  0  0  0  0  0  0
  155.9440  140.6081  184.0242 N   0  0  0  0  0  0  0  0  0  0  0  0
  155.2719  141.3275  183.1531 C   0  0  0  0  0  0  0  0  0  0  0  0
  155.7731  142.3903  182.4611 N   0  0  0  0  0  0  0  0  0  0  0  0
  157.0449  142.8770  182.4171 C   0  0  0  0  0  0  0  0  0  0  0  0
  157.2870  143.6405  181.4516 O   0  0  0  0  0  0  0  0  0  0  0  0
  159.8569  145.0600  181.9694 H   0  0  0  0  0  0  0  0  0  0  0  0
  153.9466  141.0270  182.8766 N   0  0  0  0  0  0  0  0  0  0  0  0
  153.2774  141.8837  182.8970 H   0  0  0  0  0  0  0  0  0  0  0  0
  153.3572  139.7729  182.5689 C   0  0  0  0  0  0  0  0  0  0  0  0
  153.5099  138.7303  183.4947 C   0  0  0  0  0  0  0  0  0  0  0  0
  152.9513  137.4973  183.2783 C   0  0  0  0  0  0  0  0  0  0  0  0
  152.2018  137.1981  182.1361 C   0  0  0  0  0  0  0  0  0  0  0  0
  152.0522  138.2106  181.2349 C   0  0  0  0  0  0  0  0  0  0  0  0
  152.6264  139.4805  181.4570 C   0  0  0  0  0  0  0  0  0  0  0  0
  151.6728  135.8927  182.0013 N   0  0  0  0  0  0  0  0  0  0  0  0
  152.2910  134.7353  181.5447 C   0  0  0  0  0  0  0  0  0  0  0  0
  153.4790  134.7144  181.1695 O   0  0  0  0  0  0  0  0  0  0  0  0
  151.5775  133.5142  181.4890 N   0  0  0  0  0  0  0  0  0  0  0  0
  150.1990  133.4819  181.9109 C   0  0  0  0  0  0  0  0  0  0  0  0
  152.1943  132.3004  181.0210 C   0  0  0  0  0  0  0  0  0  0  0  0
  150.6397  135.7586  182.2940 H   0  0  0  0  0  0  0  0  0  0  0  0
  161.4345  142.2950  185.7054 O   0  0  0  0  0  0  0  0  0  0  0  0
  163.0911  142.6518  187.3836 C   0  0  0  0  0  0  0  0  0  0  0  0
  161.7592  143.0455  186.8221 C   0  0  0  0  0  0  0  0  0  0  0  0
 31 32  1  0  0  0
 32 30  1  0  0  0
 30  1  1  0  0  0
  1  2  2  0  0  0
  2  3  1  0  0  0
  3  4  1  0  0  0
  3  5  2  0  0  0
  5  6  1  0  0  0
  6  7  2  0  0  0
  6  8  1  0  0  0
  8  9  2  0  0  0
  9 10  1  0  0  0
 10 15  1  0  0  0
 15 17  1  0  0  0
 17 18  2  0  0  0
 18 19  1  0  0  0
 19 20  2  0  0  0
 20 23  1  0  0  0
 23 24  1  0  0  0
 24 25  2  0  0  0
 24 26  1  0  0  0
 26 27  1  0  0  0
 26 28  1  0  0  0
 20 21  1  0  0  0
 21 22  2  0  0  0
 10 11  2  0  0  0
 11 12  1  0  0  0
 12 13  2  0  0  0
  7  1  1  0  0  0
 22 17  1  0  0  0
 12  5  1  0  0  0
  4 14  1  0  0  0
 15 16  1  0  0  0
 23 29  1  0  0  0
M  END
> <minimizedAffinity>
-8.16707

> <CNNscore>
0.1457226425

> <CNNaffinity>
5.9541802406

> <CNN_VS>
0.8676588535

> <CNNaffinity_variance>
0.0431446359

$$$$
[H]Oc1c([H])c(OC([H])([H])C([H])([H])[H])c([H])c2c([H])nc(N([H])c3c([H])c([H])c(N([H])C(=O)N(C([H])([H])[H])C([H])([H])[H])c([H])c3[H])nc(=O)c12


 32 34  0  0  0  0  0  0  0  0999 V2000
  152.6044  136.5282  191.4821 C   0  0  0  0  0  0  0  0  0  0  0  0
  153.8423  137.1394  191.7135 C   0  0  0  0  0  0  0  0  0  0  0  0
  154.6150  137.6195  190.6792 C   0  0  0  0  0  0  0  0  0  0  0  0
  155.8478  138.2296  190.8917 O   0  0  0  0  0  0  0  0  0  0  0  0
  154.1532  137.4923  189.3875 C   0  0  0  0  0  0  0  0  0  0  0  0
  152.9587  136.9063  189.1187 C   0  0  0  0  0  0  0  0  0  0  0  0
  152.1890  136.4250  190.1841 C   0  0  0  0  0  0  0  0  0  0  0  0
  152.3123  136.6777  187.9145 C   0  0  0  0  0  0  0  0  0  0  0  0
  152.8110  137.0444  186.7233 N   0  0  0  0  0  0  0  0  0  0  0  0
  153.8245  137.7848  186.3326 C   0  0  0  0  0  0  0  0  0  0  0  0
  154.8073  138.2619  187.1489 N   0  0  0  0  0  0  0  0  0  0  0  0
  155.0346  138.0178  188.4699 C   0  0  0  0  0  0  0  0  0  0  0  0
  156.1851  138.3136  188.8731 O   0  0  0  0  0  0  0  0  0  0  0  0
  156.1864  138.3216  191.8543 H   0  0  0  0  0  0  0  0  0  0  0  0
  153.9550  138.1385  184.9982 N   0  0  0  0  0  0  0  0  0  0  0  0
  153.4250  137.4883  184.3065 H   0  0  0  0  0  0  0  0  0  0  0  0
  154.6705  139.2216  184.4238 C   0  0  0  0  0  0  0  0  0  0  0  0
  156.0658  139.1124  184.3320 C   0  0  0  0  0  0  0  0  0  0  0  0
  156.8232  140.1072  183.7700 C   0  0  0  0  0  0  0  0  0  0  0  0
  156.2652  141.2826  183.2571 C   0  0  0  0  0  0  0  0  0  0  0  0
  154.9086  141.3904  183.3454 C   0  0  0  0  0  0  0  0  0  0  0  0
  154.1279  140.3666  183.9233 C   0  0  0  0  0  0  0  0  0  0  0  0
  157.1328  142.2537  182.7038 N   0  0  0  0  0  0  0  0  0  0  0  0
  157.7231  142.2924  181.4467 C   0  0  0  0  0  0  0  0  0  0  0  0
  157.5419  141.4018  180.5944 O   0  0  0  0  0  0  0  0  0  0  0  0
  158.5686  143.3677  181.0832 N   0  0  0  0  0  0  0  0  0  0  0  0
  158.8133  144.4256  182.0320 C   0  0  0  0  0  0  0  0  0  0  0  0
  159.1921  143.4327  179.7870 C   0  0  0  0  0  0  0  0  0  0  0  0
  157.3805  143.0956  183.3368 H   0  0  0  0  0  0  0  0  0  0  0  0
  151.8817  136.0696  192.5545 O   0  0  0  0  0  0  0  0  0  0  0  0
  151.7409  135.4873  194.8630 C   0  0  0  0  0  0  0  0  0  0  0  0
  151.8461  136.5780  193.8415 C   0  0  0  0  0  0  0  0  0  0  0  0
 31 32  1  0  0  0
 32 30  1  0  0  0
 30  1  1  0  0  0
  1  2  2  0  0  0
  2  3  1  0  0  0
  3  4  1  0  0  0
  3  5  2  0  0  0
  5  6  1  0  0  0
  6  7  2  0  0  0
  6  8  1  0  0  0
  8  9  2  0  0  0
  9 10  1  0  0  0
 10 15  1  0  0  0
 15 17  1  0  0  0
 17 18  2  0  0  0
 18 19  1  0  0  0
 19 20  2  0  0  0
 20 23  1  0  0  0
 23 24  1  0  0  0
 24 25  2  0  0  0
 24 26  1  0  0  0
 26 27  1  0  0  0
 26 28  1  0  0  0
 20 21  1  0  0  0
 21 22  2  0  0  0
 10 11  2  0  0  0
 11 12  1  0  0  0
 12 13  2  0  0  0
  7  1  1  0  0  0
 22 17  1  0  0  0
 12  5  1  0  0  0
  4 14  1  0  0  0
 15 16  1  0  0  0
 23 29  1  0  0  0
M  END
> <minimizedAffinity>
-7.75665

> <CNNscore>
0.1448860317

> <CNNaffinity>
5.4958634377

> <CNN_VS>
0.7962738276

> <CNNaffinity_variance>
0.0175291374

$$$$
[H]Cl.[H]c1nn(C([H])([H])[H])c([H])c1Sc1nc(N([H])C2([H])C([H])([H])C([H])([H])C([H])([H])C([H])([H])C2([H])[H])nc2nc(N([H])[H])nc(-c3c([H])c([H])c(C#N)c([H])c3[H])c12


 36 40  0  0  0  0  0  0  0  0999 V2000
  157.2294  140.0889  184.3703 C   0  0  0  0  0  0  0  0  0  0  0  0
  157.2243  139.3369  185.4995 N   0  0  0  0  0  0  0  0  0  0  0  0
  156.1094  138.7053  185.9492 C   0  0  0  0  0  0  0  0  0  0  0  0
  154.9722  138.8275  185.2566 N   0  0  0  0  0  0  0  0  0  0  0  0
  154.9025  139.5482  184.1432 C   0  0  0  0  0  0  0  0  0  0  0  0
  153.7369  139.6262  183.4678 N   0  0  0  0  0  0  0  0  0  0  0  0
  153.6654  140.3405  182.3360 C   0  0  0  0  0  0  0  0  0  0  0  0
  152.4198  140.3889  181.6573 N   0  0  0  0  0  0  0  0  0  0  0  0
  154.7464  140.9672  181.8916 N   0  0  0  0  0  0  0  0  0  0  0  0
  155.9831  140.9269  182.5434 C   0  0  0  0  0  0  0  0  0  0  0  0
  156.0535  140.2036  183.6770 C   0  0  0  0  0  0  0  0  0  0  0  0
  151.6132  140.8968  182.0519 H   0  0  0  0  0  0  0  0  0  0  0  0
  152.3347  139.8965  180.7486 H   0  0  0  0  0  0  0  0  0  0  0  0
  156.9984  141.7007  181.8862 C   0  0  0  0  0  0  0  0  0  0  0  0
  157.6991  141.1229  180.8660 C   0  0  0  0  0  0  0  0  0  0  0  0
  158.5668  141.8201  180.0534 C   0  0  0  0  0  0  0  0  0  0  0  0
  158.7071  143.1776  180.3182 C   0  0  0  0  0  0  0  0  0  0  0  0
  158.0266  143.8142  181.3313 C   0  0  0  0  0  0  0  0  0  0  0  0
  157.1585  143.0284  182.1175 C   0  0  0  0  0  0  0  0  0  0  0  0
  159.6273  143.8798  179.4525 C   0  0  0  0  0  0  0  0  0  0  0  0
  160.3693  144.4256  178.7395 N   0  0  0  0  0  0  0  0  0  0  0  0
  156.1588  137.8831  187.1026 N   0  0  0  0  0  0  0  0  0  0  0  0
  157.0768  137.6030  187.4919 H   0  0  0  0  0  0  0  0  0  0  0  0
  154.9441  137.4325  187.7187 C   0  0  0  0  0  0  0  0  0  0  0  0
  154.4131  138.5870  188.5441 C   0  0  0  0  0  0  0  0  0  0  0  0
  154.7430  138.3971  189.9890 C   0  0  0  0  0  0  0  0  0  0  0  0
  156.1286  137.8604  190.1441 C   0  0  0  0  0  0  0  0  0  0  0  0
  156.1706  136.4336  189.6540 C   0  0  0  0  0  0  0  0  0  0  0  0
  155.1610  136.1943  188.5475 C   0  0  0  0  0  0  0  0  0  0  0  0
  158.7427  140.8009  183.9146 S   0  0  0  0  0  0  0  0  0  0  0  0
  162.4756  143.0880  186.9691 C   0  0  0  0  0  0  0  0  0  0  0  0
  161.2086  142.5653  186.4560 N   0  0  0  0  0  0  0  0  0  0  0  0
  160.9765  141.9485  185.2889 C   0  0  0  0  0  0  0  0  0  0  0  0
  159.6504  141.6070  185.1984 C   0  0  0  0  0  0  0  0  0  0  0  0
  159.0816  142.0482  186.3717 C   0  0  0  0  0  0  0  0  0  0  0  0
  160.0558  142.6138  187.0886 N   0  0  0  0  0  0  0  0  0  0  0  0
 31 32  1  0  0  0
 32 33  1  0  0  0
 33 34  2  0  0  0
 34 30  1  0  0  0
 30  1  1  0  0  0
  1  2  2  0  0  0
  2  3  1  0  0  0
  3 22  1  0  0  0
 22 24  1  0  0  0
 24 25  1  0  0  0
 25 26  1  0  0  0
 26 27  1  0  0  0
 27 28  1  0  0  0
 28 29  1  0  0  0
  3  4  2  0  0  0
  4  5  1  0  0  0
  5  6  2  0  0  0
  6  7  1  0  0  0
  7  8  1  0  0  0
  7  9  2  0  0  0
  9 10  1  0  0  0
 10 11  2  0  0  0
 10 14  1  0  0  0
 14 15  2  0  0  0
 15 16  1  0  0  0
 16 17  2  0  0  0
 17 18  1  0  0  0
 18 19  2  0  0  0
 17 20  1  0  0  0
 20 21  3  0  0  0
 34 35  1  0  0  0
 35 36  2  0  0  0
 36 32  1  0  0  0
 11  1  1  0  0  0
 19 14  1  0  0  0
 29 24  1  0  0  0
 11  5  1  0  0  0
 22 23  1  0  0  0
  8 12  1  0  0  0
  8 13  1  0  0  0
M  END
> <minimizedAffinity>
-9.65599

> <CNNscore>
0.3785901666

> <CNNaffinity>
7.2102251053

> <CNN_VS>
2.7297203541

> <CNNaffinity_variance>
0.1931153387

$$$$
[H]Cl.[H]c1nn(C([H])([H])[H])c([H])c1Sc1nc(N([H])C2([H])C([H])([H])C([H])([H])C([H])([H])C([H])([H])C2([H])[H])nc2nc(N([H])[H])nc(-c3c([H])c([H])c(C#N)c([H])c3[H])c12


 36 40  0  0  0  0  0  0  0  0999 V2000
  154.4278  134.8842  186.5976 C   0  0  0  0  0  0  0  0  0  0  0  0
  154.4103  134.7120  185.2521 N   0  0  0  0  0  0  0  0  0  0  0  0
  155.2661  133.8725  184.6140 C   0  0  0  0  0  0  0  0  0  0  0  0
  156.1611  133.1894  185.3350 N   0  0  0  0  0  0  0  0  0  0  0  0
  156.2368  133.3087  186.6556 C   0  0  0  0  0  0  0  0  0  0  0  0
  157.1442  132.5838  187.3427 N   0  0  0  0  0  0  0  0  0  0  0  0
  157.2145  132.6901  188.6769 C   0  0  0  0  0  0  0  0  0  0  0  0
  158.1810  131.9038  189.3570 N   0  0  0  0  0  0  0  0  0  0  0  0
  156.3884  133.5123  189.3095 N   0  0  0  0  0  0  0  0  0  0  0  0
  155.4267  134.2906  188.6575 C   0  0  0  0  0  0  0  0  0  0  0  0
  155.3542  134.1773  187.3177 C   0  0  0  0  0  0  0  0  0  0  0  0
  159.1901  132.0991  189.2685 H   0  0  0  0  0  0  0  0  0  0  0  0
  157.8495  131.1193  189.9487 H   0  0  0  0  0  0  0  0  0  0  0  0
  154.6653  135.1194  189.5490 C   0  0  0  0  0  0  0  0  0  0  0  0
  153.5758  134.5782  190.1702 C   0  0  0  0  0  0  0  0  0  0  0  0
  152.8796  135.2190  191.1721 C   0  0  0  0  0  0  0  0  0  0  0  0
  153.3419  136.4774  191.5401 C   0  0  0  0  0  0  0  0  0  0  0  0
  154.4345  137.0722  190.9509 C   0  0  0  0  0  0  0  0  0  0  0  0
  155.0906  136.3498  189.9327 C   0  0  0  0  0  0  0  0  0  0  0  0
  152.5882  137.1254  192.5895 C   0  0  0  0  0  0  0  0  0  0  0  0
  151.9921  137.6696  193.4293 N   0  0  0  0  0  0  0  0  0  0  0  0
  155.1788  133.6778  183.2127 N   0  0  0  0  0  0  0  0  0  0  0  0
  154.8608  134.4556  182.6073 H   0  0  0  0  0  0  0  0  0  0  0  0
  155.5172  132.4071  182.6396 C   0  0  0  0  0  0  0  0  0  0  0  0
  156.9419  132.5157  182.1349 C   0  0  0  0  0  0  0  0  0  0  0  0
  156.9619  132.7352  180.6571 C   0  0  0  0  0  0  0  0  0  0  0  0
  155.8850  133.6890  180.2542 C   0  0  0  0  0  0  0  0  0  0  0  0
  154.5398  133.0260  180.4239 C   0  0  0  0  0  0  0  0  0  0  0  0
  154.5575  132.0094  181.5497 C   0  0  0  0  0  0  0  0  0  0  0  0
  153.2469  135.9664  187.2605 S   0  0  0  0  0  0  0  0  0  0  0  0
  148.7172  137.3536  184.8002 C   0  0  0  0  0  0  0  0  0  0  0  0
  149.7987  136.5898  185.4237 N   0  0  0  0  0  0  0  0  0  0  0  0
  150.9311  137.0504  185.9730 C   0  0  0  0  0  0  0  0  0  0  0  0
  151.6745  136.0026  186.4556 C   0  0  0  0  0  0  0  0  0  0  0  0
  150.9378  134.8748  186.1720 C   0  0  0  0  0  0  0  0  0  0  0  0
  149.8255  135.2807  185.5549 N   0  0  0  0  0  0  0  0  0  0  0  0
 31 32  1  0  0  0
 32 33  1  0  0  0
 33 34  2  0  0  0
 34 30  1  0  0  0
 30  1  1  0  0  0
  1  2  2  0  0  0
  2  3  1  0  0  0
  3 22  1  0  0  0
 22 24  1  0  0  0
 24 25  1  0  0  0
 25 26  1  0  0  0
 26 27  1  0  0  0
 27 28  1  0  0  0
 28 29  1  0  0  0
  3  4  2  0  0  0
  4  5  1  0  0  0
  5  6  2  0  0  0
  6  7  1  0  0  0
  7  8  1  0  0  0
  7  9  2  0  0  0
  9 10  1  0  0  0
 10 11  2  0  0  0
 10 14  1  0  0  0
 14 15  2  0  0  0
 15 16  1  0  0  0
 16 17  2  0  0  0
 17 18  1  0  0  0
 18 19  2  0  0  0
 17 20  1  0  0  0
 20 21  3  0  0  0
 34 35  1  0  0  0
 35 36  2  0  0  0
 36 32  1  0  0  0
 11  1  1  0  0  0
 19 14  1  0  0  0
 29 24  1  0  0  0
 11  5  1  0  0  0
 22 23  1  0  0  0
  8 12  1  0  0  0
  8 13  1  0  0  0
M  END
> <minimizedAffinity>
-4.48904

> <CNNscore>
0.3576296270

> <CNNaffinity>
6.2276558876

> <CNN_VS>
2.2271943092

> <CNNaffinity_variance>
0.7135985494

$$$$
[H]Cl.[H]c1nn(C([H])([H])[H])c([H])c1Sc1nc(N([H])C2([H])C([H])([H])C([H])([H])C([H])([H])C([H])([H])C2([H])[H])nc2nc(N([H])[H])nc(-c3c([H])c([H])c(C#N)c([H])c3[H])c12


 36 40  0  0  0  0  0  0  0  0999 V2000
  152.2285  138.3055  183.0562 C   0  0  0  0  0  0  0  0  0  0  0  0
  153.3180  139.1116  183.1152 N   0  0  0  0  0  0  0  0  0  0  0  0
  153.6505  139.9619  182.1098 C   0  0  0  0  0  0  0  0  0  0  0  0
  152.8782  140.0085  181.0193 N   0  0  0  0  0  0  0  0  0  0  0  0
  151.7971  139.2476  180.8918 C   0  0  0  0  0  0  0  0  0  0  0  0
  151.0378  139.3438  179.7805 N   0  0  0  0  0  0  0  0  0  0  0  0
  149.9379  138.5884  179.6538 C   0  0  0  0  0  0  0  0  0  0  0  0
  149.1677  138.7281  178.4697 N   0  0  0  0  0  0  0  0  0  0  0  0
  149.6079  137.7495  180.6264 N   0  0  0  0  0  0  0  0  0  0  0  0
  150.3509  137.6019  181.8020 C   0  0  0  0  0  0  0  0  0  0  0  0
  151.4521  138.3664  181.9292 C   0  0  0  0  0  0  0  0  0  0  0  0
  149.5216  138.4005  177.5577 H   0  0  0  0  0  0  0  0  0  0  0  0
  148.2334  139.1727  178.5396 H   0  0  0  0  0  0  0  0  0  0  0  0
  149.8107  136.6180  182.6971 C   0  0  0  0  0  0  0  0  0  0  0  0
  150.2715  135.3351  182.6093 C   0  0  0  0  0  0  0  0  0  0  0  0
  149.9579  134.3537  183.5246 C   0  0  0  0  0  0  0  0  0  0  0  0
  149.1288  134.7293  184.5753 C   0  0  0  0  0  0  0  0  0  0  0  0
  148.6352  136.0066  184.7161 C   0  0  0  0  0  0  0  0  0  0  0  0
  149.0033  136.9513  183.7357 C   0  0  0  0  0  0  0  0  0  0  0  0
  148.8144  133.6772  185.5152 C   0  0  0  0  0  0  0  0  0  0  0  0
  148.5370  132.8374  186.2732 N   0  0  0  0  0  0  0  0  0  0  0  0
  154.7652  140.8284  182.2336 N   0  0  0  0  0  0  0  0  0  0  0  0
  155.5622  140.7330  181.5791 H   0  0  0  0  0  0  0  0  0  0  0  0
  154.7933  141.8229  183.2672 C   0  0  0  0  0  0  0  0  0  0  0  0
  154.4208  143.1419  182.6210 C   0  0  0  0  0  0  0  0  0  0  0  0
  155.6415  143.9616  182.3554 C   0  0  0  0  0  0  0  0  0  0  0  0
  156.7531  143.0990  181.8531 C   0  0  0  0  0  0  0  0  0  0  0  0
  157.2444  142.2136  182.9722 C   0  0  0  0  0  0  0  0  0  0  0  0
  156.1334  141.8839  183.9510 C   0  0  0  0  0  0  0  0  0  0  0  0
  151.9245  137.3031  184.4374 S   0  0  0  0  0  0  0  0  0  0  0  0
  155.3199  133.1954  184.7436 C   0  0  0  0  0  0  0  0  0  0  0  0
  154.6133  134.4535  184.9878 N   0  0  0  0  0  0  0  0  0  0  0  0
  153.5689  134.9626  184.3197 C   0  0  0  0  0  0  0  0  0  0  0  0
  153.1998  136.1617  184.8761 C   0  0  0  0  0  0  0  0  0  0  0  0
  154.0743  136.3610  185.9203 C   0  0  0  0  0  0  0  0  0  0  0  0
  154.8990  135.3111  185.9440 N   0  0  0  0  0  0  0  0  0  0  0  0
 31 32  1  0  0  0
 32 33  1  0  0  0
 33 34  2  0  0  0
 34 30  1  0  0  0
 30  1  1  0  0  0
  1  2  2  0  0  0
  2  3  1  0  0  0
  3 22  1  0  0  0
 22 24  1  0  0  0
 24 25  1  0  0  0
 25 26  1  0  0  0
 26 27  1  0  0  0
 27 28  1  0  0  0
 28 29  1  0  0  0
  3  4  2  0  0  0
  4  5  1  0  0  0
  5  6  2  0  0  0
  6  7  1  0  0  0
  7  8  1  0  0  0
  7  9  2  0  0  0
  9 10  1  0  0  0
 10 11  2  0  0  0
 10 14  1  0  0  0
 14 15  2  0  0  0
 15 16  1  0  0  0
 16 17  2  0  0  0
 17 18  1  0  0  0
 18 19  2  0  0  0
 17 20  1  0  0  0
 20 21  3  0  0  0
 34 35  1  0  0  0
 35 36  2  0  0  0
 36 32  1  0  0  0
 11  1  1  0  0  0
 19 14  1  0  0  0
 29 24  1  0  0  0
 11  5  1  0  0  0
 22 23  1  0  0  0
  8 12  1  0  0  0
  8 13  1  0  0  0
M  END
> <minimizedAffinity>
-5.93138

> <CNNscore>
0.1818973422

> <CNNaffinity>
6.4378938675

> <CNN_VS>
1.1710357666

> <CNNaffinity_variance>
0.0652029365

$$$$
[H]Cl.[H]c1nn(C([H])([H])[H])c([H])c1Sc1nc(N([H])C2([H])C([H])([H])C([H])([H])C([H])([H])C([H])([H])C2([H])[H])nc2nc(N([H])[H])nc(-c3c([H])c([H])c(C#N)c([H])c3[H])c12


 36 40  0  0  0  0  0  0  0  0999 V2000
  152.9078  136.3179  184.9587 C   0  0  0  0  0  0  0  0  0  0  0  0
  152.1407  137.0343  184.0992 N   0  0  0  0  0  0  0  0  0  0  0  0
  152.1620  136.8266  182.7573 C   0  0  0  0  0  0  0  0  0  0  0  0
  152.9684  135.8827  182.2609 N   0  0  0  0  0  0  0  0  0  0  0  0
  153.7480  135.1438  183.0420 C   0  0  0  0  0  0  0  0  0  0  0  0
  154.5309  134.1895  182.4966 N   0  0  0  0  0  0  0  0  0  0  0  0
  155.3085  133.4317  183.2823 C   0  0  0  0  0  0  0  0  0  0  0  0
  156.1106  132.4371  182.6642 N   0  0  0  0  0  0  0  0  0  0  0  0
  155.3009  133.6308  184.5935 N   0  0  0  0  0  0  0  0  0  0  0  0
  154.5139  134.6017  185.2209 C   0  0  0  0  0  0  0  0  0  0  0  0
  153.7291  135.3576  184.4297 C   0  0  0  0  0  0  0  0  0  0  0  0
  156.9186  132.6895  182.0746 H   0  0  0  0  0  0  0  0  0  0  0  0
  155.8644  131.4413  182.8164 H   0  0  0  0  0  0  0  0  0  0  0  0
  154.6914  134.6452  186.6450 C   0  0  0  0  0  0  0  0  0  0  0  0
  155.5452  135.5751  187.1665 C   0  0  0  0  0  0  0  0  0  0  0  0
  155.6597  135.8246  188.5171 C   0  0  0  0  0  0  0  0  0  0  0  0
  154.8476  135.0710  189.3568 C   0  0  0  0  0  0  0  0  0  0  0  0
  153.9680  134.1214  188.8887 C   0  0  0  0  0  0  0  0  0  0  0  0
  153.9124  133.9269  187.4929 C   0  0  0  0  0  0  0  0  0  0  0  0
  154.9943  135.3522  190.7670 C   0  0  0  0  0  0  0  0  0  0  0  0
  155.1344  135.5907  191.8985 N   0  0  0  0  0  0  0  0  0  0  0  0
  151.3039  137.5577  181.8981 N   0  0  0  0  0  0  0  0  0  0  0  0
  151.7047  138.2641  181.2554 H   0  0  0  0  0  0  0  0  0  0  0  0
  149.8882  137.3280  181.9283 C   0  0  0  0  0  0  0  0  0  0  0  0
  149.5439  136.5294  180.6875 C   0  0  0  0  0  0  0  0  0  0  0  0
  148.9711  137.4178  179.6314 C   0  0  0  0  0  0  0  0  0  0  0  0
  149.7101  138.7152  179.5803 C   0  0  0  0  0  0  0  0  0  0  0  0
  149.4019  139.5160  180.8219 C   0  0  0  0  0  0  0  0  0  0  0  0
  149.1123  138.6160  182.0082 C   0  0  0  0  0  0  0  0  0  0  0  0
  152.7384  136.6830  186.6448 S   0  0  0  0  0  0  0  0  0  0  0  0
  148.7051  135.1819  189.8030 C   0  0  0  0  0  0  0  0  0  0  0  0
  149.4942  135.7212  188.6947 N   0  0  0  0  0  0  0  0  0  0  0  0
  150.8277  135.7577  188.5654 C   0  0  0  0  0  0  0  0  0  0  0  0
  151.1637  136.3400  187.3689 C   0  0  0  0  0  0  0  0  0  0  0  0
  149.9651  136.6594  186.7721 C   0  0  0  0  0  0  0  0  0  0  0  0
  148.9981  136.2686  187.6058 N   0  0  0  0  0  0  0  0  0  0  0  0
 31 32  1  0  0  0
 32 33  1  0  0  0
 33 34  2  0  0  0
 34 30  1  0  0  0
 30  1  1  0  0  0
  1  2  2  0  0  0
  2  3  1  0  0  0
  3 22  1  0  0  0
 22 24  1  0  0  0
 24 25  1  0  0  0
 25 26  1  0  0  0
 26 27  1  0  0  0
 27 28  1  0  0  0
 28 29  1  0  0  0
  3  4  2  0  0  0
  4  5  1  0  0  0
  5  6  2  0  0  0
  6  7  1  0  0  0
  7  8  1  0  0  0
  7  9  2  0  0  0
  9 10  1  0  0  0
 10 11  2  0  0  0
 10 14  1  0  0  0
 14 15  2  0  0  0
 15 16  1  0  0  0
 16 17  2  0  0  0
 17 18  1  0  0  0
 18 19  2  0  0  0
 17 20  1  0  0  0
 20 21  3  0  0  0
 34 35  1  0  0  0
 35 36  2  0  0  0
 36 32  1  0  0  0
 11  1  1  0  0  0
 19 14  1  0  0  0
 29 24  1  0  0  0
 11  5  1  0  0  0
 22 23  1  0  0  0
  8 12  1  0  0  0
  8 13  1  0  0  0
M  END
> <minimizedAffinity>
-4.71604

> <CNNscore>
0.1600866616

> <CNNaffinity>
6.0741600990

> <CNN_VS>
0.9723920226

> <CNNaffinity_variance>
0.5344403982

$$$$
[H]Cl.[H]c1nn(C([H])([H])[H])c([H])c1Sc1nc(N([H])C2([H])C([H])([H])C([H])([H])C([H])([H])C([H])([H])C2([H])[H])nc2nc(N([H])[H])nc(-c3c([H])c([H])c(C#N)c([H])c3[H])c12


 36 40  0  0  0  0  0  0  0  0999 V2000
  153.9463  138.8226  183.9799 C   0  0  0  0  0  0  0  0  0  0  0  0
  154.9579  139.6840  184.2534 N   0  0  0  0  0  0  0  0  0  0  0  0
  155.2675  140.7262  183.4395 C   0  0  0  0  0  0  0  0  0  0  0  0
  154.5514  140.9128  182.3259 N   0  0  0  0  0  0  0  0  0  0  0  0
  153.5479  140.1088  181.9937 C   0  0  0  0  0  0  0  0  0  0  0  0
  152.8414  140.3488  180.8693 N   0  0  0  0  0  0  0  0  0  0  0  0
  151.8186  139.5486  180.5376 C   0  0  0  0  0  0  0  0  0  0  0  0
  151.1014  139.8437  179.3488 N   0  0  0  0  0  0  0  0  0  0  0  0
  151.5123  138.5238  181.3216 N   0  0  0  0  0  0  0  0  0  0  0  0
  152.2035  138.2205  182.4989 C   0  0  0  0  0  0  0  0  0  0  0  0
  153.2268  139.0295  182.8327 C   0  0  0  0  0  0  0  0  0  0  0  0
  151.5288  139.7157  178.4187 H   0  0  0  0  0  0  0  0  0  0  0  0
  150.1301  140.1965  179.4345 H   0  0  0  0  0  0  0  0  0  0  0  0
  151.7045  137.0518  183.1670 C   0  0  0  0  0  0  0  0  0  0  0  0
  150.6128  137.1816  183.9777 C   0  0  0  0  0  0  0  0  0  0  0  0
  149.9452  136.1080  184.5262 C   0  0  0  0  0  0  0  0  0  0  0  0
  150.4389  134.8466  184.2137 C   0  0  0  0  0  0  0  0  0  0  0  0
  151.5338  134.6544  183.4019 C   0  0  0  0  0  0  0  0  0  0  0  0
  152.1605  135.8058  182.8817 C   0  0  0  0  0  0  0  0  0  0  0  0
  149.7206  133.7419  184.8077 C   0  0  0  0  0  0  0  0  0  0  0  0
  149.1449  132.8622  185.3091 N   0  0  0  0  0  0  0  0  0  0  0  0
  156.2957  141.6370  183.7891 N   0  0  0  0  0  0  0  0  0  0  0  0
  156.2055  142.2034  184.6515 H   0  0  0  0  0  0  0  0  0  0  0  0
  157.4475  141.7811  182.9463 C   0  0  0  0  0  0  0  0  0  0  0  0
  157.6956  140.4317  182.3031 C   0  0  0  0  0  0  0  0  0  0  0  0
  158.7987  139.7084  183.0050 C   0  0  0  0  0  0  0  0  0  0  0  0
  158.6891  139.8931  184.4834 C   0  0  0  0  0  0  0  0  0  0  0  0
  159.0193  141.3232  184.8351 C   0  0  0  0  0  0  0  0  0  0  0  0
  158.6460  142.2735  183.7133 C   0  0  0  0  0  0  0  0  0  0  0  0
  153.6588  137.5649  185.1377 S   0  0  0  0  0  0  0  0  0  0  0  0
  156.4520  137.9939  189.6665 C   0  0  0  0  0  0  0  0  0  0  0  0
  155.3901  138.0548  188.6613 N   0  0  0  0  0  0  0  0  0  0  0  0
  155.4283  137.6414  187.3869 C   0  0  0  0  0  0  0  0  0  0  0  0
  154.2161  137.8716  186.7861 C   0  0  0  0  0  0  0  0  0  0  0  0
  153.4330  138.4491  187.7598 C   0  0  0  0  0  0  0  0  0  0  0  0
  154.1821  138.5363  188.8617 N   0  0  0  0  0  0  0  0  0  0  0  0
 31 32  1  0  0  0
 32 33  1  0  0  0
 33 34  2  0  0  0
 34 30  1  0  0  0
 30  1  1  0  0  0
  1  2  2  0  0  0
  2  3  1  0  0  0
  3 22  1  0  0  0
 22 24  1  0  0  0
 24 25  1  0  0  0
 25 26  1  0  0  0
 26 27  1  0  0  0
 27 28  1  0  0  0
 28 29  1  0  0  0
  3  4  2  0  0  0
  4  5  1  0  0  0
  5  6  2  0  0  0
  6  7  1  0  0  0
  7  8  1  0  0  0
  7  9  2  0  0  0
  9 10  1  0  0  0
 10 11  2  0  0  0
 10 14  1  0  0  0
 14 15  2  0  0  0
 15 16  1  0  0  0
 16 17  2  0  0  0
 17 18  1  0  0  0
 18 19  2  0  0  0
 17 20  1  0  0  0
 20 21  3  0  0  0
 34 35  1  0  0  0
 35 36  2  0  0  0
 36 32  1  0  0  0
 11  1  1  0  0  0
 19 14  1  0  0  0
 29 24  1  0  0  0
 11  5  1  0  0  0
 22 23  1  0  0  0
  8 12  1  0  0  0
  8 13  1  0  0  0
M  END
> <minimizedAffinity>
-7.52863

> <CNNscore>
0.1326599866

> <CNNaffinity>
6.3403873444

> <CNN_VS>
0.8411157131

> <CNNaffinity_variance>
0.2044250071

$$$$
[H]Cl.[H]c1nn(C([H])([H])[H])c([H])c1Sc1nc(N([H])C2([H])C([H])([H])C([H])([H])C([H])([H])C([H])([H])C2([H])[H])nc2nc(N([H])[H])nc(-c3c([H])c([H])c(C#N)c([H])c3[H])c12


 36 40  0  0  0  0  0  0  0  0999 V2000
  153.5687  138.4212  184.1532 C   0  0  0  0  0  0  0  0  0  0  0  0
  154.1843  139.2458  183.2693 N   0  0  0  0  0  0  0  0  0  0  0  0
  155.4058  139.7891  183.5088 C   0  0  0  0  0  0  0  0  0  0  0  0
  156.0273  139.5037  184.6577 N   0  0  0  0  0  0  0  0  0  0  0  0
  155.4846  138.7054  185.5699 C   0  0  0  0  0  0  0  0  0  0  0  0
  156.1588  138.4312  186.7061 N   0  0  0  0  0  0  0  0  0  0  0  0
  155.6213  137.6147  187.6231 C   0  0  0  0  0  0  0  0  0  0  0  0
  156.3700  137.3512  188.7999 N   0  0  0  0  0  0  0  0  0  0  0  0
  154.4259  137.0844  187.4026 N   0  0  0  0  0  0  0  0  0  0  0  0
  153.6760  137.3278  186.2476 C   0  0  0  0  0  0  0  0  0  0  0  0
  154.2210  138.1438  185.3254 C   0  0  0  0  0  0  0  0  0  0  0  0
  156.5245  138.0814  189.5121 H   0  0  0  0  0  0  0  0  0  0  0  0
  156.7648  136.4012  188.9299 H   0  0  0  0  0  0  0  0  0  0  0  0
  152.4039  136.6621  186.2440 C   0  0  0  0  0  0  0  0  0  0  0  0
  152.3570  135.3496  185.8689 C   0  0  0  0  0  0  0  0  0  0  0  0
  151.2303  134.5660  185.9947 C   0  0  0  0  0  0  0  0  0  0  0  0
  150.1065  135.1801  186.5356 C   0  0  0  0  0  0  0  0  0  0  0  0
  150.0949  136.4981  186.9323 C   0  0  0  0  0  0  0  0  0  0  0  0
  151.2889  137.2307  186.7688 C   0  0  0  0  0  0  0  0  0  0  0  0
  148.9402  134.3340  186.6500 C   0  0  0  0  0  0  0  0  0  0  0  0
  147.9874  133.6684  186.7278 N   0  0  0  0  0  0  0  0  0  0  0  0
  156.0402  140.6010  182.5355 N   0  0  0  0  0  0  0  0  0  0  0  0
  155.7020  140.5846  181.5567 H   0  0  0  0  0  0  0  0  0  0  0  0
  157.1515  141.4305  182.9029 C   0  0  0  0  0  0  0  0  0  0  0  0
  156.9361  142.7760  182.2401 C   0  0  0  0  0  0  0  0  0  0  0  0
  157.7717  142.8958  181.0072 C   0  0  0  0  0  0  0  0  0  0  0  0
  157.7720  141.6095  180.2473 C   0  0  0  0  0  0  0  0  0  0  0  0
  158.5519  140.5727  181.0186 C   0  0  0  0  0  0  0  0  0  0  0  0
  158.4673  140.8102  182.5144 C   0  0  0  0  0  0  0  0  0  0  0  0
  152.0268  137.7846  183.6819 S   0  0  0  0  0  0  0  0  0  0  0  0
  150.9499  140.2913  179.0936 C   0  0  0  0  0  0  0  0  0  0  0  0
  150.9987  139.3120  180.1801 N   0  0  0  0  0  0  0  0  0  0  0  0
  151.6558  139.3964  181.3452 C   0  0  0  0  0  0  0  0  0  0  0  0
  151.4315  138.2652  182.0893 C   0  0  0  0  0  0  0  0  0  0  0  0
  150.6028  137.4824  181.3178 C   0  0  0  0  0  0  0  0  0  0  0  0
  150.3741  138.1539  180.1865 N   0  0  0  0  0  0  0  0  0  0  0  0
 31 32  1  0  0  0
 32 33  1  0  0  0
 33 34  2  0  0  0
 34 30  1  0  0  0
 30  1  1  0  0  0
  1  2  2  0  0  0
  2  3  1  0  0  0
  3 22  1  0  0  0
 22 24  1  0  0  0
 24 25  1  0  0  0
 25 26  1  0  0  0
 26 27  1  0  0  0
 27 28  1  0  0  0
 28 29  1  0  0  0
  3  4  2  0  0  0
  4  5  1  0  0  0
  5  6  2  0  0  0
  6  7  1  0  0  0
  7  8  1  0  0  0
  7  9  2  0  0  0
  9 10  1  0  0  0
 10 11  2  0  0  0
 10 14  1  0  0  0
 14 15  2  0  0  0
 15 16  1  0  0  0
 16 17  2  0  0  0
 17 18  1  0  0  0
 18 19  2  0  0  0
 17 20  1  0  0  0
 20 21  3  0  0  0
 34 35  1  0  0  0
 35 36  2  0  0  0
 36 32  1  0  0  0
 11  1  1  0  0  0
 19 14  1  0  0  0
 29 24  1  0  0  0
 11  5  1  0  0  0
 22 23  1  0  0  0
  8 12  1  0  0  0
  8 13  1  0  0  0
M  END
> <minimizedAffinity>
-6.51034

> <CNNscore>
0.1298839003

> <CNNaffinity>
6.4249029160

> <CNN_VS>
0.8344914317

> <CNNaffinity_variance>
0.0291730966

$$$$
[H]Cl.[H]c1nn(C([H])([H])[H])c([H])c1Sc1nc(N([H])C2([H])C([H])([H])C([H])([H])C([H])([H])C([H])([H])C2([H])[H])nc2nc(N([H])[H])nc(-c3c([H])c([H])c(C#N)c([H])c3[H])c12


 36 40  0  0  0  0  0  0  0  0999 V2000
  153.1608  137.6965  184.7147 C   0  0  0  0  0  0  0  0  0  0  0  0
  153.7582  137.3355  185.8779 N   0  0  0  0  0  0  0  0  0  0  0  0
  154.9196  137.8952  186.3048 C   0  0  0  0  0  0  0  0  0  0  0  0
  155.4993  138.8366  185.5529 N   0  0  0  0  0  0  0  0  0  0  0  0
  154.9724  139.2389  184.4021 C   0  0  0  0  0  0  0  0  0  0  0  0
  155.5840  140.2062  183.6871 N   0  0  0  0  0  0  0  0  0  0  0  0
  155.0482  140.6255  182.5324 C   0  0  0  0  0  0  0  0  0  0  0  0
  155.7244  141.6488  181.8180 N   0  0  0  0  0  0  0  0  0  0  0  0
  153.9181  140.0807  182.1026 N   0  0  0  0  0  0  0  0  0  0  0  0
  153.2350  139.0757  182.7949 C   0  0  0  0  0  0  0  0  0  0  0  0
  153.7724  138.6606  183.9577 C   0  0  0  0  0  0  0  0  0  0  0  0
  156.6300  141.4724  181.3565 H   0  0  0  0  0  0  0  0  0  0  0  0
  155.2869  142.5879  181.7707 H   0  0  0  0  0  0  0  0  0  0  0  0
  152.0483  138.6271  182.1226 C   0  0  0  0  0  0  0  0  0  0  0  0
  150.9701  139.4644  182.0768 C   0  0  0  0  0  0  0  0  0  0  0  0
  149.8492  139.2144  181.3149 C   0  0  0  0  0  0  0  0  0  0  0  0
  149.8563  138.0407  180.5699 C   0  0  0  0  0  0  0  0  0  0  0  0
  150.9142  137.1600  180.5756 C   0  0  0  0  0  0  0  0  0  0  0  0
  152.0227  137.4897  181.3828 C   0  0  0  0  0  0  0  0  0  0  0  0
  148.6654  137.8045  179.7857 C   0  0  0  0  0  0  0  0  0  0  0  0
  147.6933  137.6311  179.1677 N   0  0  0  0  0  0  0  0  0  0  0  0
  155.4826  137.5309  187.5535 N   0  0  0  0  0  0  0  0  0  0  0  0
  156.5123  137.5017  187.6611 H   0  0  0  0  0  0  0  0  0  0  0  0
  154.6303  137.1933  188.6569 C   0  0  0  0  0  0  0  0  0  0  0  0
  154.3670  138.4758  189.4199 C   0  0  0  0  0  0  0  0  0  0  0  0
  155.2339  138.5535  190.6344 C   0  0  0  0  0  0  0  0  0  0  0  0
  156.6108  138.0615  190.3280 C   0  0  0  0  0  0  0  0  0  0  0  0
  156.5709  136.5696  190.1034 C   0  0  0  0  0  0  0  0  0  0  0  0
  155.2380  136.1277  189.5299 C   0  0  0  0  0  0  0  0  0  0  0  0
  151.6645  136.9105  184.3299 S   0  0  0  0  0  0  0  0  0  0  0  0
  147.5926  136.9673  187.7813 C   0  0  0  0  0  0  0  0  0  0  0  0
  148.8498  136.6585  187.0988 N   0  0  0  0  0  0  0  0  0  0  0  0
  149.3369  137.1965  185.9720 C   0  0  0  0  0  0  0  0  0  0  0  0
  150.5532  136.6341  185.6755 C   0  0  0  0  0  0  0  0  0  0  0  0
  150.7853  135.7220  186.6800 C   0  0  0  0  0  0  0  0  0  0  0  0
  149.7368  135.7755  187.5051 N   0  0  0  0  0  0  0  0  0  0  0  0
 31 32  1  0  0  0
 32 33  1  0  0  0
 33 34  2  0  0  0
 34 30  1  0  0  0
 30  1  1  0  0  0
  1  2  2  0  0  0
  2  3  1  0  0  0
  3 22  1  0  0  0
 22 24  1  0  0  0
 24 25  1  0  0  0
 25 26  1  0  0  0
 26 27  1  0  0  0
 27 28  1  0  0  0
 28 29  1  0  0  0
  3  4  2  0  0  0
  4  5  1  0  0  0
  5  6  2  0  0  0
  6  7  1  0  0  0
  7  8  1  0  0  0
  7  9  2  0  0  0
  9 10  1  0  0  0
 10 11  2  0  0  0
 10 14  1  0  0  0
 14 15  2  0  0  0
 15 16  1  0  0  0
 16 17  2  0  0  0
 17 18  1  0  0  0
 18 19  2  0  0  0
 17 20  1  0  0  0
 20 21  3  0  0  0
 34 35  1  0  0  0
 35 36  2  0  0  0
 36 32  1  0  0  0
 11  1  1  0  0  0
 19 14  1  0  0  0
 29 24  1  0  0  0
 11  5  1  0  0  0
 22 23  1  0  0  0
  8 12  1  0  0  0
  8 13  1  0  0  0
M  END
> <minimizedAffinity>
-6.94202

> <CNNscore>
0.1283968240

> <CNNaffinity>
6.1380763054

> <CNN_VS>
0.7881094813

> <CNNaffinity_variance>
0.0527647063

$$$$
[H]Cl.[H]c1nn(C([H])([H])[H])c([H])c1Sc1nc(N([H])C2([H])C([H])([H])C([H])([H])C([H])([H])C([H])([H])C2([H])[H])nc2nc(N([H])[H])nc(-c3c([H])c([H])c(C#N)c([H])c3[H])c12


 36 40  0  0  0  0  0  0  0  0999 V2000
  154.8695  138.7061  184.7004 C   0  0  0  0  0  0  0  0  0  0  0  0
  155.9605  139.4813  184.9220 N   0  0  0  0  0  0  0  0  0  0  0  0
  156.2688  140.5464  184.1380 C   0  0  0  0  0  0  0  0  0  0  0  0
  155.4703  140.8448  183.1079 N   0  0  0  0  0  0  0  0  0  0  0  0
  154.3861  140.1298  182.8302 C   0  0  0  0  0  0  0  0  0  0  0  0
  153.6000  140.4813  181.7913 N   0  0  0  0  0  0  0  0  0  0  0  0
  152.4970  139.7713  181.5161 C   0  0  0  0  0  0  0  0  0  0  0  0
  151.6983  140.1822  180.4170 N   0  0  0  0  0  0  0  0  0  0  0  0
  152.1904  138.7249  182.2709 N   0  0  0  0  0  0  0  0  0  0  0  0
  152.9617  138.3082  183.3605 C   0  0  0  0  0  0  0  0  0  0  0  0
  154.0660  139.0269  183.6383 C   0  0  0  0  0  0  0  0  0  0  0  0
  152.0298  140.0808  179.4453 H   0  0  0  0  0  0  0  0  0  0  0  0
  150.7663  140.5929  180.6120 H   0  0  0  0  0  0  0  0  0  0  0  0
  152.4429  137.1381  184.0108 C   0  0  0  0  0  0  0  0  0  0  0  0
  151.4889  137.2982  184.9751 C   0  0  0  0  0  0  0  0  0  0  0  0
  150.7973  136.2473  185.5378 C   0  0  0  0  0  0  0  0  0  0  0  0
  151.1160  134.9766  185.0725 C   0  0  0  0  0  0  0  0  0  0  0  0
  152.0670  134.7543  184.1024 C   0  0  0  0  0  0  0  0  0  0  0  0
  152.7297  135.8839  183.5789 C   0  0  0  0  0  0  0  0  0  0  0  0
  150.3775  133.8956  185.6851 C   0  0  0  0  0  0  0  0  0  0  0  0
  149.7646  133.0411  186.1860 N   0  0  0  0  0  0  0  0  0  0  0  0
  157.3867  141.3652  184.4362 N   0  0  0  0  0  0  0  0  0  0  0  0
  157.3428  142.3814  184.2409 H   0  0  0  0  0  0  0  0  0  0  0  0
  158.5751  140.7867  184.9937 C   0  0  0  0  0  0  0  0  0  0  0  0
  159.1305  141.7886  185.9856 C   0  0  0  0  0  0  0  0  0  0  0  0
  160.2670  142.5501  185.3847 C   0  0  0  0  0  0  0  0  0  0  0  0
  159.9711  142.8976  183.9621 C   0  0  0  0  0  0  0  0  0  0  0  0
  159.9969  141.6423  183.1245 C   0  0  0  0  0  0  0  0  0  0  0  0
  159.5769  140.4267  183.9288 C   0  0  0  0  0  0  0  0  0  0  0  0
  154.5988  137.4047  185.8130 S   0  0  0  0  0  0  0  0  0  0  0  0
  156.4690  137.9762  190.7800 C   0  0  0  0  0  0  0  0  0  0  0  0
  155.6252  138.0144  189.5850 N   0  0  0  0  0  0  0  0  0  0  0  0
  155.8985  137.5441  188.3600 C   0  0  0  0  0  0  0  0  0  0  0  0
  154.8335  137.7727  187.5251 C   0  0  0  0  0  0  0  0  0  0  0  0
  153.8931  138.4090  188.3033 C   0  0  0  0  0  0  0  0  0  0  0  0
  154.4157  138.5295  189.5261 N   0  0  0  0  0  0  0  0  0  0  0  0
 31 32  1  0  0  0
 32 33  1  0  0  0
 33 34  2  0  0  0
 34 30  1  0  0  0
 30  1  1  0  0  0
  1  2  2  0  0  0
  2  3  1  0  0  0
  3 22  1  0  0  0
 22 24  1  0  0  0
 24 25  1  0  0  0
 25 26  1  0  0  0
 26 27  1  0  0  0
 27 28  1  0  0  0
 28 29  1  0  0  0
  3  4  2  0  0  0
  4  5  1  0  0  0
  5  6  2  0  0  0
  6  7  1  0  0  0
  7  8  1  0  0  0
  7  9  2  0  0  0
  9 10  1  0  0  0
 10 11  2  0  0  0
 10 14  1  0  0  0
 14 15  2  0  0  0
 15 16  1  0  0  0
 16 17  2  0  0  0
 17 18  1  0  0  0
 18 19  2  0  0  0
 17 20  1  0  0  0
 20 21  3  0  0  0
 34 35  1  0  0  0
 35 36  2  0  0  0
 36 32  1  0  0  0
 11  1  1  0  0  0
 19 14  1  0  0  0
 29 24  1  0  0  0
 11  5  1  0  0  0
 22 23  1  0  0  0
  8 12  1  0  0  0
  8 13  1  0  0  0
M  END
> <minimizedAffinity>
-7.86870

> <CNNscore>
0.1166046858

> <CNNaffinity>
6.4135079384

> <CNN_VS>
0.7478450537

> <CNNaffinity_variance>
0.2046938390

$$$$
[H]Cl.[H]c1nn(C([H])([H])[H])c([H])c1Sc1nc(N([H])C2([H])C([H])([H])C([H])([H])C([H])([H])C([H])([H])C2([H])[H])nc2nc(N([H])[H])nc(-c3c([H])c([H])c(C#N)c([H])c3[H])c12


 36 40  0  0  0  0  0  0  0  0999 V2000
  152.9529  137.8380  183.8388 C   0  0  0  0  0  0  0  0  0  0  0  0
  153.6331  137.2858  184.8745 N   0  0  0  0  0  0  0  0  0  0  0  0
  154.6574  137.9247  185.4966 C   0  0  0  0  0  0  0  0  0  0  0  0
  155.0121  139.1429  185.0748 N   0  0  0  0  0  0  0  0  0  0  0  0
  154.3921  139.7446  184.0661 C   0  0  0  0  0  0  0  0  0  0  0  0
  154.7732  140.9828  183.6887 N   0  0  0  0  0  0  0  0  0  0  0  0
  154.1409  141.5998  182.6807 C   0  0  0  0  0  0  0  0  0  0  0  0
  154.5731  142.9035  182.3228 N   0  0  0  0  0  0  0  0  0  0  0  0
  153.1440  140.9821  182.0616 N   0  0  0  0  0  0  0  0  0  0  0  0
  152.7006  139.7005  182.4032 C   0  0  0  0  0  0  0  0  0  0  0  0
  153.3337  139.0854  183.4201 C   0  0  0  0  0  0  0  0  0  0  0  0
  155.4874  143.0606  181.8715 H   0  0  0  0  0  0  0  0  0  0  0  0
  153.9465  143.7038  182.5284 H   0  0  0  0  0  0  0  0  0  0  0  0
  151.6239  139.2316  181.5773 C   0  0  0  0  0  0  0  0  0  0  0  0
  150.3523  139.2847  182.0731 C   0  0  0  0  0  0  0  0  0  0  0  0
  149.2318  139.0293  181.3125 C   0  0  0  0  0  0  0  0  0  0  0  0
  149.4500  138.7056  179.9782 C   0  0  0  0  0  0  0  0  0  0  0  0
  150.7078  138.6379  179.4232 C   0  0  0  0  0  0  0  0  0  0  0  0
  151.8015  138.9126  180.2702 C   0  0  0  0  0  0  0  0  0  0  0  0
  148.2561  138.4386  179.2084 C   0  0  0  0  0  0  0  0  0  0  0  0
  147.3084  138.2148  178.5692 N   0  0  0  0  0  0  0  0  0  0  0  0
  155.3063  137.3374  186.6115 N   0  0  0  0  0  0  0  0  0  0  0  0
  156.3359  137.2256  186.6034 H   0  0  0  0  0  0  0  0  0  0  0  0
  154.5391  136.8900  187.7380 C   0  0  0  0  0  0  0  0  0  0  0  0
  154.0615  138.1294  188.4672 C   0  0  0  0  0  0  0  0  0  0  0  0
  154.9141  138.3974  189.6647 C   0  0  0  0  0  0  0  0  0  0  0  0
  156.3530  138.1466  189.3504 C   0  0  0  0  0  0  0  0  0  0  0  0
  156.5750  136.6646  189.1704 C   0  0  0  0  0  0  0  0  0  0  0  0
  155.3351  135.9765  188.6319 C   0  0  0  0  0  0  0  0  0  0  0  0
  151.6498  136.9061  183.1766 S   0  0  0  0  0  0  0  0  0  0  0  0
  154.2126  133.2708  180.2249 C   0  0  0  0  0  0  0  0  0  0  0  0
  153.1789  134.0367  180.9225 N   0  0  0  0  0  0  0  0  0  0  0  0
  153.3252  135.1374  181.6731 C   0  0  0  0  0  0  0  0  0  0  0  0
  152.1018  135.5491  182.1392 C   0  0  0  0  0  0  0  0  0  0  0  0
  151.1978  134.6416  181.6351 C   0  0  0  0  0  0  0  0  0  0  0  0
  151.8929  133.7580  180.9147 N   0  0  0  0  0  0  0  0  0  0  0  0
 31 32  1  0  0  0
 32 33  1  0  0  0
 33 34  2  0  0  0
 34 30  1  0  0  0
 30  1  1  0  0  0
  1  2  2  0  0  0
  2  3  1  0  0  0
  3 22  1  0  0  0
 22 24  1  0  0  0
 24 25  1  0  0  0
 25 26  1  0  0  0
 26 27  1  0  0  0
 27 28  1  0  0  0
 28 29  1  0  0  0
  3  4  2  0  0  0
  4  5  1  0  0  0
  5  6  2  0  0  0
  6  7  1  0  0  0
  7  8  1  0  0  0
  7  9  2  0  0  0
  9 10  1  0  0  0
 10 11  2  0  0  0
 10 14  1  0  0  0
 14 15  2  0  0  0
 15 16  1  0  0  0
 16 17  2  0  0  0
 17 18  1  0  0  0
 18 19  2  0  0  0
 17 20  1  0  0  0
 20 21  3  0  0  0
 34 35  1  0  0  0
 35 36  2  0  0  0
 36 32  1  0  0  0
 11  1  1  0  0  0
 19 14  1  0  0  0
 29 24  1  0  0  0
 11  5  1  0  0  0
 22 23  1  0  0  0
  8 12  1  0  0  0
  8 13  1  0  0  0
M  END
> <minimizedAffinity>
-7.23207

> <CNNscore>
0.1113051772

> <CNNaffinity>
5.9951143265

> <CNN_VS>
0.6672872901

> <CNNaffinity_variance>
0.1885554343

$$$$
[H]c1c([H])c2c(c([H])c1-c1c([H])c([H])c3c(c1[H])C(C([H])([H])[H])(C([H])([H])[H])C(=O)N3[H])C(C([H])([H])[H])(C([H])([H])[H])C(=O)N2[H]


 26 29  0  0  0  0  0  0  0  0999 V2000
  153.2470  140.0276  182.4722 C   0  0  0  0  0  0  0  0  0  0  0  0
  152.0670  139.9973  181.7350 C   0  0  0  0  0  0  0  0  0  0  0  0
  151.2133  138.9268  181.7034 C   0  0  0  0  0  0  0  0  0  0  0  0
  151.5426  137.8123  182.4462 C   0  0  0  0  0  0  0  0  0  0  0  0
  152.7116  137.8012  183.1960 C   0  0  0  0  0  0  0  0  0  0  0  0
  153.5628  138.8979  183.2135 C   0  0  0  0  0  0  0  0  0  0  0  0
  150.5455  136.8118  182.2902 N   0  0  0  0  0  0  0  0  0  0  0  0
  149.5294  137.2838  181.4178 C   0  0  0  0  0  0  0  0  0  0  0  0
  148.4907  136.7258  181.0241 O   0  0  0  0  0  0  0  0  0  0  0  0
  149.9316  138.6540  181.0172 C   0  0  0  0  0  0  0  0  0  0  0  0
  148.8537  139.6177  181.5119 C   0  0  0  0  0  0  0  0  0  0  0  0
  150.0406  138.6878  179.5198 C   0  0  0  0  0  0  0  0  0  0  0  0
  150.5438  135.8607  182.7444 H   0  0  0  0  0  0  0  0  0  0  0  0
  154.1167  141.2020  182.4652 C   0  0  0  0  0  0  0  0  0  0  0  0
  155.4771  141.0212  182.4014 C   0  0  0  0  0  0  0  0  0  0  0  0
  156.3474  142.1280  182.3922 C   0  0  0  0  0  0  0  0  0  0  0  0
  155.8493  143.4055  182.4470 C   0  0  0  0  0  0  0  0  0  0  0  0
  154.4615  143.5936  182.5122 C   0  0  0  0  0  0  0  0  0  0  0  0
  153.6318  142.4902  182.5196 C   0  0  0  0  0  0  0  0  0  0  0  0
  156.9261  144.3270  182.4246 N   0  0  0  0  0  0  0  0  0  0  0  0
  158.1435  143.6073  182.3535 C   0  0  0  0  0  0  0  0  0  0  0  0
  159.2841  144.1575  182.3193 O   0  0  0  0  0  0  0  0  0  0  0  0
  157.8071  142.1736  182.3298 C   0  0  0  0  0  0  0  0  0  0  0  0
  158.4350  141.5576  183.5639 C   0  0  0  0  0  0  0  0  0  0  0  0
  158.2868  141.4891  181.0692 C   0  0  0  0  0  0  0  0  0  0  0  0
  156.8362  145.3872  182.4559 H   0  0  0  0  0  0  0  0  0  0  0  0
  1 14  1  0  0  0
 14 15  2  0  0  0
 15 16  1  0  0  0
 16 17  2  0  0  0
 17 18  1  0  0  0
 18 19  2  0  0  0
 17 20  1  0  0  0
 20 21  1  0  0  0
 21 22  2  0  0  0
 21 23  1  0  0  0
 23 24  1  0  0  0
 23 25  1  0  0  0
  1  2  2  0  0  0
  2  3  1  0  0  0
  3  4  2  0  0  0
  4  5  1  0  0  0
  5  6  2  0  0  0
  4  7  1  0  0  0
  7  8  1  0  0  0
  8  9  2  0  0  0
  8 10  1  0  0  0
 10 11  1  0  0  0
 10 12  1  0  0  0
  6  1  1  0  0  0
 19 14  1  0  0  0
 10  3  1  0  0  0
 23 16  1  0  0  0
 20 26  1  0  0  0
  7 13  1  0  0  0
M  END
> <minimizedAffinity>
-9.18015

> <CNNscore>
0.5016272068

> <CNNaffinity>
5.8857803345

> <CNN_VS>
2.9524674416

> <CNNaffinity_variance>
0.0716780424

$$$$
[H]c1c([H])c2c(c([H])c1-c1c([H])c([H])c3c(c1[H])C(C([H])([H])[H])(C([H])([H])[H])C(=O)N3[H])C(C([H])([H])[H])(C([H])([H])[H])C(=O)N2[H]


 26 29  0  0  0  0  0  0  0  0999 V2000
  154.3977  141.4728  182.4511 C   0  0  0  0  0  0  0  0  0  0  0  0
  155.7146  141.3945  182.0079 C   0  0  0  0  0  0  0  0  0  0  0  0
  156.5686  142.4641  181.9577 C   0  0  0  0  0  0  0  0  0  0  0  0
  156.0954  143.6919  182.3709 C   0  0  0  0  0  0  0  0  0  0  0  0
  154.7870  143.8136  182.8205 C   0  0  0  0  0  0  0  0  0  0  0  0
  153.9382  142.7157  182.8629 C   0  0  0  0  0  0  0  0  0  0  0  0
  157.1163  144.6729  182.2484 N   0  0  0  0  0  0  0  0  0  0  0  0
  158.2970  144.0707  181.7389 C   0  0  0  0  0  0  0  0  0  0  0  0
  159.4059  144.5726  181.4868 O   0  0  0  0  0  0  0  0  0  0  0  0
  157.9765  142.6366  181.5380 C   0  0  0  0  0  0  0  0  0  0  0  0
  158.8998  141.8230  182.4440 C   0  0  0  0  0  0  0  0  0  0  0  0
  158.2098  142.3058  180.0919 C   0  0  0  0  0  0  0  0  0  0  0  0
  157.0286  145.6942  182.4933 H   0  0  0  0  0  0  0  0  0  0  0  0
  153.5353  140.2933  182.4814 C   0  0  0  0  0  0  0  0  0  0  0  0
  152.4007  140.2795  181.7069 C   0  0  0  0  0  0  0  0  0  0  0  0
  151.5453  139.1612  181.7090 C   0  0  0  0  0  0  0  0  0  0  0  0
  151.8322  138.0669  182.4858 C   0  0  0  0  0  0  0  0  0  0  0  0
  152.9892  138.0777  183.2775 C   0  0  0  0  0  0  0  0  0  0  0  0
  153.8100  139.1877  183.2557 C   0  0  0  0  0  0  0  0  0  0  0  0
  150.8209  137.0900  182.3065 N   0  0  0  0  0  0  0  0  0  0  0  0
  149.8646  137.5841  181.3866 C   0  0  0  0  0  0  0  0  0  0  0  0
  148.8384  136.9361  181.0237 O   0  0  0  0  0  0  0  0  0  0  0  0
  150.3025  138.9288  180.9753 C   0  0  0  0  0  0  0  0  0  0  0  0
  149.2152  139.8927  181.4059 C   0  0  0  0  0  0  0  0  0  0  0  0
  150.5616  139.0216  179.4880 C   0  0  0  0  0  0  0  0  0  0  0  0
  150.7848  136.1395  182.7845 H   0  0  0  0  0  0  0  0  0  0  0  0
  1 14  1  0  0  0
 14 15  2  0  0  0
 15 16  1  0  0  0
 16 17  2  0  0  0
 17 18  1  0  0  0
 18 19  2  0  0  0
 17 20  1  0  0  0
 20 21  1  0  0  0
 21 22  2  0  0  0
 21 23  1  0  0  0
 23 24  1  0  0  0
 23 25  1  0  0  0
  1  2  2  0  0  0
  2  3  1  0  0  0
  3  4  2  0  0  0
  4  5  1  0  0  0
  5  6  2  0  0  0
  4  7  1  0  0  0
  7  8  1  0  0  0
  8  9  2  0  0  0
  8 10  1  0  0  0
 10 11  1  0  0  0
 10 12  1  0  0  0
  6  1  1  0  0  0
 19 14  1  0  0  0
 10  3  1  0  0  0
 23 16  1  0  0  0
 20 26  1  0  0  0
  7 13  1  0  0  0
M  END
> <minimizedAffinity>
-9.30668

> <CNNscore>
0.4991141260

> <CNNaffinity>
5.9775452614

> <CNN_VS>
2.9834773540

> <CNNaffinity_variance>
0.0760708824

$$$$
[H]c1c([H])c2c(c([H])c1-c1c([H])c([H])c3c(c1[H])C(C([H])([H])[H])(C([H])([H])[H])C(=O)N3[H])C(C([H])([H])[H])(C([H])([H])[H])C(=O)N2[H]


 26 29  0  0  0  0  0  0  0  0999 V2000
  153.4801  140.1265  182.2553 C   0  0  0  0  0  0  0  0  0  0  0  0
  154.4122  141.0669  181.8265 C   0  0  0  0  0  0  0  0  0  0  0  0
  155.5402  141.3995  182.5285 C   0  0  0  0  0  0  0  0  0  0  0  0
  155.7659  140.7649  183.7322 C   0  0  0  0  0  0  0  0  0  0  0  0
  154.8602  139.8199  184.1966 C   0  0  0  0  0  0  0  0  0  0  0  0
  153.7229  139.4980  183.4683 C   0  0  0  0  0  0  0  0  0  0  0  0
  156.9754  141.2357  184.3110 N   0  0  0  0  0  0  0  0  0  0  0  0
  157.5626  142.2099  183.4610 C   0  0  0  0  0  0  0  0  0  0  0  0
  158.6132  142.8604  183.5966 O   0  0  0  0  0  0  0  0  0  0  0  0
  156.6563  142.3415  182.2943 C   0  0  0  0  0  0  0  0  0  0  0  0
  157.4402  141.9303  181.0486 C   0  0  0  0  0  0  0  0  0  0  0  0
  156.2157  143.7744  182.2068 C   0  0  0  0  0  0  0  0  0  0  0  0
  157.3882  140.9215  185.2284 H   0  0  0  0  0  0  0  0  0  0  0  0
  152.2949  139.8147  181.4593 C   0  0  0  0  0  0  0  0  0  0  0  0
  151.2226  139.2125  182.0716 C   0  0  0  0  0  0  0  0  0  0  0  0
  150.0630  138.8969  181.3381 C   0  0  0  0  0  0  0  0  0  0  0  0
  149.9863  139.1862  179.9988 C   0  0  0  0  0  0  0  0  0  0  0  0
  151.0788  139.8006  179.3708 C   0  0  0  0  0  0  0  0  0  0  0  0
  152.2030  140.0989  180.1145 C   0  0  0  0  0  0  0  0  0  0  0  0
  148.7252  138.7696  179.5034 N   0  0  0  0  0  0  0  0  0  0  0  0
  147.9819  138.1987  180.5649 C   0  0  0  0  0  0  0  0  0  0  0  0
  146.8114  137.7328  180.4321 O   0  0  0  0  0  0  0  0  0  0  0  0
  148.8194  138.2646  181.7746 C   0  0  0  0  0  0  0  0  0  0  0  0
  149.0511  136.8357  182.2234 C   0  0  0  0  0  0  0  0  0  0  0  0
  148.1841  139.0891  182.8721 C   0  0  0  0  0  0  0  0  0  0  0  0
  148.3900  138.8691  178.4981 H   0  0  0  0  0  0  0  0  0  0  0  0
  1 14  1  0  0  0
 14 15  2  0  0  0
 15 16  1  0  0  0
 16 17  2  0  0  0
 17 18  1  0  0  0
 18 19  2  0  0  0
 17 20  1  0  0  0
 20 21  1  0  0  0
 21 22  2  0  0  0
 21 23  1  0  0  0
 23 24  1  0  0  0
 23 25  1  0  0  0
  1  2  2  0  0  0
  2  3  1  0  0  0
  3  4  2  0  0  0
  4  5  1  0  0  0
  5  6  2  0  0  0
  4  7  1  0  0  0
  7  8  1  0  0  0
  8  9  2  0  0  0
  8 10  1  0  0  0
 10 11  1  0  0  0
 10 12  1  0  0  0
  6  1  1  0  0  0
 19 14  1  0  0  0
 10  3  1  0  0  0
 23 16  1  0  0  0
 20 26  1  0  0  0
  7 13  1  0  0  0
M  END
> <minimizedAffinity>
-9.09406

> <CNNscore>
0.4157083631

> <CNNaffinity>
5.5906820297

> <CNN_VS>
2.3240933418

> <CNNaffinity_variance>
0.0668528378

$$$$
[H]c1c([H])c2c(c([H])c1-c1c([H])c([H])c3c(c1[H])C(C([H])([H])[H])(C([H])([H])[H])C(=O)N3[H])C(C([H])([H])[H])(C([H])([H])[H])C(=O)N2[H]


 26 29  0  0  0  0  0  0  0  0999 V2000
  152.3729  139.7896  181.5601 C   0  0  0  0  0  0  0  0  0  0  0  0
  151.2421  139.2368  182.1538 C   0  0  0  0  0  0  0  0  0  0  0  0
  150.0927  138.9340  181.4733 C   0  0  0  0  0  0  0  0  0  0  0  0
  150.0535  139.1923  180.1190 C   0  0  0  0  0  0  0  0  0  0  0  0
  151.1608  139.7437  179.4874 C   0  0  0  0  0  0  0  0  0  0  0  0
  152.3160  140.0429  180.1970 C   0  0  0  0  0  0  0  0  0  0  0  0
  148.7903  138.8152  179.5883 N   0  0  0  0  0  0  0  0  0  0  0  0
  147.9742  138.2928  180.6263 C   0  0  0  0  0  0  0  0  0  0  0  0
  146.8115  137.8550  180.5858 O   0  0  0  0  0  0  0  0  0  0  0  0
  148.7885  138.3560  181.8643 C   0  0  0  0  0  0  0  0  0  0  0  0
  148.9764  136.9262  182.3701 C   0  0  0  0  0  0  0  0  0  0  0  0
  148.0458  139.1908  182.8676 C   0  0  0  0  0  0  0  0  0  0  0  0
  148.4884  138.9022  178.5823 H   0  0  0  0  0  0  0  0  0  0  0  0
  153.5708  140.0899  182.3416 C   0  0  0  0  0  0  0  0  0  0  0  0
  154.4483  141.0383  181.8748 C   0  0  0  0  0  0  0  0  0  0  0  0
  155.6129  141.3553  182.5997 C   0  0  0  0  0  0  0  0  0  0  0  0
  155.8896  140.7209  183.7847 C   0  0  0  0  0  0  0  0  0  0  0  0
  154.9962  139.7525  184.2639 C   0  0  0  0  0  0  0  0  0  0  0  0
  153.8619  139.4618  183.5324 C   0  0  0  0  0  0  0  0  0  0  0  0
  157.1099  141.2189  184.3063 N   0  0  0  0  0  0  0  0  0  0  0  0
  157.6200  142.1996  183.4214 C   0  0  0  0  0  0  0  0  0  0  0  0
  158.7026  142.8276  183.6170 O   0  0  0  0  0  0  0  0  0  0  0  0
  156.6728  142.3163  182.2996 C   0  0  0  0  0  0  0  0  0  0  0  0
  157.4319  141.9318  181.0455 C   0  0  0  0  0  0  0  0  0  0  0  0
  156.0856  143.7053  182.1824 C   0  0  0  0  0  0  0  0  0  0  0  0
  157.5692  140.9078  185.2148 H   0  0  0  0  0  0  0  0  0  0  0  0
  1 14  1  0  0  0
 14 15  2  0  0  0
 15 16  1  0  0  0
 16 17  2  0  0  0
 17 18  1  0  0  0
 18 19  2  0  0  0
 17 20  1  0  0  0
 20 21  1  0  0  0
 21 22  2  0  0  0
 21 23  1  0  0  0
 23 24  1  0  0  0
 23 25  1  0  0  0
  1  2  2  0  0  0
  2  3  1  0  0  0
  3  4  2  0  0  0
  4  5  1  0  0  0
  5  6  2  0  0  0
  4  7  1  0  0  0
  7  8  1  0  0  0
  8  9  2  0  0  0
  8 10  1  0  0  0
 10 11  1  0  0  0
 10 12  1  0  0  0
  6  1  1  0  0  0
 19 14  1  0  0  0
 10  3  1  0  0  0
 23 16  1  0  0  0
 20 26  1  0  0  0
  7 13  1  0  0  0
M  END
> <minimizedAffinity>
-9.10849

> <CNNscore>
0.4109136462

> <CNNaffinity>
5.5875725746

> <CNN_VS>
2.2960097790

> <CNNaffinity_variance>
0.0649006739

$$$$
[H]c1c([H])c2c(c([H])c1-c1c([H])c([H])c3c(c1[H])C(C([H])([H])[H])(C([H])([H])[H])C(=O)N3[H])C(C([H])([H])[H])(C([H])([H])[H])C(=O)N2[H]


 26 29  0  0  0  0  0  0  0  0999 V2000
  154.0917  140.6211  182.6482 C   0  0  0  0  0  0  0  0  0  0  0  0
  155.4179  140.3441  182.9665 C   0  0  0  0  0  0  0  0  0  0  0  0
  156.4076  141.2900  183.0056 C   0  0  0  0  0  0  0  0  0  0  0  0
  156.0700  142.5947  182.7121 C   0  0  0  0  0  0  0  0  0  0  0  0
  154.7575  142.9139  182.3892 C   0  0  0  0  0  0  0  0  0  0  0  0
  153.7698  141.9387  182.3555 C   0  0  0  0  0  0  0  0  0  0  0  0
  157.2185  143.4267  182.8037 N   0  0  0  0  0  0  0  0  0  0  0  0
  158.3457  142.6442  183.1688 C   0  0  0  0  0  0  0  0  0  0  0  0
  159.5278  142.9818  183.3528 O   0  0  0  0  0  0  0  0  0  0  0  0
  157.8551  141.2514  183.3074 C   0  0  0  0  0  0  0  0  0  0  0  0
  158.0798  140.8219  184.7568 C   0  0  0  0  0  0  0  0  0  0  0  0
  158.6364  140.3866  182.3604 C   0  0  0  0  0  0  0  0  0  0  0  0
  157.2477  144.4660  182.6310 H   0  0  0  0  0  0  0  0  0  0  0  0
  153.0805  139.5663  182.6241 C   0  0  0  0  0  0  0  0  0  0  0  0
  151.9793  139.7195  181.8170 C   0  0  0  0  0  0  0  0  0  0  0  0
  150.9840  138.7251  181.7665 C   0  0  0  0  0  0  0  0  0  0  0  0
  151.0987  137.5863  182.5237 C   0  0  0  0  0  0  0  0  0  0  0  0
  152.2211  137.4267  183.3484 C   0  0  0  0  0  0  0  0  0  0  0  0
  153.1817  138.4179  183.3781 C   0  0  0  0  0  0  0  0  0  0  0  0
  149.9734  136.7564  182.2909 N   0  0  0  0  0  0  0  0  0  0  0  0
  149.1207  137.3923  181.3564 C   0  0  0  0  0  0  0  0  0  0  0  0
  148.0299  136.8941  180.9480 O   0  0  0  0  0  0  0  0  0  0  0  0
  149.7454  138.6752  180.9917 C   0  0  0  0  0  0  0  0  0  0  0  0
  148.7818  139.7658  181.4146 C   0  0  0  0  0  0  0  0  0  0  0  0
  150.0619  138.7639  179.5152 C   0  0  0  0  0  0  0  0  0  0  0  0
  149.7968  135.8094  182.7437 H   0  0  0  0  0  0  0  0  0  0  0  0
  1 14  1  0  0  0
 14 15  2  0  0  0
 15 16  1  0  0  0
 16 17  2  0  0  0
 17 18  1  0  0  0
 18 19  2  0  0  0
 17 20  1  0  0  0
 20 21  1  0  0  0
 21 22  2  0  0  0
 21 23  1  0  0  0
 23 24  1  0  0  0
 23 25  1  0  0  0
  1  2  2  0  0  0
  2  3  1  0  0  0
  3  4  2  0  0  0
  4  5  1  0  0  0
  5  6  2  0  0  0
  4  7  1  0  0  0
  7  8  1  0  0  0
  8  9  2  0  0  0
  8 10  1  0  0  0
 10 11  1  0  0  0
 10 12  1  0  0  0
  6  1  1  0  0  0
 19 14  1  0  0  0
 10  3  1  0  0  0
 23 16  1  0  0  0
 20 26  1  0  0  0
  7 13  1  0  0  0
M  END
> <minimizedAffinity>
-9.02329

> <CNNscore>
0.3909431100

> <CNNaffinity>
5.6642441750

> <CNN_VS>
2.2143971920

> <CNNaffinity_variance>
0.0902004242

$$$$
[H]c1c([H])c2c(c([H])c1-c1c([H])c([H])c3c(c1[H])C(C([H])([H])[H])(C([H])([H])[H])C(=O)N3[H])C(C([H])([H])[H])(C([H])([H])[H])C(=O)N2[H]


 26 29  0  0  0  0  0  0  0  0999 V2000
  153.6320  137.3570  186.9787 C   0  0  0  0  0  0  0  0  0  0  0  0
  153.5526  136.9478  188.3065 C   0  0  0  0  0  0  0  0  0  0  0  0
  154.5904  137.0349  189.1960 C   0  0  0  0  0  0  0  0  0  0  0  0
  155.7854  137.5591  188.7493 C   0  0  0  0  0  0  0  0  0  0  0  0
  155.9069  137.9793  187.4312 C   0  0  0  0  0  0  0  0  0  0  0  0
  154.8415  137.8818  186.5463 C   0  0  0  0  0  0  0  0  0  0  0  0
  156.7366  137.5701  189.8050 N   0  0  0  0  0  0  0  0  0  0  0  0
  156.1482  137.0365  190.9820 C   0  0  0  0  0  0  0  0  0  0  0  0
  156.6334  136.8714  192.1145 O   0  0  0  0  0  0  0  0  0  0  0  0
  154.7547  136.6780  190.6221 C   0  0  0  0  0  0  0  0  0  0  0  0
  153.8197  137.5218  191.4875 C   0  0  0  0  0  0  0  0  0  0  0  0
  154.5665  135.2130  190.8931 C   0  0  0  0  0  0  0  0  0  0  0  0
  157.7298  137.9172  189.7424 H   0  0  0  0  0  0  0  0  0  0  0  0
  152.4872  137.2384  186.0780 C   0  0  0  0  0  0  0  0  0  0  0  0
  151.2619  136.9030  186.6011 C   0  0  0  0  0  0  0  0  0  0  0  0
  150.1356  136.7797  185.7654 C   0  0  0  0  0  0  0  0  0  0  0  0
  150.2447  136.9927  184.4142 C   0  0  0  0  0  0  0  0  0  0  0  0
  151.4936  137.3351  183.8770 C   0  0  0  0  0  0  0  0  0  0  0  0
  152.5810  137.4492  184.7200 C   0  0  0  0  0  0  0  0  0  0  0  0
  148.9766  136.8061  183.8089 N   0  0  0  0  0  0  0  0  0  0  0  0
  148.0366  136.4641  184.8111 C   0  0  0  0  0  0  0  0  0  0  0  0
  146.8129  136.2341  184.5777 O   0  0  0  0  0  0  0  0  0  0  0  0
  148.7536  136.4379  186.0973 C   0  0  0  0  0  0  0  0  0  0  0  0
  148.6442  135.0230  186.6293 C   0  0  0  0  0  0  0  0  0  0  0  0
  148.2019  137.4409  187.0860 C   0  0  0  0  0  0  0  0  0  0  0  0
  148.7638  136.9065  182.7708 H   0  0  0  0  0  0  0  0  0  0  0  0
  1 14  1  0  0  0
 14 15  2  0  0  0
 15 16  1  0  0  0
 16 17  2  0  0  0
 17 18  1  0  0  0
 18 19  2  0  0  0
 17 20  1  0  0  0
 20 21  1  0  0  0
 21 22  2  0  0  0
 21 23  1  0  0  0
 23 24  1  0  0  0
 23 25  1  0  0  0
  1  2  2  0  0  0
  2  3  1  0  0  0
  3  4  2  0  0  0
  4  5  1  0  0  0
  5  6  2  0  0  0
  4  7  1  0  0  0
  7  8  1  0  0  0
  8  9  2  0  0  0
  8 10  1  0  0  0
 10 11  1  0  0  0
 10 12  1  0  0  0
  6  1  1  0  0  0
 19 14  1  0  0  0
 10  3  1  0  0  0
 23 16  1  0  0  0
 20 26  1  0  0  0
  7 13  1  0  0  0
M  END
> <minimizedAffinity>
-5.75790

> <CNNscore>
0.3713599741

> <CNNaffinity>
5.0349049568

> <CNN_VS>
1.8697621822

> <CNNaffinity_variance>
0.1085929498

$$$$
[H]c1c([H])c2c(c([H])c1-c1c([H])c([H])c3c(c1[H])C(C([H])([H])[H])(C([H])([H])[H])C(=O)N3[H])C(C([H])([H])[H])(C([H])([H])[H])C(=O)N2[H]


 26 29  0  0  0  0  0  0  0  0999 V2000
  153.4532  140.3093  182.2796 C   0  0  0  0  0  0  0  0  0  0  0  0
  153.5804  139.2994  183.2288 C   0  0  0  0  0  0  0  0  0  0  0  0
  152.8022  138.1727  183.2543 C   0  0  0  0  0  0  0  0  0  0  0  0
  151.8348  138.0303  182.2816 C   0  0  0  0  0  0  0  0  0  0  0  0
  151.6746  139.0152  181.3156 C   0  0  0  0  0  0  0  0  0  0  0  0
  152.4749  140.1498  181.3086 C   0  0  0  0  0  0  0  0  0  0  0  0
  151.1333  136.8086  182.4684 N   0  0  0  0  0  0  0  0  0  0  0  0
  151.6563  136.1271  183.5991 C   0  0  0  0  0  0  0  0  0  0  0  0
  151.3275  135.0373  184.0985 O   0  0  0  0  0  0  0  0  0  0  0  0
  152.7413  136.9852  184.1341 C   0  0  0  0  0  0  0  0  0  0  0  0
  154.0460  136.1948  184.0435 C   0  0  0  0  0  0  0  0  0  0  0  0
  152.4098  137.3191  185.5602 C   0  0  0  0  0  0  0  0  0  0  0  0
  150.3443  136.4478  181.8700 H   0  0  0  0  0  0  0  0  0  0  0  0
  154.3158  141.4888  182.3057 C   0  0  0  0  0  0  0  0  0  0  0  0
  155.6275  141.3615  181.9175 C   0  0  0  0  0  0  0  0  0  0  0  0
  156.4892  142.4749  181.9287 C   0  0  0  0  0  0  0  0  0  0  0  0
  156.0314  143.7054  182.3281 C   0  0  0  0  0  0  0  0  0  0  0  0
  154.6935  143.8388  182.7249 C   0  0  0  0  0  0  0  0  0  0  0  0
  153.8709  142.7301  182.7039 C   0  0  0  0  0  0  0  0  0  0  0  0
  157.0896  144.6451  182.2474 N   0  0  0  0  0  0  0  0  0  0  0  0
  158.2531  143.9859  181.7819 C   0  0  0  0  0  0  0  0  0  0  0  0
  159.3662  144.5648  181.6065 O   0  0  0  0  0  0  0  0  0  0  0  0
  157.9011  142.5726  181.5629 C   0  0  0  0  0  0  0  0  0  0  0  0
  158.7738  141.7560  182.4948 C   0  0  0  0  0  0  0  0  0  0  0  0
  158.0871  142.1481  180.1231 C   0  0  0  0  0  0  0  0  0  0  0  0
  157.0223  145.6780  182.4955 H   0  0  0  0  0  0  0  0  0  0  0  0
  1 14  1  0  0  0
 14 15  2  0  0  0
 15 16  1  0  0  0
 16 17  2  0  0  0
 17 18  1  0  0  0
 18 19  2  0  0  0
 17 20  1  0  0  0
 20 21  1  0  0  0
 21 22  2  0  0  0
 21 23  1  0  0  0
 23 24  1  0  0  0
 23 25  1  0  0  0
  1  2  2  0  0  0
  2  3  1  0  0  0
  3  4  2  0  0  0
  4  5  1  0  0  0
  5  6  2  0  0  0
  4  7  1  0  0  0
  7  8  1  0  0  0
  8  9  2  0  0  0
  8 10  1  0  0  0
 10 11  1  0  0  0
 10 12  1  0  0  0
  6  1  1  0  0  0
 19 14  1  0  0  0
 10  3  1  0  0  0
 23 16  1  0  0  0
 20 26  1  0  0  0
  7 13  1  0  0  0
M  END
> <minimizedAffinity>
-8.88181

> <CNNscore>
0.3642585576

> <CNNaffinity>
5.7898468971

> <CNN_VS>
2.1090013981

> <CNNaffinity_variance>
0.0758361071

$$$$
[H]c1c([H])c2c(c([H])c1-c1c([H])c([H])c3c(c1[H])C(C([H])([H])[H])(C([H])([H])[H])C(=O)N3[H])C(C([H])([H])[H])(C([H])([H])[H])C(=O)N2[H]


 26 29  0  0  0  0  0  0  0  0999 V2000
  154.8539  140.9144  183.2739 C   0  0  0  0  0  0  0  0  0  0  0  0
  156.1326  140.8605  182.7272 C   0  0  0  0  0  0  0  0  0  0  0  0
  156.7927  141.9478  182.2194 C   0  0  0  0  0  0  0  0  0  0  0  0
  156.1521  143.1689  182.2515 C   0  0  0  0  0  0  0  0  0  0  0  0
  154.8750  143.2663  182.7886 C   0  0  0  0  0  0  0  0  0  0  0  0
  154.2242  142.1507  183.2980 C   0  0  0  0  0  0  0  0  0  0  0  0
  156.9861  144.1707  181.6856 N   0  0  0  0  0  0  0  0  0  0  0  0
  158.2129  143.5897  181.2687 C   0  0  0  0  0  0  0  0  0  0  0  0
  159.2040  144.1135  180.7315 O   0  0  0  0  0  0  0  0  0  0  0  0
  158.1210  142.1469  181.5997 C   0  0  0  0  0  0  0  0  0  0  0  0
  159.2253  141.8303  182.6075 C   0  0  0  0  0  0  0  0  0  0  0  0
  158.3074  141.3657  180.3308 C   0  0  0  0  0  0  0  0  0  0  0  0
  156.7476  145.1922  181.5832 H   0  0  0  0  0  0  0  0  0  0  0  0
  154.2024  139.7171  183.8009 C   0  0  0  0  0  0  0  0  0  0  0  0
  154.4866  139.3160  185.0838 C   0  0  0  0  0  0  0  0  0  0  0  0
  153.8787  138.1680  185.6268 C   0  0  0  0  0  0  0  0  0  0  0  0
  152.9921  137.4315  184.8820 C   0  0  0  0  0  0  0  0  0  0  0  0
  152.6999  137.8379  183.5724 C   0  0  0  0  0  0  0  0  0  0  0  0
  153.3106  138.9677  183.0657 C   0  0  0  0  0  0  0  0  0  0  0  0
  152.5298  136.3373  185.6554 N   0  0  0  0  0  0  0  0  0  0  0  0
  153.1447  136.3850  186.9300 C   0  0  0  0  0  0  0  0  0  0  0  0
  152.9305  135.5364  187.8458 O   0  0  0  0  0  0  0  0  0  0  0  0
  154.0287  137.5629  186.9490 C   0  0  0  0  0  0  0  0  0  0  0  0
  155.4373  137.0481  187.1673 C   0  0  0  0  0  0  0  0  0  0  0  0
  153.6369  138.5612  188.0158 C   0  0  0  0  0  0  0  0  0  0  0  0
  151.8337  135.5995  185.3326 H   0  0  0  0  0  0  0  0  0  0  0  0
  1 14  1  0  0  0
 14 15  2  0  0  0
 15 16  1  0  0  0
 16 17  2  0  0  0
 17 18  1  0  0  0
 18 19  2  0  0  0
 17 20  1  0  0  0
 20 21  1  0  0  0
 21 22  2  0  0  0
 21 23  1  0  0  0
 23 24  1  0  0  0
 23 25  1  0  0  0
  1  2  2  0  0  0
  2  3  1  0  0  0
  3  4  2  0  0  0
  4  5  1  0  0  0
  5  6  2  0  0  0
  4  7  1  0  0  0
  7  8  1  0  0  0
  8  9  2  0  0  0
  8 10  1  0  0  0
 10 11  1  0  0  0
 10 12  1  0  0  0
  6  1  1  0  0  0
 19 14  1  0  0  0
 10  3  1  0  0  0
 23 16  1  0  0  0
 20 26  1  0  0  0
  7 13  1  0  0  0
M  END
> <minimizedAffinity>
-8.87576

> <CNNscore>
0.3395967185

> <CNNaffinity>
5.6486721039

> <CNN_VS>
1.9182704687

> <CNNaffinity_variance>
0.0682574362

$$$$
[H]c1c([H])c2c(c([H])c1-c1c([H])c([H])c3c(c1[H])C(C([H])([H])[H])(C([H])([H])[H])C(=O)N3[H])C(C([H])([H])[H])(C([H])([H])[H])C(=O)N2[H]


 26 29  0  0  0  0  0  0  0  0999 V2000
  154.3056  139.8636  183.7561 C   0  0  0  0  0  0  0  0  0  0  0  0
  154.5422  139.3957  185.0453 C   0  0  0  0  0  0  0  0  0  0  0  0
  153.9552  138.2756  185.5712 C   0  0  0  0  0  0  0  0  0  0  0  0
  153.0771  137.5692  184.7760 C   0  0  0  0  0  0  0  0  0  0  0  0
  152.8130  138.0022  183.4831 C   0  0  0  0  0  0  0  0  0  0  0  0
  153.4195  139.1408  182.9701 C   0  0  0  0  0  0  0  0  0  0  0  0
  152.5723  136.4470  185.4868 N   0  0  0  0  0  0  0  0  0  0  0  0
  153.1363  136.4150  186.7895 C   0  0  0  0  0  0  0  0  0  0  0  0
  152.9607  135.6066  187.7173 O   0  0  0  0  0  0  0  0  0  0  0  0
  154.0387  137.5888  186.8786 C   0  0  0  0  0  0  0  0  0  0  0  0
  155.4565  137.0680  187.1105 C   0  0  0  0  0  0  0  0  0  0  0  0
  153.5814  138.4409  188.0275 C   0  0  0  0  0  0  0  0  0  0  0  0
  151.8851  135.7373  185.1195 H   0  0  0  0  0  0  0  0  0  0  0  0
  154.9645  141.0667  183.2522 C   0  0  0  0  0  0  0  0  0  0  0  0
  156.1877  140.9470  182.6384 C   0  0  0  0  0  0  0  0  0  0  0  0
  156.8534  142.0829  182.1397 C   0  0  0  0  0  0  0  0  0  0  0  0
  156.2900  143.3285  182.2596 C   0  0  0  0  0  0  0  0  0  0  0  0
  155.0418  143.4543  182.8856 C   0  0  0  0  0  0  0  0  0  0  0  0
  154.4116  142.3233  183.3651 C   0  0  0  0  0  0  0  0  0  0  0  0
  157.1568  144.2898  181.6820 N   0  0  0  0  0  0  0  0  0  0  0  0
  158.3048  143.6293  181.1813 C   0  0  0  0  0  0  0  0  0  0  0  0
  159.2638  144.2251  180.6068 O   0  0  0  0  0  0  0  0  0  0  0  0
  158.1430  142.1922  181.4601 C   0  0  0  0  0  0  0  0  0  0  0  0
  159.2863  141.7929  182.3713 C   0  0  0  0  0  0  0  0  0  0  0  0
  158.1287  141.3577  180.1986 C   0  0  0  0  0  0  0  0  0  0  0  0
  156.9758  145.3376  181.6317 H   0  0  0  0  0  0  0  0  0  0  0  0
  1 14  1  0  0  0
 14 15  2  0  0  0
 15 16  1  0  0  0
 16 17  2  0  0  0
 17 18  1  0  0  0
 18 19  2  0  0  0
 17 20  1  0  0  0
 20 21  1  0  0  0
 21 22  2  0  0  0
 21 23  1  0  0  0
 23 24  1  0  0  0
 23 25  1  0  0  0
  1  2  2  0  0  0
  2  3  1  0  0  0
  3  4  2  0  0  0
  4  5  1  0  0  0
  5  6  2  0  0  0
  4  7  1  0  0  0
  7  8  1  0  0  0
  8  9  2  0  0  0
  8 10  1  0  0  0
 10 11  1  0  0  0
 10 12  1  0  0  0
  6  1  1  0  0  0
 19 14  1  0  0  0
 10  3  1  0  0  0
 23 16  1  0  0  0
 20 26  1  0  0  0
  7 13  1  0  0  0
M  END
> <minimizedAffinity>
-8.91753

> <CNNscore>
0.3334620297

> <CNNaffinity>
5.6692762375

> <CNN_VS>
1.8904883862

> <CNNaffinity_variance>
0.0726824105

$$$$
[H]c1c(N([H])c2c([H])c([H])c([H])c3c([H])c(C#N)c([H])c([H])c23)nnc(C([H])([H])N([H])C([H])([H])C([H])([H])O[C@]2([H])C([H])([H])C([H])([H])C([H])([H])C([H])([H])[C@]2([H])N([H])C(=O)c2c([H])c([H])c(Cl)c([H])c2Cl)c1[H]


 44 48  0  0  0  0  0  0  0  0999 V2000
  153.4548  137.6500  184.4274 N   0  0  0  0  0  0  0  0  0  0  0  0
  154.3629  137.3165  183.9916 H   0  0  0  0  0  0  0  0  0  0  0  0
  153.6490  139.0059  184.8987 C   0  0  0  0  0  0  0  0  0  0  0  0
  156.8144  140.9321  182.7983 C   0  0  0  0  0  0  0  0  0  0  0  0
  155.5433  141.5340  182.8593 C   0  0  0  0  0  0  0  0  0  0  0  0
  154.5442  140.9001  183.5389 C   0  0  0  0  0  0  0  0  0  0  0  0
  154.7265  139.6907  184.1709 C   0  0  0  0  0  0  0  0  0  0  0  0
  155.9701  139.1666  184.0744 N   0  0  0  0  0  0  0  0  0  0  0  0
  156.9350  139.7774  183.4189 N   0  0  0  0  0  0  0  0  0  0  0  0
  157.8127  141.5766  182.0718 N   0  0  0  0  0  0  0  0  0  0  0  0
  158.1114  141.1192  181.1390 H   0  0  0  0  0  0  0  0  0  0  0  0
  161.3297  142.7887  185.4680 C   0  0  0  0  0  0  0  0  0  0  0  0
  160.6632  141.6363  185.1437 C   0  0  0  0  0  0  0  0  0  0  0  0
  159.6976  141.6331  184.1250 C   0  0  0  0  0  0  0  0  0  0  0  0
  159.4213  142.7784  183.4557 C   0  0  0  0  0  0  0  0  0  0  0  0
  158.4462  142.7829  182.4346 C   0  0  0  0  0  0  0  0  0  0  0  0
  158.2011  143.9688  181.7967 C   0  0  0  0  0  0  0  0  0  0  0  0
  158.9074  145.1291  182.1627 C   0  0  0  0  0  0  0  0  0  0  0  0
  159.8494  145.1224  183.1492 C   0  0  0  0  0  0  0  0  0  0  0  0
  160.1132  143.9411  183.8043 C   0  0  0  0  0  0  0  0  0  0  0  0
  161.0710  143.9642  184.8080 C   0  0  0  0  0  0  0  0  0  0  0  0
  163.1288  142.7507  187.3530 N   0  0  0  0  0  0  0  0  0  0  0  0
  162.3200  142.7683  186.5203 C   0  0  0  0  0  0  0  0  0  0  0  0
  153.1933  136.7654  185.5475 C   0  0  0  0  0  0  0  0  0  0  0  0
  153.7090  137.3160  186.8384 C   0  0  0  0  0  0  0  0  0  0  0  0
  153.2293  136.6347  187.9480 O   0  0  0  0  0  0  0  0  0  0  0  0
  153.6266  137.1329  189.1555 C   0  0  0  0  0  0  0  0  0  0  0  0
  154.5543  138.3115  189.0183 C   0  0  0  0  0  0  0  0  0  0  0  0
  155.2142  138.6454  190.3381 C   0  0  0  0  0  0  0  0  0  0  0  0
  154.4834  138.0251  191.5049 C   0  0  0  0  0  0  0  0  0  0  0  0
  154.4606  136.5179  191.4248 C   0  0  0  0  0  0  0  0  0  0  0  0
  154.2081  136.0299  190.0075 C   0  0  0  0  0  0  0  0  0  0  0  0
  155.3911  135.4383  189.4312 N   0  0  0  0  0  0  0  0  0  0  0  0
  155.5434  134.0529  189.1904 C   0  0  0  0  0  0  0  0  0  0  0  0
  154.5941  133.2822  189.4959 O   0  0  0  0  0  0  0  0  0  0  0  0
  156.2099  136.0437  189.1618 H   0  0  0  0  0  0  0  0  0  0  0  0
  156.7283  133.4561  188.6112 C   0  0  0  0  0  0  0  0  0  0  0  0
  156.7337  133.0567  187.2850 C   0  0  0  0  0  0  0  0  0  0  0  0
  157.8492  132.4825  186.7022 C   0  0  0  0  0  0  0  0  0  0  0  0
  159.0158  132.2823  187.4278 C   0  0  0  0  0  0  0  0  0  0  0  0
  160.4202  131.5555  186.6798 Cl  0  0  0  0  0  0  0  0  0  0  0  0
  159.0081  132.6805  188.7478 C   0  0  0  0  0  0  0  0  0  0  0  0
  157.8949  133.2521  189.3253 C   0  0  0  0  0  0  0  0  0  0  0  0
  157.8955  133.7547  191.0009 Cl  0  0  0  0  0  0  0  0  0  0  0  0
 22 23  3  0  0  0
 23 12  1  0  0  0
 12 13  2  0  0  0
 13 14  1  0  0  0
 14 15  2  0  0  0
 15 16  1  0  0  0
 16 10  1  0  0  0
 10  4  1  0  0  0
  4  5  2  0  0  0
  5  6  1  0  0  0
  6  7  2  0  0  0
  7  3  1  0  0  0
  3  1  1  0  0  0
  1 24  1  0  0  0
 24 25  1  0  0  0
 25 26  1  0  0  0
 26 27  1  0  0  0
 27 28  1  0  0  0
 28 29  1  0  0  0
 29 30  1  0  0  0
 30 31  1  0  0  0
 31 32  1  0  0  0
 32 33  1  0  0  0
 33 34  1  0  0  0
 34 35  2  0  0  0
 34 37  1  0  0  0
 37 38  2  0  0  0
 38 39  1  0  0  0
 39 40  2  0  0  0
 40 41  1  0  0  0
 40 42  1  0  0  0
 42 43  2  0  0  0
 43 44  1  0  0  0
  7  8  1  0  0  0
  8  9  2  0  0  0
 16 17  2  0  0  0
 17 18  1  0  0  0
 18 19  2  0  0  0
 19 20  1  0  0  0
 20 21  2  0  0  0
 21 12  1  0  0  0
 20 15  1  0  0  0
  9  4  1  0  0  0
 32 27  1  0  0  0
 43 37  1  0  0  0
 10 11  1  0  0  0
  1  2  1  0  0  0
 33 36  1  0  0  0
M  END
> <minimizedAffinity>
-8.96782

> <CNNscore>
0.3790171444

> <CNNaffinity>
7.1553010941

> <CNN_VS>
2.7119817734

> <CNNaffinity_variance>
0.0528406277

$$$$
[H]c1c(N([H])c2c([H])c([H])c([H])c3c([H])c(C#N)c([H])c([H])c23)nnc(C([H])([H])N([H])C([H])([H])C([H])([H])O[C@]2([H])C([H])([H])C([H])([H])C([H])([H])C([H])([H])[C@]2([H])N([H])C(=O)c2c([H])c([H])c(Cl)c([H])c2Cl)c1[H]


 44 48  0  0  0  0  0  0  0  0999 V2000
  153.8606  135.3485  185.1445 N   0  0  0  0  0  0  0  0  0  0  0  0
  154.8055  135.6995  185.4761 H   0  0  0  0  0  0  0  0  0  0  0  0
  153.0962  136.4836  184.6696 C   0  0  0  0  0  0  0  0  0  0  0  0
  155.4484  140.0130  184.2781 C   0  0  0  0  0  0  0  0  0  0  0  0
  155.7904  139.0438  185.2402 C   0  0  0  0  0  0  0  0  0  0  0  0
  155.0238  137.9200  185.3472 C   0  0  0  0  0  0  0  0  0  0  0  0
  153.9244  137.6918  184.5508 C   0  0  0  0  0  0  0  0  0  0  0  0
  153.6504  138.6610  183.6474 N   0  0  0  0  0  0  0  0  0  0  0  0
  154.3893  139.7458  183.5432 N   0  0  0  0  0  0  0  0  0  0  0  0
  156.2216  141.1690  184.2060 N   0  0  0  0  0  0  0  0  0  0  0  0
  155.8381  142.0460  184.7085 H   0  0  0  0  0  0  0  0  0  0  0  0
  160.8799  142.2711  185.7739 C   0  0  0  0  0  0  0  0  0  0  0  0
  159.6515  142.2105  186.3778 C   0  0  0  0  0  0  0  0  0  0  0  0
  158.5073  141.8782  185.6359 C   0  0  0  0  0  0  0  0  0  0  0  0
  158.6169  141.6145  184.3112 C   0  0  0  0  0  0  0  0  0  0  0  0
  157.4686  141.2862  183.5583 C   0  0  0  0  0  0  0  0  0  0  0  0
  157.6354  141.0373  182.2228 C   0  0  0  0  0  0  0  0  0  0  0  0
  158.9150  141.1122  181.6428 C   0  0  0  0  0  0  0  0  0  0  0  0
  160.0231  141.4291  182.3723 C   0  0  0  0  0  0  0  0  0  0  0  0
  159.8797  141.6830  183.7173 C   0  0  0  0  0  0  0  0  0  0  0  0
  161.0222  142.0096  184.4338 C   0  0  0  0  0  0  0  0  0  0  0  0
  162.9900  142.8901  187.1723 N   0  0  0  0  0  0  0  0  0  0  0  0
  162.0443  142.6152  186.5577 C   0  0  0  0  0  0  0  0  0  0  0  0
  153.2153  134.7630  186.3048 C   0  0  0  0  0  0  0  0  0  0  0  0
  154.1857  134.0625  187.2011 C   0  0  0  0  0  0  0  0  0  0  0  0
  154.1966  134.5727  188.4915 O   0  0  0  0  0  0  0  0  0  0  0  0
  154.7966  135.7910  188.6324 C   0  0  0  0  0  0  0  0  0  0  0  0
  156.2021  135.6859  189.1633 C   0  0  0  0  0  0  0  0  0  0  0  0
  156.7264  137.0375  189.5959 C   0  0  0  0  0  0  0  0  0  0  0  0
  155.9161  138.1689  189.0097 C   0  0  0  0  0  0  0  0  0  0  0  0
  154.4740  138.1245  189.4536 C   0  0  0  0  0  0  0  0  0  0  0  0
  153.9274  136.7061  189.4617 C   0  0  0  0  0  0  0  0  0  0  0  0
  153.7245  136.2233  190.8060 N   0  0  0  0  0  0  0  0  0  0  0  0
  152.4778  135.7794  191.3054 C   0  0  0  0  0  0  0  0  0  0  0  0
  151.4792  135.8054  190.5368 O   0  0  0  0  0  0  0  0  0  0  0  0
  154.5300  136.1851  191.4837 H   0  0  0  0  0  0  0  0  0  0  0  0
  152.2709  135.2932  192.6531 C   0  0  0  0  0  0  0  0  0  0  0  0
  152.3019  133.9342  192.9191 C   0  0  0  0  0  0  0  0  0  0  0  0
  152.1069  133.4376  194.1955 C   0  0  0  0  0  0  0  0  0  0  0  0
  151.8709  134.2869  195.2681 C   0  0  0  0  0  0  0  0  0  0  0  0
  151.6262  133.6471  196.8778 Cl  0  0  0  0  0  0  0  0  0  0  0  0
  151.8403  135.6391  195.0010 C   0  0  0  0  0  0  0  0  0  0  0  0
  152.0348  136.1304  193.7281 C   0  0  0  0  0  0  0  0  0  0  0  0
  151.9948  137.8483  193.3997 Cl  0  0  0  0  0  0  0  0  0  0  0  0
 22 23  3  0  0  0
 23 12  1  0  0  0
 12 13  2  0  0  0
 13 14  1  0  0  0
 14 15  2  0  0  0
 15 16  1  0  0  0
 16 10  1  0  0  0
 10  4  1  0  0  0
  4  5  2  0  0  0
  5  6  1  0  0  0
  6  7  2  0  0  0
  7  3  1  0  0  0
  3  1  1  0  0  0
  1 24  1  0  0  0
 24 25  1  0  0  0
 25 26  1  0  0  0
 26 27  1  0  0  0
 27 28  1  0  0  0
 28 29  1  0  0  0
 29 30  1  0  0  0
 30 31  1  0  0  0
 31 32  1  0  0  0
 32 33  1  0  0  0
 33 34  1  0  0  0
 34 35  2  0  0  0
 34 37  1  0  0  0
 37 38  2  0  0  0
 38 39  1  0  0  0
 39 40  2  0  0  0
 40 41  1  0  0  0
 40 42  1  0  0  0
 42 43  2  0  0  0
 43 44  1  0  0  0
  7  8  1  0  0  0
  8  9  2  0  0  0
 16 17  2  0  0  0
 17 18  1  0  0  0
 18 19  2  0  0  0
 19 20  1  0  0  0
 20 21  2  0  0  0
 21 12  1  0  0  0
 20 15  1  0  0  0
  9  4  1  0  0  0
 32 27  1  0  0  0
 43 37  1  0  0  0
 10 11  1  0  0  0
  1  2  1  0  0  0
 33 36  1  0  0  0
M  END
> <minimizedAffinity>
-8.85793

> <CNNscore>
0.3124415278

> <CNNaffinity>
6.7899751663

> <CNN_VS>
2.1214702129

> <CNNaffinity_variance>
0.1225078553

$$$$
[H]c1c(N([H])c2c([H])c([H])c([H])c3c([H])c(C#N)c([H])c([H])c23)nnc(C([H])([H])N([H])C([H])([H])C([H])([H])O[C@]2([H])C([H])([H])C([H])([H])C([H])([H])C([H])([H])[C@]2([H])N([H])C(=O)c2c([H])c([H])c(Cl)c([H])c2Cl)c1[H]


 44 48  0  0  0  0  0  0  0  0999 V2000
  153.8783  138.5062  185.6216 N   0  0  0  0  0  0  0  0  0  0  0  0
  154.0587  139.3547  186.2326 H   0  0  0  0  0  0  0  0  0  0  0  0
  153.5996  138.9667  184.2767 C   0  0  0  0  0  0  0  0  0  0  0  0
  156.9548  140.8482  182.4480 C   0  0  0  0  0  0  0  0  0  0  0  0
  157.1437  139.9893  183.5472 C   0  0  0  0  0  0  0  0  0  0  0  0
  156.0548  139.3960  184.1167 C   0  0  0  0  0  0  0  0  0  0  0  0
  154.7725  139.6021  183.6602 C   0  0  0  0  0  0  0  0  0  0  0  0
  154.6600  140.4375  182.6019 N   0  0  0  0  0  0  0  0  0  0  0  0
  155.7100  141.0106  182.0515 N   0  0  0  0  0  0  0  0  0  0  0  0
  158.0737  141.4715  181.9010 N   0  0  0  0  0  0  0  0  0  0  0  0
  158.5545  140.9729  181.0711 H   0  0  0  0  0  0  0  0  0  0  0  0
  161.4090  142.8020  185.4335 C   0  0  0  0  0  0  0  0  0  0  0  0
  160.8299  141.6194  185.0549 C   0  0  0  0  0  0  0  0  0  0  0  0
  159.8945  141.5856  184.0090 C   0  0  0  0  0  0  0  0  0  0  0  0
  159.5607  142.7312  183.3671 C   0  0  0  0  0  0  0  0  0  0  0  0
  158.6154  142.7045  182.3186 C   0  0  0  0  0  0  0  0  0  0  0  0
  158.3091  143.8918  181.7103 C   0  0  0  0  0  0  0  0  0  0  0  0
  158.9264  145.0836  182.1319 C   0  0  0  0  0  0  0  0  0  0  0  0
  159.8397  145.1070  183.1447 C   0  0  0  0  0  0  0  0  0  0  0  0
  160.1638  143.9250  183.7709 C   0  0  0  0  0  0  0  0  0  0  0  0
  161.0905  143.9787  184.8023 C   0  0  0  0  0  0  0  0  0  0  0  0
  163.1521  142.8100  187.3708 N   0  0  0  0  0  0  0  0  0  0  0  0
  162.3697  142.8129  186.5130 C   0  0  0  0  0  0  0  0  0  0  0  0
  152.7096  137.8484  186.1757 C   0  0  0  0  0  0  0  0  0  0  0  0
  153.0359  137.0393  187.3900 C   0  0  0  0  0  0  0  0  0  0  0  0
  153.1582  137.8099  188.5375 O   0  0  0  0  0  0  0  0  0  0  0  0
  154.4147  137.8711  189.0682 C   0  0  0  0  0  0  0  0  0  0  0  0
  155.2926  136.7367  188.6091 C   0  0  0  0  0  0  0  0  0  0  0  0
  156.5569  136.6536  189.4359 C   0  0  0  0  0  0  0  0  0  0  0  0
  156.8196  137.9342  190.1917 C   0  0  0  0  0  0  0  0  0  0  0  0
  155.7113  138.2579  191.1641 C   0  0  0  0  0  0  0  0  0  0  0  0
  154.3393  137.9775  190.5727 C   0  0  0  0  0  0  0  0  0  0  0  0
  153.7213  136.8279  191.1876 N   0  0  0  0  0  0  0  0  0  0  0  0
  152.8685  136.8983  192.3138 C   0  0  0  0  0  0  0  0  0  0  0  0
  152.6302  138.0290  192.8170 O   0  0  0  0  0  0  0  0  0  0  0  0
  153.8931  135.8629  190.8017 H   0  0  0  0  0  0  0  0  0  0  0  0
  152.2457  135.7472  192.9324 C   0  0  0  0  0  0  0  0  0  0  0  0
  152.8976  135.0562  193.9403 C   0  0  0  0  0  0  0  0  0  0  0  0
  152.3302  133.9520  194.5507 C   0  0  0  0  0  0  0  0  0  0  0  0
  151.0762  133.4893  194.1754 C   0  0  0  0  0  0  0  0  0  0  0  0
  150.3688  132.0921  194.9550 Cl  0  0  0  0  0  0  0  0  0  0  0  0
  150.4292  134.1786  193.1719 C   0  0  0  0  0  0  0  0  0  0  0  0
  150.9975  135.2782  192.5657 C   0  0  0  0  0  0  0  0  0  0  0  0
  150.1679  136.1464  191.2937 Cl  0  0  0  0  0  0  0  0  0  0  0  0
 22 23  3  0  0  0
 23 12  1  0  0  0
 12 13  2  0  0  0
 13 14  1  0  0  0
 14 15  2  0  0  0
 15 16  1  0  0  0
 16 10  1  0  0  0
 10  4  1  0  0  0
  4  5  2  0  0  0
  5  6  1  0  0  0
  6  7  2  0  0  0
  7  3  1  0  0  0
  3  1  1  0  0  0
  1 24  1  0  0  0
 24 25  1  0  0  0
 25 26  1  0  0  0
 26 27  1  0  0  0
 27 28  1  0  0  0
 28 29  1  0  0  0
 29 30  1  0  0  0
 30 31  1  0  0  0
 31 32  1  0  0  0
 32 33  1  0  0  0
 33 34  1  0  0  0
 34 35  2  0  0  0
 34 37  1  0  0  0
 37 38  2  0  0  0
 38 39  1  0  0  0
 39 40  2  0  0  0
 40 41  1  0  0  0
 40 42  1  0  0  0
 42 43  2  0  0  0
 43 44  1  0  0  0
  7  8  1  0  0  0
  8  9  2  0  0  0
 16 17  2  0  0  0
 17 18  1  0  0  0
 18 19  2  0  0  0
 19 20  1  0  0  0
 20 21  2  0  0  0
 21 12  1  0  0  0
 20 15  1  0  0  0
  9  4  1  0  0  0
 32 27  1  0  0  0
 43 37  1  0  0  0
 10 11  1  0  0  0
  1  2  1  0  0  0
 33 36  1  0  0  0
M  END
> <minimizedAffinity>
-9.79113

> <CNNscore>
0.3082266152

> <CNNaffinity>
6.8597383499

> <CNN_VS>
2.1143538952

> <CNNaffinity_variance>
0.0425828099

$$$$
[H]c1c(N([H])c2c([H])c([H])c([H])c3c([H])c(C#N)c([H])c([H])c23)nnc(C([H])([H])N([H])C([H])([H])C([H])([H])O[C@]2([H])C([H])([H])C([H])([H])C([H])([H])C([H])([H])[C@]2([H])N([H])C(=O)c2c([H])c([H])c(Cl)c([H])c2Cl)c1[H]


 44 48  0  0  0  0  0  0  0  0999 V2000
  153.4857  137.3181  190.7388 N   0  0  0  0  0  0  0  0  0  0  0  0
  153.7464  136.3228  190.4797 H   0  0  0  0  0  0  0  0  0  0  0  0
  154.5426  138.1973  190.2823 C   0  0  0  0  0  0  0  0  0  0  0  0
  154.8519  138.1884  186.0342 C   0  0  0  0  0  0  0  0  0  0  0  0
  155.9789  137.8850  186.8214 C   0  0  0  0  0  0  0  0  0  0  0  0
  155.8568  137.8922  188.1804 C   0  0  0  0  0  0  0  0  0  0  0  0
  154.6726  138.1850  188.8186 C   0  0  0  0  0  0  0  0  0  0  0  0
  153.6289  138.4673  188.0052 N   0  0  0  0  0  0  0  0  0  0  0  0
  153.7456  138.4607  186.6937 N   0  0  0  0  0  0  0  0  0  0  0  0
  155.0035  138.2097  184.6500 N   0  0  0  0  0  0  0  0  0  0  0  0
  155.4810  137.3521  184.1971 H   0  0  0  0  0  0  0  0  0  0  0  0
  157.1360  142.4088  182.8633 C   0  0  0  0  0  0  0  0  0  0  0  0
  157.5243  141.4327  183.7429 C   0  0  0  0  0  0  0  0  0  0  0  0
  156.6640  140.3678  184.0525 C   0  0  0  0  0  0  0  0  0  0  0  0
  155.4388  140.3030  183.4772 C   0  0  0  0  0  0  0  0  0  0  0  0
  154.5664  139.2379  183.7898 C   0  0  0  0  0  0  0  0  0  0  0  0
  153.3379  139.2261  183.1864 C   0  0  0  0  0  0  0  0  0  0  0  0
  152.9791  140.2497  182.2904 C   0  0  0  0  0  0  0  0  0  0  0  0
  153.8237  141.2776  181.9895 C   0  0  0  0  0  0  0  0  0  0  0  0
  155.0646  141.3101  182.5839 C   0  0  0  0  0  0  0  0  0  0  0  0
  155.9009  142.3704  182.2652 C   0  0  0  0  0  0  0  0  0  0  0  0
  158.7744  144.3574  182.3063 N   0  0  0  0  0  0  0  0  0  0  0  0
  158.0385  143.4958  182.5594 C   0  0  0  0  0  0  0  0  0  0  0  0
  153.4001  137.3513  192.1870 C   0  0  0  0  0  0  0  0  0  0  0  0
  152.6706  136.1689  192.7398 C   0  0  0  0  0  0  0  0  0  0  0  0
  152.1321  135.3551  191.7533 O   0  0  0  0  0  0  0  0  0  0  0  0
  152.0064  134.0374  192.0881 C   0  0  0  0  0  0  0  0  0  0  0  0
  152.7700  133.6823  193.3369 C   0  0  0  0  0  0  0  0  0  0  0  0
  152.8672  132.1826  193.5113 C   0  0  0  0  0  0  0  0  0  0  0  0
  151.8489  131.4514  192.6695 C   0  0  0  0  0  0  0  0  0  0  0  0
  152.0409  131.7085  191.1945 C   0  0  0  0  0  0  0  0  0  0  0  0
  152.3745  133.1644  190.9121 C   0  0  0  0  0  0  0  0  0  0  0  0
  153.7483  133.3241  190.5013 N   0  0  0  0  0  0  0  0  0  0  0  0
  154.1636  134.1717  189.4479 C   0  0  0  0  0  0  0  0  0  0  0  0
  153.2871  134.8293  188.8250 O   0  0  0  0  0  0  0  0  0  0  0  0
  154.5143  132.7933  190.9923 H   0  0  0  0  0  0  0  0  0  0  0  0
  155.5410  134.3353  189.0340 C   0  0  0  0  0  0  0  0  0  0  0  0
  155.9152  134.0698  187.7271 C   0  0  0  0  0  0  0  0  0  0  0  0
  157.2230  134.2153  187.3004 C   0  0  0  0  0  0  0  0  0  0  0  0
  158.2196  134.6362  188.1705 C   0  0  0  0  0  0  0  0  0  0  0  0
  159.8699  134.8169  187.6192 Cl  0  0  0  0  0  0  0  0  0  0  0  0
  157.8450  134.8998  189.4709 C   0  0  0  0  0  0  0  0  0  0  0  0
  156.5410  134.7536  189.8927 C   0  0  0  0  0  0  0  0  0  0  0  0
  156.0757  135.0913  191.5449 Cl  0  0  0  0  0  0  0  0  0  0  0  0
 22 23  3  0  0  0
 23 12  1  0  0  0
 12 13  2  0  0  0
 13 14  1  0  0  0
 14 15  2  0  0  0
 15 16  1  0  0  0
 16 10  1  0  0  0
 10  4  1  0  0  0
  4  5  2  0  0  0
  5  6  1  0  0  0
  6  7  2  0  0  0
  7  3  1  0  0  0
  3  1  1  0  0  0
  1 24  1  0  0  0
 24 25  1  0  0  0
 25 26  1  0  0  0
 26 27  1  0  0  0
 27 28  1  0  0  0
 28 29  1  0  0  0
 29 30  1  0  0  0
 30 31  1  0  0  0
 31 32  1  0  0  0
 32 33  1  0  0  0
 33 34  1  0  0  0
 34 35  2  0  0  0
 34 37  1  0  0  0
 37 38  2  0  0  0
 38 39  1  0  0  0
 39 40  2  0  0  0
 40 41  1  0  0  0
 40 42  1  0  0  0
 42 43  2  0  0  0
 43 44  1  0  0  0
  7  8  1  0  0  0
  8  9  2  0  0  0
 16 17  2  0  0  0
 17 18  1  0  0  0
 18 19  2  0  0  0
 19 20  1  0  0  0
 20 21  2  0  0  0
 21 12  1  0  0  0
 20 15  1  0  0  0
  9  4  1  0  0  0
 32 27  1  0  0  0
 43 37  1  0  0  0
 10 11  1  0  0  0
  1  2  1  0  0  0
 33 36  1  0  0  0
M  END
> <minimizedAffinity>
-7.44111

> <CNNscore>
0.2087854594

> <CNNaffinity>
6.4106874466

> <CNN_VS>
1.3384582996

> <CNNaffinity_variance>
0.3411744237

$$$$
[H]c1c(N([H])c2c([H])c([H])c([H])c3c([H])c(C#N)c([H])c([H])c23)nnc(C([H])([H])N([H])C([H])([H])C([H])([H])O[C@]2([H])C([H])([H])C([H])([H])C([H])([H])C([H])([H])[C@]2([H])N([H])C(=O)c2c([H])c([H])c(Cl)c([H])c2Cl)c1[H]


 44 48  0  0  0  0  0  0  0  0999 V2000
  150.3116  138.9006  182.2532 N   0  0  0  0  0  0  0  0  0  0  0  0
  149.6898  139.5244  181.6615 H   0  0  0  0  0  0  0  0  0  0  0  0
  151.5059  138.5972  181.4917 C   0  0  0  0  0  0  0  0  0  0  0  0
  155.0244  140.1044  183.3599 C   0  0  0  0  0  0  0  0  0  0  0  0
  154.3529  138.9987  183.9150 C   0  0  0  0  0  0  0  0  0  0  0  0
  153.2285  138.5314  183.2990 C   0  0  0  0  0  0  0  0  0  0  0  0
  152.7196  139.0977  182.1521 C   0  0  0  0  0  0  0  0  0  0  0  0
  153.4115  140.1559  181.6705 N   0  0  0  0  0  0  0  0  0  0  0  0
  154.4967  140.6077  182.2639 N   0  0  0  0  0  0  0  0  0  0  0  0
  156.1506  140.5889  184.0207 N   0  0  0  0  0  0  0  0  0  0  0  0
  156.0672  140.7316  185.0890 H   0  0  0  0  0  0  0  0  0  0  0  0
  160.5762  142.2226  185.7863 C   0  0  0  0  0  0  0  0  0  0  0  0
  159.3466  141.9876  186.3433 C   0  0  0  0  0  0  0  0  0  0  0  0
  158.2791  141.5366  185.5515 C   0  0  0  0  0  0  0  0  0  0  0  0
  158.4646  141.3310  184.2250 C   0  0  0  0  0  0  0  0  0  0  0  0
  157.3928  140.8838  183.4222 C   0  0  0  0  0  0  0  0  0  0  0  0
  157.6335  140.7005  182.0873 C   0  0  0  0  0  0  0  0  0  0  0  0
  158.9112  140.9555  181.5565 C   0  0  0  0  0  0  0  0  0  0  0  0
  159.9454  141.3871  182.3341 C   0  0  0  0  0  0  0  0  0  0  0  0
  159.7269  141.5780  183.6795 C   0  0  0  0  0  0  0  0  0  0  0  0
  160.7943  142.0240  184.4457 C   0  0  0  0  0  0  0  0  0  0  0  0
  162.5428  143.0610  187.2767 N   0  0  0  0  0  0  0  0  0  0  0  0
  161.6609  142.6866  186.6211 C   0  0  0  0  0  0  0  0  0  0  0  0
  149.5543  137.6871  182.4974 C   0  0  0  0  0  0  0  0  0  0  0  0
  150.0796  136.9153  183.6653 C   0  0  0  0  0  0  0  0  0  0  0  0
  149.7950  137.5157  184.8835 O   0  0  0  0  0  0  0  0  0  0  0  0
  148.9504  136.8154  185.6961 C   0  0  0  0  0  0  0  0  0  0  0  0
  148.1097  137.7117  186.5670 C   0  0  0  0  0  0  0  0  0  0  0  0
  147.4185  136.9234  187.6577 C   0  0  0  0  0  0  0  0  0  0  0  0
  147.3925  135.4448  187.3526 C   0  0  0  0  0  0  0  0  0  0  0  0
  148.7808  134.8632  187.2400 C   0  0  0  0  0  0  0  0  0  0  0  0
  149.7240  135.7901  186.4905 C   0  0  0  0  0  0  0  0  0  0  0  0
  150.6995  136.3818  187.3735 N   0  0  0  0  0  0  0  0  0  0  0  0
  152.0613  136.0015  187.4135 C   0  0  0  0  0  0  0  0  0  0  0  0
  152.4537  135.0912  186.6352 O   0  0  0  0  0  0  0  0  0  0  0  0
  150.4165  137.1450  188.0421 H   0  0  0  0  0  0  0  0  0  0  0  0
  153.0429  136.5939  188.2972 C   0  0  0  0  0  0  0  0  0  0  0  0
  153.6317  135.8372  189.2967 C   0  0  0  0  0  0  0  0  0  0  0  0
  154.5720  136.3737  190.1579 C   0  0  0  0  0  0  0  0  0  0  0  0
  154.9661  137.7009  190.0542 C   0  0  0  0  0  0  0  0  0  0  0  0
  156.1564  138.3680  191.1488 Cl  0  0  0  0  0  0  0  0  0  0  0  0
  154.3786  138.4524  189.0586 C   0  0  0  0  0  0  0  0  0  0  0  0
  153.4420  137.9146  188.2025 C   0  0  0  0  0  0  0  0  0  0  0  0
  152.7029  138.8764  186.9419 Cl  0  0  0  0  0  0  0  0  0  0  0  0
 22 23  3  0  0  0
 23 12  1  0  0  0
 12 13  2  0  0  0
 13 14  1  0  0  0
 14 15  2  0  0  0
 15 16  1  0  0  0
 16 10  1  0  0  0
 10  4  1  0  0  0
  4  5  2  0  0  0
  5  6  1  0  0  0
  6  7  2  0  0  0
  7  3  1  0  0  0
  3  1  1  0  0  0
  1 24  1  0  0  0
 24 25  1  0  0  0
 25 26  1  0  0  0
 26 27  1  0  0  0
 27 28  1  0  0  0
 28 29  1  0  0  0
 29 30  1  0  0  0
 30 31  1  0  0  0
 31 32  1  0  0  0
 32 33  1  0  0  0
 33 34  1  0  0  0
 34 35  2  0  0  0
 34 37  1  0  0  0
 37 38  2  0  0  0
 38 39  1  0  0  0
 39 40  2  0  0  0
 40 41  1  0  0  0
 40 42  1  0  0  0
 42 43  2  0  0  0
 43 44  1  0  0  0
  7  8  1  0  0  0
  8  9  2  0  0  0
 16 17  2  0  0  0
 17 18  1  0  0  0
 18 19  2  0  0  0
 19 20  1  0  0  0
 20 21  2  0  0  0
 21 12  1  0  0  0
 20 15  1  0  0  0
  9  4  1  0  0  0
 32 27  1  0  0  0
 43 37  1  0  0  0
 10 11  1  0  0  0
  1  2  1  0  0  0
 33 36  1  0  0  0
M  END
> <minimizedAffinity>
-8.92366

> <CNNscore>
0.1971331388

> <CNNaffinity>
6.8277106285

> <CNN_VS>
1.3459680080

> <CNNaffinity_variance>
0.2181012183

$$$$
[H]c1c(N([H])c2c([H])c([H])c([H])c3c([H])c(C#N)c([H])c([H])c23)nnc(C([H])([H])N([H])C([H])([H])C([H])([H])O[C@]2([H])C([H])([H])C([H])([H])C([H])([H])C([H])([H])[C@]2([H])N([H])C(=O)c2c([H])c([H])c(Cl)c([H])c2Cl)c1[H]


 44 48  0  0  0  0  0  0  0  0999 V2000
  153.8418  137.3853  190.8437 N   0  0  0  0  0  0  0  0  0  0  0  0
  153.1650  137.0586  190.0947 H   0  0  0  0  0  0  0  0  0  0  0  0
  154.8359  138.2331  190.2183 C   0  0  0  0  0  0  0  0  0  0  0  0
  154.5542  138.1955  185.9684 C   0  0  0  0  0  0  0  0  0  0  0  0
  153.4405  138.5716  186.7430 C   0  0  0  0  0  0  0  0  0  0  0  0
  153.5536  138.5780  188.1029 C   0  0  0  0  0  0  0  0  0  0  0  0
  154.7159  138.2307  188.7536 C   0  0  0  0  0  0  0  0  0  0  0  0
  155.7478  137.8798  187.9519 N   0  0  0  0  0  0  0  0  0  0  0  0
  155.6399  137.8733  186.6396 N   0  0  0  0  0  0  0  0  0  0  0  0
  154.4104  138.1619  184.5836 N   0  0  0  0  0  0  0  0  0  0  0  0
  154.4549  137.1908  184.1107 H   0  0  0  0  0  0  0  0  0  0  0  0
  151.3355  139.0606  180.6964 C   0  0  0  0  0  0  0  0  0  0  0  0
  151.6056  137.9663  181.4756 C   0  0  0  0  0  0  0  0  0  0  0  0
  152.5603  138.0392  182.5018 C   0  0  0  0  0  0  0  0  0  0  0  0
  153.2211  139.2009  182.7254 C   0  0  0  0  0  0  0  0  0  0  0  0
  154.1873  139.2784  183.7518 C   0  0  0  0  0  0  0  0  0  0  0  0
  154.8305  140.4736  183.9287 C   0  0  0  0  0  0  0  0  0  0  0  0
  154.5235  141.5719  183.1047 C   0  0  0  0  0  0  0  0  0  0  0  0
  153.5893  141.4948  182.1138 C   0  0  0  0  0  0  0  0  0  0  0  0
  152.9293  140.3031  181.9178 C   0  0  0  0  0  0  0  0  0  0  0  0
  151.9891  140.2507  180.8987 C   0  0  0  0  0  0  0  0  0  0  0  0
  149.5445  138.8738  178.8126 N   0  0  0  0  0  0  0  0  0  0  0  0
  150.3483  138.9623  179.6455 C   0  0  0  0  0  0  0  0  0  0  0  0
  154.4689  136.1888  191.3736 C   0  0  0  0  0  0  0  0  0  0  0  0
  153.7971  135.6984  192.6161 C   0  0  0  0  0  0  0  0  0  0  0  0
  152.5968  135.0499  192.3629 O   0  0  0  0  0  0  0  0  0  0  0  0
  151.7644  134.9221  193.4376 C   0  0  0  0  0  0  0  0  0  0  0  0
  152.2884  135.6253  194.6621 C   0  0  0  0  0  0  0  0  0  0  0  0
  151.5186  135.2176  195.8991 C   0  0  0  0  0  0  0  0  0  0  0  0
  150.1969  134.5748  195.5523 C   0  0  0  0  0  0  0  0  0  0  0  0
  150.3736  133.3136  194.7421 C   0  0  0  0  0  0  0  0  0  0  0  0
  151.4590  133.4646  193.6887 C   0  0  0  0  0  0  0  0  0  0  0  0
  152.6321  132.6932  194.0211 N   0  0  0  0  0  0  0  0  0  0  0  0
  152.9917  131.4864  193.3770 C   0  0  0  0  0  0  0  0  0  0  0  0
  152.2474  131.0513  192.4576 O   0  0  0  0  0  0  0  0  0  0  0  0
  153.2823  133.0177  194.7837 H   0  0  0  0  0  0  0  0  0  0  0  0
  154.1685  130.7107  193.7070 C   0  0  0  0  0  0  0  0  0  0  0  0
  154.1709  129.8799  194.8153 C   0  0  0  0  0  0  0  0  0  0  0  0
  155.2793  129.1267  195.1582 C   0  0  0  0  0  0  0  0  0  0  0  0
  156.4416  129.1733  194.4002 C   0  0  0  0  0  0  0  0  0  0  0  0
  157.8369  128.2158  194.8435 Cl  0  0  0  0  0  0  0  0  0  0  0  0
  156.4370  130.0010  193.2975 C   0  0  0  0  0  0  0  0  0  0  0  0
  155.3309  130.7502  192.9590 C   0  0  0  0  0  0  0  0  0  0  0  0
  155.3350  131.7970  191.5573 Cl  0  0  0  0  0  0  0  0  0  0  0  0
 22 23  3  0  0  0
 23 12  1  0  0  0
 12 13  2  0  0  0
 13 14  1  0  0  0
 14 15  2  0  0  0
 15 16  1  0  0  0
 16 10  1  0  0  0
 10  4  1  0  0  0
  4  5  2  0  0  0
  5  6  1  0  0  0
  6  7  2  0  0  0
  7  3  1  0  0  0
  3  1  1  0  0  0
  1 24  1  0  0  0
 24 25  1  0  0  0
 25 26  1  0  0  0
 26 27  1  0  0  0
 27 28  1  0  0  0
 28 29  1  0  0  0
 29 30  1  0  0  0
 30 31  1  0  0  0
 31 32  1  0  0  0
 32 33  1  0  0  0
 33 34  1  0  0  0
 34 35  2  0  0  0
 34 37  1  0  0  0
 37 38  2  0  0  0
 38 39  1  0  0  0
 39 40  2  0  0  0
 40 41  1  0  0  0
 40 42  1  0  0  0
 42 43  2  0  0  0
 43 44  1  0  0  0
  7  8  1  0  0  0
  8  9  2  0  0  0
 16 17  2  0  0  0
 17 18  1  0  0  0
 18 19  2  0  0  0
 19 20  1  0  0  0
 20 21  2  0  0  0
 21 12  1  0  0  0
 20 15  1  0  0  0
  9  4  1  0  0  0
 32 27  1  0  0  0
 43 37  1  0  0  0
 10 11  1  0  0  0
  1  2  1  0  0  0
 33 36  1  0  0  0
M  END
> <minimizedAffinity>
-7.70409

> <CNNscore>
0.1952126473

> <CNNaffinity>
5.8094291687

> <CNN_VS>
1.1340740919

> <CNNaffinity_variance>
0.0471426770

$$$$
[H]c1c(N([H])c2c([H])c([H])c([H])c3c([H])c(C#N)c([H])c([H])c23)nnc(C([H])([H])N([H])C([H])([H])C([H])([H])O[C@]2([H])C([H])([H])C([H])([H])C([H])([H])C([H])([H])[C@]2([H])N([H])C(=O)c2c([H])c([H])c(Cl)c([H])c2Cl)c1[H]


 44 48  0  0  0  0  0  0  0  0999 V2000
  153.9210  137.3750  190.7802 N   0  0  0  0  0  0  0  0  0  0  0  0
  153.3317  136.9106  190.0298 H   0  0  0  0  0  0  0  0  0  0  0  0
  154.8567  138.2710  190.1323 C   0  0  0  0  0  0  0  0  0  0  0  0
  154.5016  138.1935  185.8884 C   0  0  0  0  0  0  0  0  0  0  0  0
  153.3773  138.4894  186.6822 C   0  0  0  0  0  0  0  0  0  0  0  0
  153.5142  138.5103  188.0397 C   0  0  0  0  0  0  0  0  0  0  0  0
  154.7107  138.2531  188.6701 C   0  0  0  0  0  0  0  0  0  0  0  0
  155.7510  137.9761  187.8506 N   0  0  0  0  0  0  0  0  0  0  0  0
  155.6202  137.9557  186.5405 N   0  0  0  0  0  0  0  0  0  0  0  0
  154.3357  138.1431  184.5066 N   0  0  0  0  0  0  0  0  0  0  0  0
  154.3743  137.1664  184.0447 H   0  0  0  0  0  0  0  0  0  0  0  0
  151.2110  138.9831  180.6461 C   0  0  0  0  0  0  0  0  0  0  0  0
  151.4958  137.8989  181.4340 C   0  0  0  0  0  0  0  0  0  0  0  0
  152.4620  137.9880  182.4481 C   0  0  0  0  0  0  0  0  0  0  0  0
  153.1194  139.1554  182.6511 C   0  0  0  0  0  0  0  0  0  0  0  0
  154.0971  139.2492  183.6653 C   0  0  0  0  0  0  0  0  0  0  0  0
  154.7361  140.4494  183.8214 C   0  0  0  0  0  0  0  0  0  0  0  0
  154.4139  141.5369  182.9890 C   0  0  0  0  0  0  0  0  0  0  0  0
  153.4686  141.4442  182.0101 C   0  0  0  0  0  0  0  0  0  0  0  0
  152.8125  140.2471  181.8349 C   0  0  0  0  0  0  0  0  0  0  0  0
  151.8607  140.1787  180.8276 C   0  0  0  0  0  0  0  0  0  0  0  0
  149.4140  138.7929  178.7682 N   0  0  0  0  0  0  0  0  0  0  0  0
  150.2122  138.8683  179.6080 C   0  0  0  0  0  0  0  0  0  0  0  0
  154.6372  136.3069  191.4523 C   0  0  0  0  0  0  0  0  0  0  0  0
  153.8141  135.6524  192.5153 C   0  0  0  0  0  0  0  0  0  0  0  0
  152.5591  136.2267  192.6587 O   0  0  0  0  0  0  0  0  0  0  0  0
  151.8686  135.8490  193.7744 C   0  0  0  0  0  0  0  0  0  0  0  0
  152.6659  134.9338  194.6662 C   0  0  0  0  0  0  0  0  0  0  0  0
  151.7877  134.2929  195.7183 C   0  0  0  0  0  0  0  0  0  0  0  0
  150.4799  135.0294  195.8839 C   0  0  0  0  0  0  0  0  0  0  0  0
  149.6651  135.0336  194.6131 C   0  0  0  0  0  0  0  0  0  0  0  0
  150.5316  135.2643  193.3857 C   0  0  0  0  0  0  0  0  0  0  0  0
  150.6514  134.0679  192.5882 N   0  0  0  0  0  0  0  0  0  0  0  0
  149.7335  133.6979  191.5777 C   0  0  0  0  0  0  0  0  0  0  0  0
  148.7487  134.4523  191.3552 O   0  0  0  0  0  0  0  0  0  0  0  0
  151.4576  133.4072  192.7401 H   0  0  0  0  0  0  0  0  0  0  0  0
  149.8513  132.4991  190.7748 C   0  0  0  0  0  0  0  0  0  0  0  0
  150.4320  132.5526  189.5185 C   0  0  0  0  0  0  0  0  0  0  0  0
  150.5585  131.4256  188.7263 C   0  0  0  0  0  0  0  0  0  0  0  0
  150.1057  130.1874  189.1617 C   0  0  0  0  0  0  0  0  0  0  0  0
  150.2716  128.7692  188.1511 Cl  0  0  0  0  0  0  0  0  0  0  0  0
  149.5280  130.1365  190.4125 C   0  0  0  0  0  0  0  0  0  0  0  0
  149.4034  131.2614  191.1989 C   0  0  0  0  0  0  0  0  0  0  0  0
  148.6694  131.1861  192.7851 Cl  0  0  0  0  0  0  0  0  0  0  0  0
 22 23  3  0  0  0
 23 12  1  0  0  0
 12 13  2  0  0  0
 13 14  1  0  0  0
 14 15  2  0  0  0
 15 16  1  0  0  0
 16 10  1  0  0  0
 10  4  1  0  0  0
  4  5  2  0  0  0
  5  6  1  0  0  0
  6  7  2  0  0  0
  7  3  1  0  0  0
  3  1  1  0  0  0
  1 24  1  0  0  0
 24 25  1  0  0  0
 25 26  1  0  0  0
 26 27  1  0  0  0
 27 28  1  0  0  0
 28 29  1  0  0  0
 29 30  1  0  0  0
 30 31  1  0  0  0
 31 32  1  0  0  0
 32 33  1  0  0  0
 33 34  1  0  0  0
 34 35  2  0  0  0
 34 37  1  0  0  0
 37 38  2  0  0  0
 38 39  1  0  0  0
 39 40  2  0  0  0
 40 41  1  0  0  0
 40 42  1  0  0  0
 42 43  2  0  0  0
 43 44  1  0  0  0
  7  8  1  0  0  0
  8  9  2  0  0  0
 16 17  2  0  0  0
 17 18  1  0  0  0
 18 19  2  0  0  0
 19 20  1  0  0  0
 20 21  2  0  0  0
 21 12  1  0  0  0
 20 15  1  0  0  0
  9  4  1  0  0  0
 32 27  1  0  0  0
 43 37  1  0  0  0
 10 11  1  0  0  0
  1  2  1  0  0  0
 33 36  1  0  0  0
M  END
> <minimizedAffinity>
-7.52826

> <CNNscore>
0.1942739189

> <CNNaffinity>
5.8249478340

> <CNN_VS>
1.1316354275

> <CNNaffinity_variance>
0.0653145537

$$$$
[H]c1c(N([H])c2c([H])c([H])c([H])c3c([H])c(C#N)c([H])c([H])c23)nnc(C([H])([H])N([H])C([H])([H])C([H])([H])O[C@]2([H])C([H])([H])C([H])([H])C([H])([H])C([H])([H])[C@]2([H])N([H])C(=O)c2c([H])c([H])c(Cl)c([H])c2Cl)c1[H]


 44 48  0  0  0  0  0  0  0  0999 V2000
  152.0289  136.5680  184.5945 N   0  0  0  0  0  0  0  0  0  0  0  0
  151.9675  136.9867  183.6215 H   0  0  0  0  0  0  0  0  0  0  0  0
  153.4275  136.4679  184.9579 C   0  0  0  0  0  0  0  0  0  0  0  0
  155.4627  140.1345  184.2121 C   0  0  0  0  0  0  0  0  0  0  0  0
  155.9900  139.2139  185.1374 C   0  0  0  0  0  0  0  0  0  0  0  0
  155.3223  138.0448  185.3597 C   0  0  0  0  0  0  0  0  0  0  0  0
  154.1488  137.7250  184.7148 C   0  0  0  0  0  0  0  0  0  0  0  0
  153.6963  138.6516  183.8390 N   0  0  0  0  0  0  0  0  0  0  0  0
  154.3397  139.7801  183.6236 N   0  0  0  0  0  0  0  0  0  0  0  0
  156.1392  141.3371  184.0231 N   0  0  0  0  0  0  0  0  0  0  0  0
  155.6656  142.2301  184.4064 H   0  0  0  0  0  0  0  0  0  0  0  0
  160.7847  142.2966  185.7176 C   0  0  0  0  0  0  0  0  0  0  0  0
  159.5480  142.2071  186.3008 C   0  0  0  0  0  0  0  0  0  0  0  0
  158.4112  141.9331  185.5246 C   0  0  0  0  0  0  0  0  0  0  0  0
  158.5361  141.7550  184.1871 C   0  0  0  0  0  0  0  0  0  0  0  0
  157.3953  141.4857  183.4001 C   0  0  0  0  0  0  0  0  0  0  0  0
  157.5778  141.3227  182.0535 C   0  0  0  0  0  0  0  0  0  0  0  0
  158.8653  141.4246  181.4956 C   0  0  0  0  0  0  0  0  0  0  0  0
  159.9661  141.6843  182.2580 C   0  0  0  0  0  0  0  0  0  0  0  0
  159.8071  141.8515  183.6148 C   0  0  0  0  0  0  0  0  0  0  0  0
  160.9425  142.1215  184.3652 C   0  0  0  0  0  0  0  0  0  0  0  0
  162.8786  142.8142  187.1801 N   0  0  0  0  0  0  0  0  0  0  0  0
  161.9412  142.5795  186.5367 C   0  0  0  0  0  0  0  0  0  0  0  0
  151.4410  135.2444  184.5044 C   0  0  0  0  0  0  0  0  0  0  0  0
  149.9607  135.2933  184.3001 C   0  0  0  0  0  0  0  0  0  0  0  0
  149.2450  135.0418  185.4621 O   0  0  0  0  0  0  0  0  0  0  0  0
  148.0765  135.7364  185.5897 C   0  0  0  0  0  0  0  0  0  0  0  0
  148.2515  137.2126  185.3468 C   0  0  0  0  0  0  0  0  0  0  0  0
  147.0306  137.9887  185.7894 C   0  0  0  0  0  0  0  0  0  0  0  0
  145.8239  137.0951  185.9500 C   0  0  0  0  0  0  0  0  0  0  0  0
  146.0397  136.0319  186.9996 C   0  0  0  0  0  0  0  0  0  0  0  0
  147.4367  135.4375  186.9246 C   0  0  0  0  0  0  0  0  0  0  0  0
  148.2497  135.8499  188.0429 N   0  0  0  0  0  0  0  0  0  0  0  0
  148.9900  134.9569  188.8522 C   0  0  0  0  0  0  0  0  0  0  0  0
  148.9409  133.7254  188.5881 O   0  0  0  0  0  0  0  0  0  0  0  0
  148.3195  136.8687  188.3014 H   0  0  0  0  0  0  0  0  0  0  0  0
  149.8076  135.3672  189.9741 C   0  0  0  0  0  0  0  0  0  0  0  0
  149.3492  135.2039  191.2709 C   0  0  0  0  0  0  0  0  0  0  0  0
  150.1056  135.5866  192.3641 C   0  0  0  0  0  0  0  0  0  0  0  0
  151.3629  136.1533  192.2044 C   0  0  0  0  0  0  0  0  0  0  0  0
  152.3103  136.6330  193.5946 Cl  0  0  0  0  0  0  0  0  0  0  0  0
  151.8172  136.3151  190.9128 C   0  0  0  0  0  0  0  0  0  0  0  0
  151.0608  135.9328  189.8259 C   0  0  0  0  0  0  0  0  0  0  0  0
  151.6466  136.1417  188.1908 Cl  0  0  0  0  0  0  0  0  0  0  0  0
 22 23  3  0  0  0
 23 12  1  0  0  0
 12 13  2  0  0  0
 13 14  1  0  0  0
 14 15  2  0  0  0
 15 16  1  0  0  0
 16 10  1  0  0  0
 10  4  1  0  0  0
  4  5  2  0  0  0
  5  6  1  0  0  0
  6  7  2  0  0  0
  7  3  1  0  0  0
  3  1  1  0  0  0
  1 24  1  0  0  0
 24 25  1  0  0  0
 25 26  1  0  0  0
 26 27  1  0  0  0
 27 28  1  0  0  0
 28 29  1  0  0  0
 29 30  1  0  0  0
 30 31  1  0  0  0
 31 32  1  0  0  0
 32 33  1  0  0  0
 33 34  1  0  0  0
 34 35  2  0  0  0
 34 37  1  0  0  0
 37 38  2  0  0  0
 38 39  1  0  0  0
 39 40  2  0  0  0
 40 41  1  0  0  0
 40 42  1  0  0  0
 42 43  2  0  0  0
 43 44  1  0  0  0
  7  8  1  0  0  0
  8  9  2  0  0  0
 16 17  2  0  0  0
 17 18  1  0  0  0
 18 19  2  0  0  0
 19 20  1  0  0  0
 20 21  2  0  0  0
 21 12  1  0  0  0
 20 15  1  0  0  0
  9  4  1  0  0  0
 32 27  1  0  0  0
 43 37  1  0  0  0
 10 11  1  0  0  0
  1  2  1  0  0  0
 33 36  1  0  0  0
M  END
> <minimizedAffinity>
-7.37912

> <CNNscore>
0.1836513132

> <CNNaffinity>
6.5256843567

> <CNN_VS>
1.1984504461

> <CNNaffinity_variance>
0.2910204828

$$$$
[H]c1c(N([H])c2c([H])c([H])c([H])c3c([H])c(C#N)c([H])c([H])c23)nnc(C([H])([H])N([H])C([H])([H])C([H])([H])O[C@]2([H])C([H])([H])C([H])([H])C([H])([H])C([H])([H])[C@]2([H])N([H])C(=O)c2c([H])c([H])c(Cl)c([H])c2Cl)c1[H]


 44 48  0  0  0  0  0  0  0  0999 V2000
  151.2440  137.0771  182.6801 N   0  0  0  0  0  0  0  0  0  0  0  0
  150.2499  137.2904  182.9836 H   0  0  0  0  0  0  0  0  0  0  0  0
  151.7213  138.1853  181.8786 C   0  0  0  0  0  0  0  0  0  0  0  0
  155.1398  140.0926  183.5574 C   0  0  0  0  0  0  0  0  0  0  0  0
  154.5846  138.9632  184.1884 C   0  0  0  0  0  0  0  0  0  0  0  0
  153.4904  138.3670  183.6323 C   0  0  0  0  0  0  0  0  0  0  0  0
  152.9026  138.8247  182.4746 C   0  0  0  0  0  0  0  0  0  0  0  0
  153.4843  139.9125  181.9187 N   0  0  0  0  0  0  0  0  0  0  0  0
  154.5402  140.4886  182.4544 N   0  0  0  0  0  0  0  0  0  0  0  0
  156.2354  140.7084  184.1573 N   0  0  0  0  0  0  0  0  0  0  0  0
  156.1312  140.9873  185.1965 H   0  0  0  0  0  0  0  0  0  0  0  0
  160.7241  142.2605  185.8353 C   0  0  0  0  0  0  0  0  0  0  0  0
  159.5001  142.0532  186.4153 C   0  0  0  0  0  0  0  0  0  0  0  0
  158.4097  141.6201  185.6450 C   0  0  0  0  0  0  0  0  0  0  0  0
  158.5672  141.4044  184.3165 C   0  0  0  0  0  0  0  0  0  0  0  0
  157.4724  140.9751  183.5352 C   0  0  0  0  0  0  0  0  0  0  0  0
  157.6854  140.7805  182.1973 C   0  0  0  0  0  0  0  0  0  0  0  0
  158.9583  141.0069  181.6424 C   0  0  0  0  0  0  0  0  0  0  0  0
  160.0147  141.4212  182.3992 C   0  0  0  0  0  0  0  0  0  0  0  0
  159.8243  141.6230  183.7473 C   0  0  0  0  0  0  0  0  0  0  0  0
  160.9141  142.0509  184.4920 C   0  0  0  0  0  0  0  0  0  0  0  0
  162.7328  143.0500  187.2958 N   0  0  0  0  0  0  0  0  0  0  0  0
  161.8327  142.7064  186.6481 C   0  0  0  0  0  0  0  0  0  0  0  0
  151.1724  135.8728  181.8737 C   0  0  0  0  0  0  0  0  0  0  0  0
  152.4934  135.1803  181.7688 C   0  0  0  0  0  0  0  0  0  0  0  0
  152.3883  133.7988  181.8457 O   0  0  0  0  0  0  0  0  0  0  0  0
  152.2723  133.1548  180.6473 C   0  0  0  0  0  0  0  0  0  0  0  0
  151.6471  131.7912  180.7814 C   0  0  0  0  0  0  0  0  0  0  0  0
  151.8097  130.9869  179.5103 C   0  0  0  0  0  0  0  0  0  0  0  0
  152.1533  131.8640  178.3301 C   0  0  0  0  0  0  0  0  0  0  0  0
  153.4597  132.5944  178.5261 C   0  0  0  0  0  0  0  0  0  0  0  0
  153.6091  133.1164  179.9458 C   0  0  0  0  0  0  0  0  0  0  0  0
  154.6086  132.3790  180.6799 N   0  0  0  0  0  0  0  0  0  0  0  0
  155.8716  132.9044  181.0394 C   0  0  0  0  0  0  0  0  0  0  0  0
  156.1488  134.0864  180.7008 O   0  0  0  0  0  0  0  0  0  0  0  0
  154.4211  131.3875  180.9825 H   0  0  0  0  0  0  0  0  0  0  0  0
  156.8761  132.1678  181.7769 C   0  0  0  0  0  0  0  0  0  0  0  0
  156.8619  132.1602  183.1619 C   0  0  0  0  0  0  0  0  0  0  0  0
  157.8080  131.4673  183.8958 C   0  0  0  0  0  0  0  0  0  0  0  0
  158.8161  130.7469  183.2696 C   0  0  0  0  0  0  0  0  0  0  0  0
  160.0066  129.8742  184.2084 Cl  0  0  0  0  0  0  0  0  0  0  0  0
  158.8284  130.7560  181.8909 C   0  0  0  0  0  0  0  0  0  0  0  0
  157.8844  131.4476  181.1629 C   0  0  0  0  0  0  0  0  0  0  0  0
  157.9082  131.4523  179.4137 Cl  0  0  0  0  0  0  0  0  0  0  0  0
 22 23  3  0  0  0
 23 12  1  0  0  0
 12 13  2  0  0  0
 13 14  1  0  0  0
 14 15  2  0  0  0
 15 16  1  0  0  0
 16 10  1  0  0  0
 10  4  1  0  0  0
  4  5  2  0  0  0
  5  6  1  0  0  0
  6  7  2  0  0  0
  7  3  1  0  0  0
  3  1  1  0  0  0
  1 24  1  0  0  0
 24 25  1  0  0  0
 25 26  1  0  0  0
 26 27  1  0  0  0
 27 28  1  0  0  0
 28 29  1  0  0  0
 29 30  1  0  0  0
 30 31  1  0  0  0
 31 32  1  0  0  0
 32 33  1  0  0  0
 33 34  1  0  0  0
 34 35  2  0  0  0
 34 37  1  0  0  0
 37 38  2  0  0  0
 38 39  1  0  0  0
 39 40  2  0  0  0
 40 41  1  0  0  0
 40 42  1  0  0  0
 42 43  2  0  0  0
 43 44  1  0  0  0
  7  8  1  0  0  0
  8  9  2  0  0  0
 16 17  2  0  0  0
 17 18  1  0  0  0
 18 19  2  0  0  0
 19 20  1  0  0  0
 20 21  2  0  0  0
 21 12  1  0  0  0
 20 15  1  0  0  0
  9  4  1  0  0  0
 32 27  1  0  0  0
 43 37  1  0  0  0
 10 11  1  0  0  0
  1  2  1  0  0  0
 33 36  1  0  0  0
M  END
> <minimizedAffinity>
-8.48087

> <CNNscore>
0.1740421802

> <CNNaffinity>
6.5443849564

> <CNN_VS>
1.1389989853

> <CNNaffinity_variance>
0.0816414505

$$$$
[H]c1sc(N2C([H])([H])C([H])([H])OC([H])([H])C2([H])[H])nc1-c1c([H])c(C(=O)N([H])C([H])(c2c([H])c([H])c(C([H])([H])[H])c(S(=O)(=O)N([H])C([H])([H])c3c([H])c([H])c(OC([H])([H])[H])c([H])c3[H])c2[H])C([H])([H])[H])c([H])c([H])c1Cl


 45 49  0  0  0  0  0  0  0  0999 V2000
  154.4203  138.3071  184.4876 C   0  0  0  0  0  0  0  0  0  0  0  0
  152.8796  138.3339  184.5458 C   0  0  0  0  0  0  0  0  0  0  0  0
  156.6448  140.8032  182.6260 C   0  0  0  0  0  0  0  0  0  0  0  0
  156.1368  139.6570  183.2495 C   0  0  0  0  0  0  0  0  0  0  0  0
  154.9022  139.5768  183.8454 C   0  0  0  0  0  0  0  0  0  0  0  0
  154.1043  140.7063  183.8298 C   0  0  0  0  0  0  0  0  0  0  0  0
  154.5877  141.8416  183.2215 C   0  0  0  0  0  0  0  0  0  0  0  0
  155.8413  141.9159  182.6182 C   0  0  0  0  0  0  0  0  0  0  0  0
  156.3239  143.1459  181.9717 C   0  0  0  0  0  0  0  0  0  0  0  0
  158.2221  140.6839  181.9404 S   0  0  0  0  0  0  0  0  0  0  0  0
  158.6487  139.2352  181.9116 O   0  0  0  0  0  0  0  0  0  0  0  0
  158.0688  141.0862  180.4669 O   0  0  0  0  0  0  0  0  0  0  0  0
  159.4548  141.5870  182.6175 N   0  0  0  0  0  0  0  0  0  0  0  0
  160.0140  142.1634  181.9472 H   0  0  0  0  0  0  0  0  0  0  0  0
  159.1131  142.3334  183.8008 C   0  0  0  0  0  0  0  0  0  0  0  0
  162.4599  142.6664  186.4963 C   0  0  0  0  0  0  0  0  0  0  0  0
  162.6396  142.2379  185.1908 C   0  0  0  0  0  0  0  0  0  0  0  0
  161.5678  142.1233  184.2976 C   0  0  0  0  0  0  0  0  0  0  0  0
  160.2955  142.4418  184.7136 C   0  0  0  0  0  0  0  0  0  0  0  0
  160.1224  142.8680  186.0132 C   0  0  0  0  0  0  0  0  0  0  0  0
  161.1769  142.9823  186.8969 C   0  0  0  0  0  0  0  0  0  0  0  0
  163.4740  142.0550  188.5881 C   0  0  0  0  0  0  0  0  0  0  0  0
  163.5448  142.7732  187.3736 O   0  0  0  0  0  0  0  0  0  0  0  0
  154.8407  138.1935  185.8655 N   0  0  0  0  0  0  0  0  0  0  0  0
  154.9980  136.9542  186.5270 C   0  0  0  0  0  0  0  0  0  0  0  0
  154.7636  135.8985  185.9043 O   0  0  0  0  0  0  0  0  0  0  0  0
  155.0378  139.0648  186.3997 H   0  0  0  0  0  0  0  0  0  0  0  0
  155.4314  136.8639  187.9390 C   0  0  0  0  0  0  0  0  0  0  0  0
  155.3243  137.9476  188.7699 C   0  0  0  0  0  0  0  0  0  0  0  0
  155.7214  137.8443  190.0856 C   0  0  0  0  0  0  0  0  0  0  0  0
  156.2266  136.6379  190.5555 C   0  0  0  0  0  0  0  0  0  0  0  0
  156.7298  136.5126  192.2314 Cl  0  0  0  0  0  0  0  0  0  0  0  0
  156.3276  135.5605  189.7104 C   0  0  0  0  0  0  0  0  0  0  0  0
  155.9359  135.6643  188.4110 C   0  0  0  0  0  0  0  0  0  0  0  0
  156.8556  134.2670  190.2155 C   0  0  0  0  0  0  0  0  0  0  0  0
  158.1676  133.8967  190.0187 C   0  0  0  0  0  0  0  0  0  0  0  0
  158.2187  132.3657  190.7705 S   0  0  0  0  0  0  0  0  0  0  0  0
  156.5722  132.2812  191.2927 C   0  0  0  0  0  0  0  0  0  0  0  0
  156.1004  133.4284  190.8552 N   0  0  0  0  0  0  0  0  0  0  0  0
  155.9142  131.2322  192.0070 N   0  0  0  0  0  0  0  0  0  0  0  0
  156.6200  130.5430  193.0409 C   0  0  0  0  0  0  0  0  0  0  0  0
  155.6708  129.7163  193.8651 C   0  0  0  0  0  0  0  0  0  0  0  0
  154.4767  130.4178  194.0214 O   0  0  0  0  0  0  0  0  0  0  0  0
  153.7387  130.4725  192.8419 C   0  0  0  0  0  0  0  0  0  0  0  0
  154.5638  130.8992  191.6668 C   0  0  0  0  0  0  0  0  0  0  0  0
 22 23  1  0  0  0
 23 16  1  0  0  0
 16 17  2  0  0  0
 17 18  1  0  0  0
 18 19  2  0  0  0
 19 15  1  0  0  0
 15 13  1  0  0  0
 13 10  1  0  0  0
 10 11  2  0  0  0
 10 12  2  0  0  0
 10  3  1  0  0  0
  3  4  2  0  0  0
  4  5  1  0  0  0
  5  6  2  0  0  0
  6  7  1  0  0  0
  7  8  2  0  0  0
  8  9  1  0  0  0
  5  1  1  0  0  0
  1  2  1  0  0  0
  1 24  1  0  0  0
 24 25  1  0  0  0
 25 26  2  0  0  0
 25 28  1  0  0  0
 28 29  2  0  0  0
 29 30  1  0  0  0
 30 31  2  0  0  0
 31 32  1  0  0  0
 31 33  1  0  0  0
 33 34  2  0  0  0
 33 35  1  0  0  0
 35 36  2  0  0  0
 36 37  1  0  0  0
 37 38  1  0  0  0
 38 40  1  0  0  0
 40 41  1  0  0  0
 41 42  1  0  0  0
 42 43  1  0  0  0
 43 44  1  0  0  0
 44 45  1  0  0  0
 38 39  2  0  0  0
 19 20  1  0  0  0
 20 21  2  0  0  0
 21 16  1  0  0  0
  8  3  1  0  0  0
 34 28  1  0  0  0
 39 35  1  0  0  0
 45 40  1  0  0  0
 13 14  1  0  0  0
 24 27  1  0  0  0
M  END
> <minimizedAffinity>
-9.33999

> <CNNscore>
0.6158159971

> <CNNaffinity>
7.3739652634

> <CNN_VS>
4.5410056114

> <CNNaffinity_variance>
0.0208861381

$$$$
[H]c1sc(N2C([H])([H])C([H])([H])OC([H])([H])C2([H])[H])nc1-c1c([H])c(C(=O)N([H])C([H])(c2c([H])c([H])c(C([H])([H])[H])c(S(=O)(=O)N([H])C([H])([H])c3c([H])c([H])c(OC([H])([H])[H])c([H])c3[H])c2[H])C([H])([H])[H])c([H])c([H])c1Cl


 45 49  0  0  0  0  0  0  0  0999 V2000
  154.4211  138.2905  184.3376 C   0  0  0  0  0  0  0  0  0  0  0  0
  152.8798  138.2689  184.3811 C   0  0  0  0  0  0  0  0  0  0  0  0
  156.5855  140.8941  182.5540 C   0  0  0  0  0  0  0  0  0  0  0  0
  156.1072  139.7195  183.1473 C   0  0  0  0  0  0  0  0  0  0  0  0
  154.8697  139.5881  183.7278 C   0  0  0  0  0  0  0  0  0  0  0  0
  154.0370  140.6924  183.7275 C   0  0  0  0  0  0  0  0  0  0  0  0
  154.4909  141.8550  183.1489 C   0  0  0  0  0  0  0  0  0  0  0  0
  155.7477  141.9812  182.5611 C   0  0  0  0  0  0  0  0  0  0  0  0
  156.1982  143.2393  181.9462 C   0  0  0  0  0  0  0  0  0  0  0  0
  158.1727  140.8387  181.8833 S   0  0  0  0  0  0  0  0  0  0  0  0
  158.7181  139.4348  181.9995 O   0  0  0  0  0  0  0  0  0  0  0  0
  157.9985  141.0777  180.3770 O   0  0  0  0  0  0  0  0  0  0  0  0
  159.3209  141.9043  182.4662 N   0  0  0  0  0  0  0  0  0  0  0  0
  159.6832  142.6012  181.7754 H   0  0  0  0  0  0  0  0  0  0  0  0
  159.0239  142.5200  183.7337 C   0  0  0  0  0  0  0  0  0  0  0  0
  162.4617  142.5552  186.3332 C   0  0  0  0  0  0  0  0  0  0  0  0
  162.5894  142.2335  184.9914 C   0  0  0  0  0  0  0  0  0  0  0  0
  161.4874  142.2168  184.1284 C   0  0  0  0  0  0  0  0  0  0  0  0
  160.2370  142.5266  184.6120 C   0  0  0  0  0  0  0  0  0  0  0  0
  160.1156  142.8464  185.9475 C   0  0  0  0  0  0  0  0  0  0  0  0
  161.2002  142.8640  186.8016 C   0  0  0  0  0  0  0  0  0  0  0  0
  163.3988  142.0864  188.4965 C   0  0  0  0  0  0  0  0  0  0  0  0
  163.5763  142.5653  187.1793 O   0  0  0  0  0  0  0  0  0  0  0  0
  154.8321  138.1595  185.7167 N   0  0  0  0  0  0  0  0  0  0  0  0
  154.9221  136.9159  186.3827 C   0  0  0  0  0  0  0  0  0  0  0  0
  154.6335  135.8719  185.7630 O   0  0  0  0  0  0  0  0  0  0  0  0
  155.0739  139.0210  186.2485 H   0  0  0  0  0  0  0  0  0  0  0  0
  155.3473  136.8076  187.7960 C   0  0  0  0  0  0  0  0  0  0  0  0
  155.5637  137.9337  188.5452 C   0  0  0  0  0  0  0  0  0  0  0  0
  155.9481  137.8164  189.8635 C   0  0  0  0  0  0  0  0  0  0  0  0
  156.1111  136.5530  190.4191 C   0  0  0  0  0  0  0  0  0  0  0  0
  156.6000  136.4102  192.0979 Cl  0  0  0  0  0  0  0  0  0  0  0  0
  155.8902  135.4336  189.6553 C   0  0  0  0  0  0  0  0  0  0  0  0
  155.5116  135.5511  188.3532 C   0  0  0  0  0  0  0  0  0  0  0  0
  156.0519  134.0829  190.2524 C   0  0  0  0  0  0  0  0  0  0  0  0
  155.0171  133.4565  190.9111 C   0  0  0  0  0  0  0  0  0  0  0  0
  155.7407  131.9863  191.3876 S   0  0  0  0  0  0  0  0  0  0  0  0
  157.3161  132.2489  190.7240 C   0  0  0  0  0  0  0  0  0  0  0  0
  157.1772  133.4411  190.1861 N   0  0  0  0  0  0  0  0  0  0  0  0
  158.4566  131.3879  190.7625 N   0  0  0  0  0  0  0  0  0  0  0  0
  159.4332  131.4771  189.7231 C   0  0  0  0  0  0  0  0  0  0  0  0
  160.6823  130.7325  190.1095 C   0  0  0  0  0  0  0  0  0  0  0  0
  160.9201  130.9209  191.4697 O   0  0  0  0  0  0  0  0  0  0  0  0
  160.0090  130.2307  192.2650 C   0  0  0  0  0  0  0  0  0  0  0  0
  158.5899  130.4575  191.8426 C   0  0  0  0  0  0  0  0  0  0  0  0
 22 23  1  0  0  0
 23 16  1  0  0  0
 16 17  2  0  0  0
 17 18  1  0  0  0
 18 19  2  0  0  0
 19 15  1  0  0  0
 15 13  1  0  0  0
 13 10  1  0  0  0
 10 11  2  0  0  0
 10 12  2  0  0  0
 10  3  1  0  0  0
  3  4  2  0  0  0
  4  5  1  0  0  0
  5  6  2  0  0  0
  6  7  1  0  0  0
  7  8  2  0  0  0
  8  9  1  0  0  0
  5  1  1  0  0  0
  1  2  1  0  0  0
  1 24  1  0  0  0
 24 25  1  0  0  0
 25 26  2  0  0  0
 25 28  1  0  0  0
 28 29  2  0  0  0
 29 30  1  0  0  0
 30 31  2  0  0  0
 31 32  1  0  0  0
 31 33  1  0  0  0
 33 34  2  0  0  0
 33 35  1  0  0  0
 35 36  2  0  0  0
 36 37  1  0  0  0
 37 38  1  0  0  0
 38 40  1  0  0  0
 40 41  1  0  0  0
 41 42  1  0  0  0
 42 43  1  0  0  0
 43 44  1  0  0  0
 44 45  1  0  0  0
 38 39  2  0  0  0
 19 20  1  0  0  0
 20 21  2  0  0  0
 21 16  1  0  0  0
  8  3  1  0  0  0
 34 28  1  0  0  0
 39 35  1  0  0  0
 45 40  1  0  0  0
 13 14  1  0  0  0
 24 27  1  0  0  0
M  END
> <minimizedAffinity>
-9.51793

> <CNNscore>
0.5036984682

> <CNNaffinity>
7.3071885109

> <CNN_VS>
3.6806197166

> <CNNaffinity_variance>
0.0376511700

$$$$
[H]c1sc(N2C([H])([H])C([H])([H])OC([H])([H])C2([H])[H])nc1-c1c([H])c(C(=O)N([H])C([H])(c2c([H])c([H])c(C([H])([H])[H])c(S(=O)(=O)N([H])C([H])([H])c3c([H])c([H])c(OC([H])([H])[H])c([H])c3[H])c2[H])C([H])([H])[H])c([H])c([H])c1Cl


 45 49  0  0  0  0  0  0  0  0999 V2000
  154.5470  138.1256  184.5616 C   0  0  0  0  0  0  0  0  0  0  0  0
  153.0376  138.3319  184.8006 C   0  0  0  0  0  0  0  0  0  0  0  0
  156.9113  140.5869  182.8305 C   0  0  0  0  0  0  0  0  0  0  0  0
  156.3117  139.4297  183.3422 C   0  0  0  0  0  0  0  0  0  0  0  0
  155.1358  139.4100  184.0512 C   0  0  0  0  0  0  0  0  0  0  0  0
  154.4988  140.6167  184.2768 C   0  0  0  0  0  0  0  0  0  0  0  0
  155.0741  141.7638  183.7812 C   0  0  0  0  0  0  0  0  0  0  0  0
  156.2673  141.7766  183.0621 C   0  0  0  0  0  0  0  0  0  0  0  0
  156.8511  143.0225  182.5419 C   0  0  0  0  0  0  0  0  0  0  0  0
  158.3905  140.3830  181.9689 S   0  0  0  0  0  0  0  0  0  0  0  0
  158.6057  138.9159  181.6808 O   0  0  0  0  0  0  0  0  0  0  0  0
  158.1674  141.0327  180.5960 O   0  0  0  0  0  0  0  0  0  0  0  0
  159.7919  141.0044  182.6348 N   0  0  0  0  0  0  0  0  0  0  0  0
  160.6666  140.8362  182.0864 H   0  0  0  0  0  0  0  0  0  0  0  0
  159.7167  142.3622  183.1087 C   0  0  0  0  0  0  0  0  0  0  0  0
  161.7476  142.7396  186.8916 C   0  0  0  0  0  0  0  0  0  0  0  0
  160.3644  142.7841  186.8208 C   0  0  0  0  0  0  0  0  0  0  0  0
  159.6836  142.6625  185.6037 C   0  0  0  0  0  0  0  0  0  0  0  0
  160.3944  142.4934  184.4379 C   0  0  0  0  0  0  0  0  0  0  0  0
  161.7702  142.4494  184.5140 C   0  0  0  0  0  0  0  0  0  0  0  0
  162.4452  142.5690  185.7124 C   0  0  0  0  0  0  0  0  0  0  0  0
  163.6009  142.1262  188.2941 C   0  0  0  0  0  0  0  0  0  0  0  0
  162.4090  142.8640  188.1186 O   0  0  0  0  0  0  0  0  0  0  0  0
  155.0783  137.7514  185.8523 N   0  0  0  0  0  0  0  0  0  0  0  0
  154.4273  138.0454  187.0720 C   0  0  0  0  0  0  0  0  0  0  0  0
  153.3413  138.6598  187.0490 O   0  0  0  0  0  0  0  0  0  0  0  0
  155.9845  137.2406  185.8889 H   0  0  0  0  0  0  0  0  0  0  0  0
  154.9912  137.6499  188.3818 C   0  0  0  0  0  0  0  0  0  0  0  0
  156.2440  138.0615  188.7523 C   0  0  0  0  0  0  0  0  0  0  0  0
  156.7507  137.6945  189.9803 C   0  0  0  0  0  0  0  0  0  0  0  0
  155.9819  136.9095  190.8312 C   0  0  0  0  0  0  0  0  0  0  0  0
  156.6323  136.4462  192.3933 Cl  0  0  0  0  0  0  0  0  0  0  0  0
  154.7278  136.5050  190.4456 C   0  0  0  0  0  0  0  0  0  0  0  0
  154.2291  136.8673  189.2322 C   0  0  0  0  0  0  0  0  0  0  0  0
  153.9004  135.6765  191.3602 C   0  0  0  0  0  0  0  0  0  0  0  0
  153.1383  136.2440  192.3572 C   0  0  0  0  0  0  0  0  0  0  0  0
  152.4297  134.8723  193.0839 S   0  0  0  0  0  0  0  0  0  0  0  0
  153.1403  133.6552  192.0816 C   0  0  0  0  0  0  0  0  0  0  0  0
  153.8686  134.3833  191.2634 N   0  0  0  0  0  0  0  0  0  0  0  0
  152.9718  132.2369  192.1428 N   0  0  0  0  0  0  0  0  0  0  0  0
  152.2014  131.5818  191.1332 C   0  0  0  0  0  0  0  0  0  0  0  0
  152.4088  130.0929  191.1963 C   0  0  0  0  0  0  0  0  0  0  0  0
  153.7443  129.8335  191.4991 O   0  0  0  0  0  0  0  0  0  0  0  0
  154.0558  130.1457  192.8199 C   0  0  0  0  0  0  0  0  0  0  0  0
  153.5799  131.5096  193.2159 C   0  0  0  0  0  0  0  0  0  0  0  0
 22 23  1  0  0  0
 23 16  1  0  0  0
 16 17  2  0  0  0
 17 18  1  0  0  0
 18 19  2  0  0  0
 19 15  1  0  0  0
 15 13  1  0  0  0
 13 10  1  0  0  0
 10 11  2  0  0  0
 10 12  2  0  0  0
 10  3  1  0  0  0
  3  4  2  0  0  0
  4  5  1  0  0  0
  5  6  2  0  0  0
  6  7  1  0  0  0
  7  8  2  0  0  0
  8  9  1  0  0  0
  5  1  1  0  0  0
  1  2  1  0  0  0
  1 24  1  0  0  0
 24 25  1  0  0  0
 25 26  2  0  0  0
 25 28  1  0  0  0
 28 29  2  0  0  0
 29 30  1  0  0  0
 30 31  2  0  0  0
 31 32  1  0  0  0
 31 33  1  0  0  0
 33 34  2  0  0  0
 33 35  1  0  0  0
 35 36  2  0  0  0
 36 37  1  0  0  0
 37 38  1  0  0  0
 38 40  1  0  0  0
 40 41  1  0  0  0
 41 42  1  0  0  0
 42 43  1  0  0  0
 43 44  1  0  0  0
 44 45  1  0  0  0
 38 39  2  0  0  0
 19 20  1  0  0  0
 20 21  2  0  0  0
 21 16  1  0  0  0
  8  3  1  0  0  0
 34 28  1  0  0  0
 39 35  1  0  0  0
 45 40  1  0  0  0
 13 14  1  0  0  0
 24 27  1  0  0  0
M  END
> <minimizedAffinity>
-8.72800

> <CNNscore>
0.4878357351

> <CNNaffinity>
7.1757812500

> <CNN_VS>
3.5006024837

> <CNNaffinity_variance>
0.1298820227

$$$$
[H]c1sc(N2C([H])([H])C([H])([H])OC([H])([H])C2([H])[H])nc1-c1c([H])c(C(=O)N([H])C([H])(c2c([H])c([H])c(C([H])([H])[H])c(S(=O)(=O)N([H])C([H])([H])c3c([H])c([H])c(OC([H])([H])[H])c([H])c3[H])c2[H])C([H])([H])[H])c([H])c([H])c1Cl


 45 49  0  0  0  0  0  0  0  0999 V2000
  154.5216  138.4436  184.2642 C   0  0  0  0  0  0  0  0  0  0  0  0
  152.9797  138.4248  184.2773 C   0  0  0  0  0  0  0  0  0  0  0  0
  156.7191  141.0272  182.4921 C   0  0  0  0  0  0  0  0  0  0  0  0
  156.2276  139.8575  183.0844 C   0  0  0  0  0  0  0  0  0  0  0  0
  154.9844  139.7364  183.6550 C   0  0  0  0  0  0  0  0  0  0  0  0
  154.1596  140.8466  183.6450 C   0  0  0  0  0  0  0  0  0  0  0  0
  154.6266  142.0045  183.0673 C   0  0  0  0  0  0  0  0  0  0  0  0
  155.8891  142.1203  182.4896 C   0  0  0  0  0  0  0  0  0  0  0  0
  156.3537  143.3735  181.8754 C   0  0  0  0  0  0  0  0  0  0  0  0
  158.3114  140.9588  181.8348 S   0  0  0  0  0  0  0  0  0  0  0  0
  158.7636  139.5193  181.7635 O   0  0  0  0  0  0  0  0  0  0  0  0
  158.1801  141.4108  180.3737 O   0  0  0  0  0  0  0  0  0  0  0  0
  159.5147  141.8576  182.5682 N   0  0  0  0  0  0  0  0  0  0  0  0
  160.0464  142.5011  181.9378 H   0  0  0  0  0  0  0  0  0  0  0  0
  159.1546  142.5042  183.8036 C   0  0  0  0  0  0  0  0  0  0  0  0
  162.5704  142.5733  186.4314 C   0  0  0  0  0  0  0  0  0  0  0  0
  161.3026  142.8681  186.9069 C   0  0  0  0  0  0  0  0  0  0  0  0
  160.1789  142.8507  186.0723 C   0  0  0  0  0  0  0  0  0  0  0  0
  160.3223  142.5336  184.7411 C   0  0  0  0  0  0  0  0  0  0  0  0
  161.5855  142.2407  184.2733 C   0  0  0  0  0  0  0  0  0  0  0  0
  162.6961  142.2568  185.0934 C   0  0  0  0  0  0  0  0  0  0  0  0
  163.4996  142.1311  188.6037 C   0  0  0  0  0  0  0  0  0  0  0  0
  163.6810  142.5972  187.2825 O   0  0  0  0  0  0  0  0  0  0  0  0
  154.9049  138.3209  185.6520 N   0  0  0  0  0  0  0  0  0  0  0  0
  154.9052  137.0913  186.3492 C   0  0  0  0  0  0  0  0  0  0  0  0
  154.5574  136.0529  185.7507 O   0  0  0  0  0  0  0  0  0  0  0  0
  155.1953  139.1781  186.1663 H   0  0  0  0  0  0  0  0  0  0  0  0
  155.3038  136.9912  187.7708 C   0  0  0  0  0  0  0  0  0  0  0  0
  156.2192  137.8625  188.2992 C   0  0  0  0  0  0  0  0  0  0  0  0
  156.5715  137.7639  189.6280 C   0  0  0  0  0  0  0  0  0  0  0  0
  155.9913  136.7792  190.4187 C   0  0  0  0  0  0  0  0  0  0  0  0
  156.4434  136.6593  192.1095 Cl  0  0  0  0  0  0  0  0  0  0  0  0
  155.0751  135.9134  189.8745 C   0  0  0  0  0  0  0  0  0  0  0  0
  154.7289  136.0114  188.5619 C   0  0  0  0  0  0  0  0  0  0  0  0
  154.4451  134.8688  190.7225 C   0  0  0  0  0  0  0  0  0  0  0  0
  154.9553  133.5914  190.7924 C   0  0  0  0  0  0  0  0  0  0  0  0
  153.8670  132.8350  191.8673 S   0  0  0  0  0  0  0  0  0  0  0  0
  152.8254  134.1824  192.1680 C   0  0  0  0  0  0  0  0  0  0  0  0
  153.3830  135.1141  191.4256 N   0  0  0  0  0  0  0  0  0  0  0  0
  151.6671  134.2473  193.0033 N   0  0  0  0  0  0  0  0  0  0  0  0
  151.0988  135.5221  193.3100 C   0  0  0  0  0  0  0  0  0  0  0  0
  149.7337  135.3564  193.9207 C   0  0  0  0  0  0  0  0  0  0  0  0
  149.0778  134.3031  193.2862 O   0  0  0  0  0  0  0  0  0  0  0  0
  149.6138  133.0647  193.6296 C   0  0  0  0  0  0  0  0  0  0  0  0
  151.1067  133.0317  193.5115 C   0  0  0  0  0  0  0  0  0  0  0  0
 22 23  1  0  0  0
 23 16  1  0  0  0
 16 17  2  0  0  0
 17 18  1  0  0  0
 18 19  2  0  0  0
 19 15  1  0  0  0
 15 13  1  0  0  0
 13 10  1  0  0  0
 10 11  2  0  0  0
 10 12  2  0  0  0
 10  3  1  0  0  0
  3  4  2  0  0  0
  4  5  1  0  0  0
  5  6  2  0  0  0
  6  7  1  0  0  0
  7  8  2  0  0  0
  8  9  1  0  0  0
  5  1  1  0  0  0
  1  2  1  0  0  0
  1 24  1  0  0  0
 24 25  1  0  0  0
 25 26  2  0  0  0
 25 28  1  0  0  0
 28 29  2  0  0  0
 29 30  1  0  0  0
 30 31  2  0  0  0
 31 32  1  0  0  0
 31 33  1  0  0  0
 33 34  2  0  0  0
 33 35  1  0  0  0
 35 36  2  0  0  0
 36 37  1  0  0  0
 37 38  1  0  0  0
 38 40  1  0  0  0
 40 41  1  0  0  0
 41 42  1  0  0  0
 42 43  1  0  0  0
 43 44  1  0  0  0
 44 45  1  0  0  0
 38 39  2  0  0  0
 19 20  1  0  0  0
 20 21  2  0  0  0
 21 16  1  0  0  0
  8  3  1  0  0  0
 34 28  1  0  0  0
 39 35  1  0  0  0
 45 40  1  0  0  0
 13 14  1  0  0  0
 24 27  1  0  0  0
M  END
> <minimizedAffinity>
-9.57666

> <CNNscore>
0.4611918330

> <CNNaffinity>
7.1205854416

> <CNN_VS>
3.2839558125

> <CNNaffinity_variance>
0.0408271067

$$$$
[H]c1sc(N2C([H])([H])C([H])([H])OC([H])([H])C2([H])[H])nc1-c1c([H])c(C(=O)N([H])C([H])(c2c([H])c([H])c(C([H])([H])[H])c(S(=O)(=O)N([H])C([H])([H])c3c([H])c([H])c(OC([H])([H])[H])c([H])c3[H])c2[H])C([H])([H])[H])c([H])c([H])c1Cl


 45 49  0  0  0  0  0  0  0  0999 V2000
  154.0372  135.6503  186.6282 C   0  0  0  0  0  0  0  0  0  0  0  0
  155.2569  134.7349  186.3993 C   0  0  0  0  0  0  0  0  0  0  0  0
  155.0549  136.6778  190.1712 C   0  0  0  0  0  0  0  0  0  0  0  0
  154.7904  135.9513  189.0038 C   0  0  0  0  0  0  0  0  0  0  0  0
  154.2866  136.4927  187.8467 C   0  0  0  0  0  0  0  0  0  0  0  0
  154.0211  137.8499  187.8324 C   0  0  0  0  0  0  0  0  0  0  0  0
  154.2748  138.5792  188.9709 C   0  0  0  0  0  0  0  0  0  0  0  0
  154.7866  138.0235  190.1415 C   0  0  0  0  0  0  0  0  0  0  0  0
  155.0512  138.8353  191.3393 C   0  0  0  0  0  0  0  0  0  0  0  0
  155.6868  135.7970  191.5116 S   0  0  0  0  0  0  0  0  0  0  0  0
  156.7530  136.6199  192.1955 O   0  0  0  0  0  0  0  0  0  0  0  0
  154.5399  135.7025  192.5277 O   0  0  0  0  0  0  0  0  0  0  0  0
  156.2919  134.2625  191.2419 N   0  0  0  0  0  0  0  0  0  0  0  0
  155.9804  133.8027  190.3554 H   0  0  0  0  0  0  0  0  0  0  0  0
  157.7061  134.0957  191.4565 C   0  0  0  0  0  0  0  0  0  0  0  0
  159.5062  132.2678  187.9929 C   0  0  0  0  0  0  0  0  0  0  0  0
  159.7492  131.7726  189.2641 C   0  0  0  0  0  0  0  0  0  0  0  0
  159.1747  132.3492  190.4030 C   0  0  0  0  0  0  0  0  0  0  0  0
  158.3436  133.4379  190.2715 C   0  0  0  0  0  0  0  0  0  0  0  0
  158.1048  133.9262  189.0046 C   0  0  0  0  0  0  0  0  0  0  0  0
  158.6696  133.3602  187.8791 C   0  0  0  0  0  0  0  0  0  0  0  0
  159.2325  131.0333  185.9486 C   0  0  0  0  0  0  0  0  0  0  0  0
  160.0913  131.6771  186.8673 O   0  0  0  0  0  0  0  0  0  0  0  0
  153.9370  136.4415  185.4233 N   0  0  0  0  0  0  0  0  0  0  0  0
  152.7067  136.7471  184.7979 C   0  0  0  0  0  0  0  0  0  0  0  0
  151.6472  136.3173  185.2980 O   0  0  0  0  0  0  0  0  0  0  0  0
  154.8117  136.8055  184.9922 H   0  0  0  0  0  0  0  0  0  0  0  0
  152.6302  137.5612  183.5646 C   0  0  0  0  0  0  0  0  0  0  0  0
  151.8822  137.1385  182.4978 C   0  0  0  0  0  0  0  0  0  0  0  0
  151.8114  137.9135  181.3603 C   0  0  0  0  0  0  0  0  0  0  0  0
  152.5012  139.1190  181.3094 C   0  0  0  0  0  0  0  0  0  0  0  0
  152.4066  140.1013  179.8589 Cl  0  0  0  0  0  0  0  0  0  0  0  0
  153.2465  139.5292  182.3870 C   0  0  0  0  0  0  0  0  0  0  0  0
  153.3163  138.7623  183.5092 C   0  0  0  0  0  0  0  0  0  0  0  0
  153.9736  140.8239  182.3378 C   0  0  0  0  0  0  0  0  0  0  0  0
  153.3517  142.0131  182.6477 C   0  0  0  0  0  0  0  0  0  0  0  0
  154.6120  143.1405  182.4189 S   0  0  0  0  0  0  0  0  0  0  0  0
  155.8579  142.0395  181.9429 C   0  0  0  0  0  0  0  0  0  0  0  0
  155.2222  140.8890  181.9923 N   0  0  0  0  0  0  0  0  0  0  0  0
  157.2138  142.3230  181.5896 N   0  0  0  0  0  0  0  0  0  0  0  0
  157.7515  141.7695  180.3869 C   0  0  0  0  0  0  0  0  0  0  0  0
  159.0572  142.4322  180.0406 C   0  0  0  0  0  0  0  0  0  0  0  0
  158.9721  143.7893  180.3463 O   0  0  0  0  0  0  0  0  0  0  0  0
  158.9756  144.0218  181.7192 C   0  0  0  0  0  0  0  0  0  0  0  0
  157.9981  143.1548  182.4516 C   0  0  0  0  0  0  0  0  0  0  0  0
 22 23  1  0  0  0
 23 16  1  0  0  0
 16 17  2  0  0  0
 17 18  1  0  0  0
 18 19  2  0  0  0
 19 15  1  0  0  0
 15 13  1  0  0  0
 13 10  1  0  0  0
 10 11  2  0  0  0
 10 12  2  0  0  0
 10  3  1  0  0  0
  3  4  2  0  0  0
  4  5  1  0  0  0
  5  6  2  0  0  0
  6  7  1  0  0  0
  7  8  2  0  0  0
  8  9  1  0  0  0
  5  1  1  0  0  0
  1  2  1  0  0  0
  1 24  1  0  0  0
 24 25  1  0  0  0
 25 26  2  0  0  0
 25 28  1  0  0  0
 28 29  2  0  0  0
 29 30  1  0  0  0
 30 31  2  0  0  0
 31 32  1  0  0  0
 31 33  1  0  0  0
 33 34  2  0  0  0
 33 35  1  0  0  0
 35 36  2  0  0  0
 36 37  1  0  0  0
 37 38  1  0  0  0
 38 40  1  0  0  0
 40 41  1  0  0  0
 41 42  1  0  0  0
 42 43  1  0  0  0
 43 44  1  0  0  0
 44 45  1  0  0  0
 38 39  2  0  0  0
 19 20  1  0  0  0
 20 21  2  0  0  0
 21 16  1  0  0  0
  8  3  1  0  0  0
 34 28  1  0  0  0
 39 35  1  0  0  0
 45 40  1  0  0  0
 13 14  1  0  0  0
 24 27  1  0  0  0
M  END
> <minimizedAffinity>
-8.81999

> <CNNscore>
0.4414367080

> <CNNaffinity>
6.7842774391

> <CNN_VS>
2.9948291779

> <CNNaffinity_variance>
0.1842021048

$$$$
[H]c1sc(N2C([H])([H])C([H])([H])OC([H])([H])C2([H])[H])nc1-c1c([H])c(C(=O)N([H])C([H])(c2c([H])c([H])c(C([H])([H])[H])c(S(=O)(=O)N([H])C([H])([H])c3c([H])c([H])c(OC([H])([H])[H])c([H])c3[H])c2[H])C([H])([H])[H])c([H])c([H])c1Cl


 45 49  0  0  0  0  0  0  0  0999 V2000
  153.6481  138.9430  184.2072 C   0  0  0  0  0  0  0  0  0  0  0  0
  154.2043  138.7348  185.6303 C   0  0  0  0  0  0  0  0  0  0  0  0
  156.7006  140.7666  182.7927 C   0  0  0  0  0  0  0  0  0  0  0  0
  155.8570  139.8540  183.4378 C   0  0  0  0  0  0  0  0  0  0  0  0
  154.4902  139.9692  183.5040 C   0  0  0  0  0  0  0  0  0  0  0  0
  153.9050  141.0625  182.8918 C   0  0  0  0  0  0  0  0  0  0  0  0
  154.7189  141.9694  182.2534 C   0  0  0  0  0  0  0  0  0  0  0  0
  156.1052  141.8462  182.1896 C   0  0  0  0  0  0  0  0  0  0  0  0
  156.9445  142.8331  181.4929 C   0  0  0  0  0  0  0  0  0  0  0  0
  158.3905  140.4284  182.8315 S   0  0  0  0  0  0  0  0  0  0  0  0
  158.7067  139.5885  184.0465 O   0  0  0  0  0  0  0  0  0  0  0  0
  158.6612  139.5127  181.6295 O   0  0  0  0  0  0  0  0  0  0  0  0
  159.4606  141.7114  182.7800 N   0  0  0  0  0  0  0  0  0  0  0  0
  159.5840  142.1602  181.8432 H   0  0  0  0  0  0  0  0  0  0  0  0
  159.3179  142.6938  183.8233 C   0  0  0  0  0  0  0  0  0  0  0  0
  162.6478  142.5894  186.5579 C   0  0  0  0  0  0  0  0  0  0  0  0
  162.8222  142.2947  185.2152 C   0  0  0  0  0  0  0  0  0  0  0  0
  161.7558  142.3234  184.3088 C   0  0  0  0  0  0  0  0  0  0  0  0
  160.4944  142.6519  184.7492 C   0  0  0  0  0  0  0  0  0  0  0  0
  160.3264  142.9447  186.0858 C   0  0  0  0  0  0  0  0  0  0  0  0
  161.3757  142.9175  186.9827 C   0  0  0  0  0  0  0  0  0  0  0  0
  163.4918  142.0266  188.7371 C   0  0  0  0  0  0  0  0  0  0  0  0
  163.7272  142.5541  187.4479 O   0  0  0  0  0  0  0  0  0  0  0  0
  153.7310  137.6421  183.5836 N   0  0  0  0  0  0  0  0  0  0  0  0
  152.6154  136.9807  183.0214 C   0  0  0  0  0  0  0  0  0  0  0  0
  151.4974  137.5338  183.0603 O   0  0  0  0  0  0  0  0  0  0  0  0
  154.6559  137.1660  183.5452 H   0  0  0  0  0  0  0  0  0  0  0  0
  152.7263  135.6485  182.3866 C   0  0  0  0  0  0  0  0  0  0  0  0
  151.6152  135.0207  181.8892 C   0  0  0  0  0  0  0  0  0  0  0  0
  151.7365  133.7853  181.2903 C   0  0  0  0  0  0  0  0  0  0  0  0
  152.9887  133.1898  181.1970 C   0  0  0  0  0  0  0  0  0  0  0  0
  153.1366  131.6175  180.4331 Cl  0  0  0  0  0  0  0  0  0  0  0  0
  154.0931  133.8319  181.7002 C   0  0  0  0  0  0  0  0  0  0  0  0
  153.9717  135.0514  182.2923 C   0  0  0  0  0  0  0  0  0  0  0  0
  155.4339  133.2014  181.5893 C   0  0  0  0  0  0  0  0  0  0  0  0
  156.2100  133.3499  180.4612 C   0  0  0  0  0  0  0  0  0  0  0  0
  157.5936  132.4349  180.8620 S   0  0  0  0  0  0  0  0  0  0  0  0
  157.1096  131.9153  182.4389 C   0  0  0  0  0  0  0  0  0  0  0  0
  155.9253  132.4774  182.5468 N   0  0  0  0  0  0  0  0  0  0  0  0
  157.8204  131.0902  183.3650 N   0  0  0  0  0  0  0  0  0  0  0  0
  159.2086  130.8318  183.1459 C   0  0  0  0  0  0  0  0  0  0  0  0
  159.8309  130.2244  184.3738 C   0  0  0  0  0  0  0  0  0  0  0  0
  159.2824  130.8259  185.5050 O   0  0  0  0  0  0  0  0  0  0  0  0
  157.9635  130.4361  185.7226 C   0  0  0  0  0  0  0  0  0  0  0  0
  157.1213  130.5434  184.4885 C   0  0  0  0  0  0  0  0  0  0  0  0
 22 23  1  0  0  0
 23 16  1  0  0  0
 16 17  2  0  0  0
 17 18  1  0  0  0
 18 19  2  0  0  0
 19 15  1  0  0  0
 15 13  1  0  0  0
 13 10  1  0  0  0
 10 11  2  0  0  0
 10 12  2  0  0  0
 10  3  1  0  0  0
  3  4  2  0  0  0
  4  5  1  0  0  0
  5  6  2  0  0  0
  6  7  1  0  0  0
  7  8  2  0  0  0
  8  9  1  0  0  0
  5  1  1  0  0  0
  1  2  1  0  0  0
  1 24  1  0  0  0
 24 25  1  0  0  0
 25 26  2  0  0  0
 25 28  1  0  0  0
 28 29  2  0  0  0
 29 30  1  0  0  0
 30 31  2  0  0  0
 31 32  1  0  0  0
 31 33  1  0  0  0
 33 34  2  0  0  0
 33 35  1  0  0  0
 35 36  2  0  0  0
 36 37  1  0  0  0
 37 38  1  0  0  0
 38 40  1  0  0  0
 40 41  1  0  0  0
 41 42  1  0  0  0
 42 43  1  0  0  0
 43 44  1  0  0  0
 44 45  1  0  0  0
 38 39  2  0  0  0
 19 20  1  0  0  0
 20 21  2  0  0  0
 21 16  1  0  0  0
  8  3  1  0  0  0
 34 28  1  0  0  0
 39 35  1  0  0  0
 45 40  1  0  0  0
 13 14  1  0  0  0
 24 27  1  0  0  0
M  END
> <minimizedAffinity>
-8.85028

> <CNNscore>
0.3296363652

> <CNNaffinity>
7.1522178650

> <CNN_VS>
2.3576312065

> <CNNaffinity_variance>
0.0509971902

$$$$
[H]c1sc(N2C([H])([H])C([H])([H])OC([H])([H])C2([H])[H])nc1-c1c([H])c(C(=O)N([H])C([H])(c2c([H])c([H])c(C([H])([H])[H])c(S(=O)(=O)N([H])C([H])([H])c3c([H])c([H])c(OC([H])([H])[H])c([H])c3[H])c2[H])C([H])([H])[H])c([H])c([H])c1Cl


 45 49  0  0  0  0  0  0  0  0999 V2000
  153.3360  139.8154  181.9952 C   0  0  0  0  0  0  0  0  0  0  0  0
  153.5359  141.3436  181.9458 C   0  0  0  0  0  0  0  0  0  0  0  0
  153.5885  137.8764  185.2847 C   0  0  0  0  0  0  0  0  0  0  0  0
  153.1535  138.4031  184.0625 C   0  0  0  0  0  0  0  0  0  0  0  0
  153.8641  139.3006  183.3039 C   0  0  0  0  0  0  0  0  0  0  0  0
  155.0951  139.7142  183.7796 C   0  0  0  0  0  0  0  0  0  0  0  0
  155.5381  139.2069  184.9791 C   0  0  0  0  0  0  0  0  0  0  0  0
  154.8121  138.2961  185.7435 C   0  0  0  0  0  0  0  0  0  0  0  0
  155.3197  137.7699  187.0199 C   0  0  0  0  0  0  0  0  0  0  0  0
  152.5356  136.7616  186.0725 S   0  0  0  0  0  0  0  0  0  0  0  0
  151.5425  137.5218  186.9196 O   0  0  0  0  0  0  0  0  0  0  0  0
  151.7005  136.1163  184.9577 O   0  0  0  0  0  0  0  0  0  0  0  0
  153.2120  135.5508  187.0052 N   0  0  0  0  0  0  0  0  0  0  0  0
  154.0997  135.8020  187.4982 H   0  0  0  0  0  0  0  0  0  0  0  0
  152.3064  134.8428  187.8728 C   0  0  0  0  0  0  0  0  0  0  0  0
  152.1676  136.6116  191.8009 C   0  0  0  0  0  0  0  0  0  0  0  0
  153.3599  136.5338  191.0989 C   0  0  0  0  0  0  0  0  0  0  0  0
  153.4285  135.9649  189.8217 C   0  0  0  0  0  0  0  0  0  0  0  0
  152.2886  135.4655  189.2348 C   0  0  0  0  0  0  0  0  0  0  0  0
  151.1051  135.5458  189.9373 C   0  0  0  0  0  0  0  0  0  0  0  0
  151.0335  136.1062  191.1970 C   0  0  0  0  0  0  0  0  0  0  0  0
  151.7450  136.3479  194.1524 C   0  0  0  0  0  0  0  0  0  0  0  0
  152.1208  137.1836  193.0771 O   0  0  0  0  0  0  0  0  0  0  0  0
  151.9097  139.6243  181.8640 N   0  0  0  0  0  0  0  0  0  0  0  0
  151.2742  139.3624  180.6288 C   0  0  0  0  0  0  0  0  0  0  0  0
  151.9655  139.2924  179.5921 O   0  0  0  0  0  0  0  0  0  0  0  0
  151.3186  139.6821  182.7188 H   0  0  0  0  0  0  0  0  0  0  0  0
  149.8111  139.1688  180.5204 C   0  0  0  0  0  0  0  0  0  0  0  0
  148.9671  139.7108  181.4533 C   0  0  0  0  0  0  0  0  0  0  0  0
  147.6060  139.5315  181.3323 C   0  0  0  0  0  0  0  0  0  0  0  0
  147.1043  138.8016  180.2614 C   0  0  0  0  0  0  0  0  0  0  0  0
  145.3707  138.5774  180.1126 Cl  0  0  0  0  0  0  0  0  0  0  0  0
  147.9631  138.2647  179.3344 C   0  0  0  0  0  0  0  0  0  0  0  0
  149.3071  138.4417  179.4557 C   0  0  0  0  0  0  0  0  0  0  0  0
  147.4264  137.4952  178.1824 C   0  0  0  0  0  0  0  0  0  0  0  0
  147.3084  138.0578  176.9308 C   0  0  0  0  0  0  0  0  0  0  0  0
  146.6462  136.7711  176.0265 S   0  0  0  0  0  0  0  0  0  0  0  0
  146.5563  135.5910  177.2875 C   0  0  0  0  0  0  0  0  0  0  0  0
  147.0382  136.2641  178.3097 N   0  0  0  0  0  0  0  0  0  0  0  0
  146.0785  134.2453  177.2194 N   0  0  0  0  0  0  0  0  0  0  0  0
  145.7150  133.5723  178.4264 C   0  0  0  0  0  0  0  0  0  0  0  0
  144.9528  132.3124  178.1173 C   0  0  0  0  0  0  0  0  0  0  0  0
  144.1133  132.5456  177.0296 O   0  0  0  0  0  0  0  0  0  0  0  0
  144.8185  132.6636  175.8347 C   0  0  0  0  0  0  0  0  0  0  0  0
  145.9773  133.6067  175.9419 C   0  0  0  0  0  0  0  0  0  0  0  0
 22 23  1  0  0  0
 23 16  1  0  0  0
 16 17  2  0  0  0
 17 18  1  0  0  0
 18 19  2  0  0  0
 19 15  1  0  0  0
 15 13  1  0  0  0
 13 10  1  0  0  0
 10 11  2  0  0  0
 10 12  2  0  0  0
 10  3  1  0  0  0
  3  4  2  0  0  0
  4  5  1  0  0  0
  5  6  2  0  0  0
  6  7  1  0  0  0
  7  8  2  0  0  0
  8  9  1  0  0  0
  5  1  1  0  0  0
  1  2  1  0  0  0
  1 24  1  0  0  0
 24 25  1  0  0  0
 25 26  2  0  0  0
 25 28  1  0  0  0
 28 29  2  0  0  0
 29 30  1  0  0  0
 30 31  2  0  0  0
 31 32  1  0  0  0
 31 33  1  0  0  0
 33 34  2  0  0  0
 33 35  1  0  0  0
 35 36  2  0  0  0
 36 37  1  0  0  0
 37 38  1  0  0  0
 38 40  1  0  0  0
 40 41  1  0  0  0
 41 42  1  0  0  0
 42 43  1  0  0  0
 43 44  1  0  0  0
 44 45  1  0  0  0
 38 39  2  0  0  0
 19 20  1  0  0  0
 20 21  2  0  0  0
 21 16  1  0  0  0
  8  3  1  0  0  0
 34 28  1  0  0  0
 39 35  1  0  0  0
 45 40  1  0  0  0
 13 14  1  0  0  0
 24 27  1  0  0  0
M  END
> <minimizedAffinity>
-7.47058

> <CNNscore>
0.3033791184

> <CNNaffinity>
6.0938277245

> <CNN_VS>
1.8487401009

> <CNNaffinity_variance>
0.2216152251

$$$$
[H]c1sc(N2C([H])([H])C([H])([H])OC([H])([H])C2([H])[H])nc1-c1c([H])c(C(=O)N([H])C([H])(c2c([H])c([H])c(C([H])([H])[H])c(S(=O)(=O)N([H])C([H])([H])c3c([H])c([H])c(OC([H])([H])[H])c([H])c3[H])c2[H])C([H])([H])[H])c([H])c([H])c1Cl


 45 49  0  0  0  0  0  0  0  0999 V2000
  153.8615  140.3611  182.1708 C   0  0  0  0  0  0  0  0  0  0  0  0
  153.8376  141.8976  182.2999 C   0  0  0  0  0  0  0  0  0  0  0  0
  154.2512  138.3704  185.4158 C   0  0  0  0  0  0  0  0  0  0  0  0
  153.7488  138.9525  184.2455 C   0  0  0  0  0  0  0  0  0  0  0  0
  154.4661  139.7804  183.4174 C   0  0  0  0  0  0  0  0  0  0  0  0
  155.7758  140.0600  183.7625 C   0  0  0  0  0  0  0  0  0  0  0  0
  156.2858  139.4967  184.9093 C   0  0  0  0  0  0  0  0  0  0  0  0
  155.5525  138.6570  185.7448 C   0  0  0  0  0  0  0  0  0  0  0  0
  156.1322  138.0673  186.9614 C   0  0  0  0  0  0  0  0  0  0  0  0
  153.1758  137.3612  186.3085 S   0  0  0  0  0  0  0  0  0  0  0  0
  151.8570  137.2630  185.5786 O   0  0  0  0  0  0  0  0  0  0  0  0
  153.7762  135.9499  186.2432 O   0  0  0  0  0  0  0  0  0  0  0  0
  152.8707  137.7407  187.9074 N   0  0  0  0  0  0  0  0  0  0  0  0
  151.8613  137.7754  188.1794 H   0  0  0  0  0  0  0  0  0  0  0  0
  153.6586  137.0347  188.8845 C   0  0  0  0  0  0  0  0  0  0  0  0
  151.4272  136.3943  192.5161 C   0  0  0  0  0  0  0  0  0  0  0  0
  150.9187  135.9949  191.2905 C   0  0  0  0  0  0  0  0  0  0  0  0
  151.6260  136.1915  190.0986 C   0  0  0  0  0  0  0  0  0  0  0  0
  152.8614  136.7964  190.1299 C   0  0  0  0  0  0  0  0  0  0  0  0
  153.3629  137.1914  191.3518 C   0  0  0  0  0  0  0  0  0  0  0  0
  152.6683  136.9992  192.5294 C   0  0  0  0  0  0  0  0  0  0  0  0
  149.6242  135.2789  193.6487 C   0  0  0  0  0  0  0  0  0  0  0  0
  150.7035  136.1892  193.6961 O   0  0  0  0  0  0  0  0  0  0  0  0
  152.4771  139.9824  182.0027 N   0  0  0  0  0  0  0  0  0  0  0  0
  151.9274  139.5899  180.7610 C   0  0  0  0  0  0  0  0  0  0  0  0
  152.6606  139.5670  179.7514 O   0  0  0  0  0  0  0  0  0  0  0  0
  151.8516  139.9986  182.8345 H   0  0  0  0  0  0  0  0  0  0  0  0
  150.5061  139.2048  180.6146 C   0  0  0  0  0  0  0  0  0  0  0  0
  149.9690  138.9871  179.3735 C   0  0  0  0  0  0  0  0  0  0  0  0
  148.6466  138.6176  179.2543 C   0  0  0  0  0  0  0  0  0  0  0  0
  147.8716  138.4689  180.3982 C   0  0  0  0  0  0  0  0  0  0  0  0
  146.1891  137.9978  180.2399 Cl  0  0  0  0  0  0  0  0  0  0  0  0
  148.4244  138.6906  181.6353 C   0  0  0  0  0  0  0  0  0  0  0  0
  149.7302  139.0564  181.7514 C   0  0  0  0  0  0  0  0  0  0  0  0
  147.5997  138.5193  182.8592 C   0  0  0  0  0  0  0  0  0  0  0  0
  147.3757  139.5624  183.7303 C   0  0  0  0  0  0  0  0  0  0  0  0
  146.4078  138.8226  184.9251 S   0  0  0  0  0  0  0  0  0  0  0  0
  146.3414  137.2308  184.2522 C   0  0  0  0  0  0  0  0  0  0  0  0
  147.0637  137.3778  183.1628 N   0  0  0  0  0  0  0  0  0  0  0  0
  145.6753  136.0728  184.7609 N   0  0  0  0  0  0  0  0  0  0  0  0
  146.1963  134.7778  184.4552 C   0  0  0  0  0  0  0  0  0  0  0  0
  145.5556  133.7333  185.3284 C   0  0  0  0  0  0  0  0  0  0  0  0
  145.3762  134.2587  186.6067 O   0  0  0  0  0  0  0  0  0  0  0  0
  144.3654  135.2155  186.6466 C   0  0  0  0  0  0  0  0  0  0  0  0
  144.5019  136.2415  185.5639 C   0  0  0  0  0  0  0  0  0  0  0  0
 22 23  1  0  0  0
 23 16  1  0  0  0
 16 17  2  0  0  0
 17 18  1  0  0  0
 18 19  2  0  0  0
 19 15  1  0  0  0
 15 13  1  0  0  0
 13 10  1  0  0  0
 10 11  2  0  0  0
 10 12  2  0  0  0
 10  3  1  0  0  0
  3  4  2  0  0  0
  4  5  1  0  0  0
  5  6  2  0  0  0
  6  7  1  0  0  0
  7  8  2  0  0  0
  8  9  1  0  0  0
  5  1  1  0  0  0
  1  2  1  0  0  0
  1 24  1  0  0  0
 24 25  1  0  0  0
 25 26  2  0  0  0
 25 28  1  0  0  0
 28 29  2  0  0  0
 29 30  1  0  0  0
 30 31  2  0  0  0
 31 32  1  0  0  0
 31 33  1  0  0  0
 33 34  2  0  0  0
 33 35  1  0  0  0
 35 36  2  0  0  0
 36 37  1  0  0  0
 37 38  1  0  0  0
 38 40  1  0  0  0
 40 41  1  0  0  0
 41 42  1  0  0  0
 42 43  1  0  0  0
 43 44  1  0  0  0
 44 45  1  0  0  0
 38 39  2  0  0  0
 19 20  1  0  0  0
 20 21  2  0  0  0
 21 16  1  0  0  0
  8  3  1  0  0  0
 34 28  1  0  0  0
 39 35  1  0  0  0
 45 40  1  0  0  0
 13 14  1  0  0  0
 24 27  1  0  0  0
M  END
> <minimizedAffinity>
-8.31763

> <CNNscore>
0.2804761827

> <CNNaffinity>
6.5635514259

> <CNN_VS>
1.8409198523

> <CNNaffinity_variance>
0.2738064229

$$$$
[H]c1sc(N2C([H])([H])C([H])([H])OC([H])([H])C2([H])[H])nc1-c1c([H])c(C(=O)N([H])C([H])(c2c([H])c([H])c(C([H])([H])[H])c(S(=O)(=O)N([H])C([H])([H])c3c([H])c([H])c(OC([H])([H])[H])c([H])c3[H])c2[H])C([H])([H])[H])c([H])c([H])c1Cl


 45 49  0  0  0  0  0  0  0  0999 V2000
  153.3847  139.8954  182.0101 C   0  0  0  0  0  0  0  0  0  0  0  0
  153.4934  141.4324  181.9493 C   0  0  0  0  0  0  0  0  0  0  0  0
  153.8627  138.0248  185.3141 C   0  0  0  0  0  0  0  0  0  0  0  0
  153.3493  138.5180  184.1085 C   0  0  0  0  0  0  0  0  0  0  0  0
  153.9954  139.4178  183.2969 C   0  0  0  0  0  0  0  0  0  0  0  0
  155.2396  139.8696  183.6974 C   0  0  0  0  0  0  0  0  0  0  0  0
  155.7593  139.3955  184.8797 C   0  0  0  0  0  0  0  0  0  0  0  0
  155.0986  138.4820  185.6982 C   0  0  0  0  0  0  0  0  0  0  0  0
  155.6873  137.9919  186.9540 C   0  0  0  0  0  0  0  0  0  0  0  0
  152.8820  136.9001  186.1773 S   0  0  0  0  0  0  0  0  0  0  0  0
  152.4617  137.5080  187.4947 O   0  0  0  0  0  0  0  0  0  0  0  0
  151.5859  136.7667  185.3656 O   0  0  0  0  0  0  0  0  0  0  0  0
  153.4920  135.3714  186.4687 N   0  0  0  0  0  0  0  0  0  0  0  0
  154.2954  135.0823  185.8644 H   0  0  0  0  0  0  0  0  0  0  0  0
  153.7213  135.0368  187.8505 C   0  0  0  0  0  0  0  0  0  0  0  0
  157.9212  134.2898  188.4668 C   0  0  0  0  0  0  0  0  0  0  0  0
  157.1197  134.7368  189.5050 C   0  0  0  0  0  0  0  0  0  0  0  0
  155.7534  134.9848  189.3284 C   0  0  0  0  0  0  0  0  0  0  0  0
  155.1769  134.7832  188.0954 C   0  0  0  0  0  0  0  0  0  0  0  0
  155.9786  134.3380  187.0661 C   0  0  0  0  0  0  0  0  0  0  0  0
  157.3265  134.0923  187.2365 C   0  0  0  0  0  0  0  0  0  0  0  0
  160.1974  134.7680  187.8600 C   0  0  0  0  0  0  0  0  0  0  0  0
  159.2855  134.0486  188.6642 O   0  0  0  0  0  0  0  0  0  0  0  0
  151.9676  139.6216  181.9387 N   0  0  0  0  0  0  0  0  0  0  0  0
  151.2837  139.3935  180.7229 C   0  0  0  0  0  0  0  0  0  0  0  0
  151.9211  139.4295  179.6506 O   0  0  0  0  0  0  0  0  0  0  0  0
  151.4209  139.5906  182.8239 H   0  0  0  0  0  0  0  0  0  0  0  0
  149.8313  139.1135  180.6759 C   0  0  0  0  0  0  0  0  0  0  0  0
  149.0055  139.5548  181.6757 C   0  0  0  0  0  0  0  0  0  0  0  0
  147.6533  139.2961  181.6119 C   0  0  0  0  0  0  0  0  0  0  0  0
  147.1419  138.5892  180.5301 C   0  0  0  0  0  0  0  0  0  0  0  0
  145.4197  138.2637  180.4544 Cl  0  0  0  0  0  0  0  0  0  0  0  0
  147.9825  138.1536  179.5358 C   0  0  0  0  0  0  0  0  0  0  0  0
  149.3178  138.4090  179.6006 C   0  0  0  0  0  0  0  0  0  0  0  0
  147.4344  137.4090  178.3728 C   0  0  0  0  0  0  0  0  0  0  0  0
  147.2711  138.0089  177.1437 C   0  0  0  0  0  0  0  0  0  0  0  0
  146.6161  136.7365  176.2143 S   0  0  0  0  0  0  0  0  0  0  0  0
  146.5864  135.5143  177.4376 C   0  0  0  0  0  0  0  0  0  0  0  0
  147.0786  136.1654  178.4690 N   0  0  0  0  0  0  0  0  0  0  0  0
  146.1387  134.1604  177.3371 N   0  0  0  0  0  0  0  0  0  0  0  0
  145.6256  133.5073  178.4999 C   0  0  0  0  0  0  0  0  0  0  0  0
  144.9272  132.2296  178.1208 C   0  0  0  0  0  0  0  0  0  0  0  0
  144.2376  132.4271  176.9258 O   0  0  0  0  0  0  0  0  0  0  0  0
  145.0946  132.5309  175.8333 C   0  0  0  0  0  0  0  0  0  0  0  0
  146.2169  133.4937  176.0724 C   0  0  0  0  0  0  0  0  0  0  0  0
 22 23  1  0  0  0
 23 16  1  0  0  0
 16 17  2  0  0  0
 17 18  1  0  0  0
 18 19  2  0  0  0
 19 15  1  0  0  0
 15 13  1  0  0  0
 13 10  1  0  0  0
 10 11  2  0  0  0
 10 12  2  0  0  0
 10  3  1  0  0  0
  3  4  2  0  0  0
  4  5  1  0  0  0
  5  6  2  0  0  0
  6  7  1  0  0  0
  7  8  2  0  0  0
  8  9  1  0  0  0
  5  1  1  0  0  0
  1  2  1  0  0  0
  1 24  1  0  0  0
 24 25  1  0  0  0
 25 26  2  0  0  0
 25 28  1  0  0  0
 28 29  2  0  0  0
 29 30  1  0  0  0
 30 31  2  0  0  0
 31 32  1  0  0  0
 31 33  1  0  0  0
 33 34  2  0  0  0
 33 35  1  0  0  0
 35 36  2  0  0  0
 36 37  1  0  0  0
 37 38  1  0  0  0
 38 40  1  0  0  0
 40 41  1  0  0  0
 41 42  1  0  0  0
 42 43  1  0  0  0
 43 44  1  0  0  0
 44 45  1  0  0  0
 38 39  2  0  0  0
 19 20  1  0  0  0
 20 21  2  0  0  0
 21 16  1  0  0  0
  8  3  1  0  0  0
 34 28  1  0  0  0
 39 35  1  0  0  0
 45 40  1  0  0  0
 13 14  1  0  0  0
 24 27  1  0  0  0
M  END
> <minimizedAffinity>
-7.24706

> <CNNscore>
0.2458553910

> <CNNaffinity>
5.9610238075

> <CNN_VS>
1.4655498266

> <CNNaffinity_variance>
0.2566401064

$$$$
[H]C1=C([H])C([H])(F)C([H])([H])C([H])=C1N([H])C(=O)C1(C(=O)N([H])c2c([H])c([H])c(Oc3c([H])c([H])nc4c([H])c(OC([H])([H])C([H])([H])C([H])([H])N5C([H])([H])C([H])([H])C([H])([H])C5([H])[H])c(OC([H])([H])[H])c([H])c34)c(F)c2[H])C([H])([H])C1([H])[H]


 47 52  0  0  0  0  0  0  0  0999 V2000
  156.0224  136.1893  189.8519 C   0  0  0  0  0  0  0  0  0  0  0  0
  155.8349  135.5281  188.6458 C   0  0  0  0  0  0  0  0  0  0  0  0
  155.8324  136.2159  187.4602 C   0  0  0  0  0  0  0  0  0  0  0  0
  156.0150  137.6063  187.3832 C   0  0  0  0  0  0  0  0  0  0  0  0
  156.1989  138.2561  188.5720 C   0  0  0  0  0  0  0  0  0  0  0  0
  156.2016  137.5464  189.7879 C   0  0  0  0  0  0  0  0  0  0  0  0
  156.4072  138.2699  190.9177 F   0  0  0  0  0  0  0  0  0  0  0  0
  155.9720  138.2412  186.1051 N   0  0  0  0  0  0  0  0  0  0  0  0
  154.8651  138.7867  185.4670 C   0  0  0  0  0  0  0  0  0  0  0  0
  153.7435  138.7020  186.0851 O   0  0  0  0  0  0  0  0  0  0  0  0
  156.9269  138.2108  185.6085 H   0  0  0  0  0  0  0  0  0  0  0  0
  154.8466  139.4345  184.1618 C   0  0  0  0  0  0  0  0  0  0  0  0
  153.4829  139.8989  183.6577 C   0  0  0  0  0  0  0  0  0  0  0  0
  154.0377  138.6363  183.1249 C   0  0  0  0  0  0  0  0  0  0  0  0
  156.0123  140.1807  183.6225 C   0  0  0  0  0  0  0  0  0  0  0  0
  157.0822  140.0011  184.3285 O   0  0  0  0  0  0  0  0  0  0  0  0
  155.9866  140.9722  182.4967 N   0  0  0  0  0  0  0  0  0  0  0  0
  155.0798  140.9671  181.9355 H   0  0  0  0  0  0  0  0  0  0  0  0
  157.0295  141.7582  181.8935 C   0  0  0  0  0  0  0  0  0  0  0  0
  157.0764  143.0634  181.9579 C   0  0  0  0  0  0  0  0  0  0  0  0
  158.1426  143.8763  181.3422 C   0  0  0  0  0  0  0  0  0  0  0  0
  159.1940  143.1551  180.6058 C   0  0  0  0  0  0  0  0  0  0  0  0
  159.1837  143.6147  179.2746 F   0  0  0  0  0  0  0  0  0  0  0  0
  159.0714  141.7080  180.5805 C   0  0  0  0  0  0  0  0  0  0  0  0
  158.1025  141.0658  181.1557 C   0  0  0  0  0  0  0  0  0  0  0  0
  156.0312  135.5184  191.0541 O   0  0  0  0  0  0  0  0  0  0  0  0
  152.2010  135.5573  192.4984 C   0  0  0  0  0  0  0  0  0  0  0  0
  153.4866  135.5123  192.0179 C   0  0  0  0  0  0  0  0  0  0  0  0
  154.1702  134.3345  191.8475 C   0  0  0  0  0  0  0  0  0  0  0  0
  155.4750  134.3159  191.3546 C   0  0  0  0  0  0  0  0  0  0  0  0
  156.0501  133.0752  191.2275 C   0  0  0  0  0  0  0  0  0  0  0  0
  155.3826  131.9245  191.5639 C   0  0  0  0  0  0  0  0  0  0  0  0
  154.1449  131.9962  192.0273 N   0  0  0  0  0  0  0  0  0  0  0  0
  153.4966  133.1805  192.1866 C   0  0  0  0  0  0  0  0  0  0  0  0
  152.2057  133.1921  192.6720 C   0  0  0  0  0  0  0  0  0  0  0  0
  151.5650  134.3936  192.8243 C   0  0  0  0  0  0  0  0  0  0  0  0
  152.0580  137.8331  193.4200 C   0  0  0  0  0  0  0  0  0  0  0  0
  151.5420  136.7759  192.6560 O   0  0  0  0  0  0  0  0  0  0  0  0
  150.2671  134.3624  193.3152 O   0  0  0  0  0  0  0  0  0  0  0  0
  149.2619  133.5289  192.8307 C   0  0  0  0  0  0  0  0  0  0  0  0
  148.6878  134.1299  191.5738 C   0  0  0  0  0  0  0  0  0  0  0  0
  148.8795  133.2329  190.3845 C   0  0  0  0  0  0  0  0  0  0  0  0
  149.7162  133.8505  189.4057 N   0  0  0  0  0  0  0  0  0  0  0  0
  149.7594  135.2760  189.4447 C   0  0  0  0  0  0  0  0  0  0  0  0
  151.1890  135.6889  189.0817 C   0  0  0  0  0  0  0  0  0  0  0  0
  151.7102  134.4167  188.4397 C   0  0  0  0  0  0  0  0  0  0  0  0
  151.0589  133.3604  189.3443 C   0  0  0  0  0  0  0  0  0  0  0  0
 37 38  1  0  0  0
 38 27  1  0  0  0
 27 28  2  0  0  0
 28 29  1  0  0  0
 29 30  2  0  0  0
 30 26  1  0  0  0
 26  1  1  0  0  0
  1  2  2  0  0  0
  2  3  1  0  0  0
  3  4  2  0  0  0
  4  8  1  0  0  0
  8  9  1  0  0  0
  9 10  2  0  0  0
  9 12  1  0  0  0
 12 13  1  0  0  0
 13 14  1  0  0  0
 12 15  1  0  0  0
 15 16  2  0  0  0
 15 17  1  0  0  0
 17 19  1  0  0  0
 19 20  2  0  0  0
 20 21  1  0  0  0
 21 22  1  0  0  0
 22 23  1  0  0  0
 22 24  1  0  0  0
 24 25  2  0  0  0
  4  5  1  0  0  0
  5  6  2  0  0  0
  6  7  1  0  0  0
 30 31  1  0  0  0
 31 32  2  0  0  0
 32 33  1  0  0  0
 33 34  2  0  0  0
 34 35  1  0  0  0
 35 36  2  0  0  0
 36 39  1  0  0  0
 39 40  1  0  0  0
 40 41  1  0  0  0
 41 42  1  0  0  0
 42 43  1  0  0  0
 43 44  1  0  0  0
 44 45  1  0  0  0
 45 46  1  0  0  0
 46 47  1  0  0  0
 36 27  1  0  0  0
 47 43  1  0  0  0
 34 29  1  0  0  0
  6  1  1  0  0  0
 14 12  1  0  0  0
 25 19  1  0  0  0
  8 11  1  0  0  0
 17 18  1  0  0  0
M  END
> <minimizedAffinity>
-6.88879

> <CNNscore>
0.1259430945

> <CNNaffinity>
6.4688057899

> <CNN_VS>
0.8147014380

> <CNNaffinity_variance>
0.1816770285

$$$$
[H]C1=C([H])C([H])(F)C([H])([H])C([H])=C1N([H])C(=O)C1(C(=O)N([H])c2c([H])c([H])c(Oc3c([H])c([H])nc4c([H])c(OC([H])([H])C([H])([H])C([H])([H])N5C([H])([H])C([H])([H])C([H])([H])C5([H])[H])c(OC([H])([H])[H])c([H])c34)c(F)c2[H])C([H])([H])C1([H])[H]


 47 52  0  0  0  0  0  0  0  0999 V2000
  152.5757  137.1967  185.4460 C   0  0  0  0  0  0  0  0  0  0  0  0
  152.7610  137.3649  184.0806 C   0  0  0  0  0  0  0  0  0  0  0  0
  153.4971  138.4145  183.5953 C   0  0  0  0  0  0  0  0  0  0  0  0
  154.1019  139.3720  184.4258 C   0  0  0  0  0  0  0  0  0  0  0  0
  153.9180  139.2052  185.7702 C   0  0  0  0  0  0  0  0  0  0  0  0
  153.1619  138.1257  186.2653 C   0  0  0  0  0  0  0  0  0  0  0  0
  153.0448  138.0288  187.6141 F   0  0  0  0  0  0  0  0  0  0  0  0
  154.8296  140.4460  183.8295 N   0  0  0  0  0  0  0  0  0  0  0  0
  156.1977  140.5171  183.5985 C   0  0  0  0  0  0  0  0  0  0  0  0
  156.8989  139.5101  183.9746 O   0  0  0  0  0  0  0  0  0  0  0  0
  154.1954  141.2876  183.6081 H   0  0  0  0  0  0  0  0  0  0  0  0
  156.9183  141.6243  182.9835 C   0  0  0  0  0  0  0  0  0  0  0  0
  156.0870  142.5827  182.1349 C   0  0  0  0  0  0  0  0  0  0  0  0
  156.8960  141.5540  181.4468 C   0  0  0  0  0  0  0  0  0  0  0  0
  158.1505  142.2045  183.5763 C   0  0  0  0  0  0  0  0  0  0  0  0
  158.4339  143.3677  183.0843 O   0  0  0  0  0  0  0  0  0  0  0  0
  158.9166  141.5991  184.5465 N   0  0  0  0  0  0  0  0  0  0  0  0
  158.5345  140.6898  184.9518 H   0  0  0  0  0  0  0  0  0  0  0  0
  160.1321  142.0410  185.1761 C   0  0  0  0  0  0  0  0  0  0  0  0
  161.3077  141.9591  184.6093 C   0  0  0  0  0  0  0  0  0  0  0  0
  162.5585  142.4103  185.2484 C   0  0  0  0  0  0  0  0  0  0  0  0
  162.4535  142.9669  186.6075 C   0  0  0  0  0  0  0  0  0  0  0  0
  163.2471  142.1770  187.4617 F   0  0  0  0  0  0  0  0  0  0  0  0
  161.1144  143.0243  187.1671 C   0  0  0  0  0  0  0  0  0  0  0  0
  160.0603  142.6113  186.5344 C   0  0  0  0  0  0  0  0  0  0  0  0
  151.8427  136.1487  185.9556 O   0  0  0  0  0  0  0  0  0  0  0  0
  149.3427  135.6017  189.1508 C   0  0  0  0  0  0  0  0  0  0  0  0
  150.2019  135.7641  188.0920 C   0  0  0  0  0  0  0  0  0  0  0  0
  151.3633  135.0437  187.9665 C   0  0  0  0  0  0  0  0  0  0  0  0
  152.2178  135.2255  186.8790 C   0  0  0  0  0  0  0  0  0  0  0  0
  153.3467  134.4436  186.8666 C   0  0  0  0  0  0  0  0  0  0  0  0
  153.6177  133.5387  187.8619 C   0  0  0  0  0  0  0  0  0  0  0  0
  152.7741  133.4038  188.8728 N   0  0  0  0  0  0  0  0  0  0  0  0
  151.6323  134.1356  188.9682 C   0  0  0  0  0  0  0  0  0  0  0  0
  150.7902  133.9494  190.0445 C   0  0  0  0  0  0  0  0  0  0  0  0
  149.6420  134.6926  190.1250 C   0  0  0  0  0  0  0  0  0  0  0  0
  146.9382  135.9138  188.7382 C   0  0  0  0  0  0  0  0  0  0  0  0
  148.1721  136.3540  189.2398 O   0  0  0  0  0  0  0  0  0  0  0  0
  148.8215  134.4752  191.2231 O   0  0  0  0  0  0  0  0  0  0  0  0
  148.4006  133.2198  191.6553 C   0  0  0  0  0  0  0  0  0  0  0  0
  147.3172  132.7204  190.7348 C   0  0  0  0  0  0  0  0  0  0  0  0
  147.5252  131.2835  190.3508 C   0  0  0  0  0  0  0  0  0  0  0  0
  147.9713  131.1732  188.9986 N   0  0  0  0  0  0  0  0  0  0  0  0
  147.5964  132.2475  188.1377 C   0  0  0  0  0  0  0  0  0  0  0  0
  148.7610  132.4691  187.1680 C   0  0  0  0  0  0  0  0  0  0  0  0
  149.5241  131.1663  187.3197 C   0  0  0  0  0  0  0  0  0  0  0  0
  149.3703  130.9268  188.8288 C   0  0  0  0  0  0  0  0  0  0  0  0
 37 38  1  0  0  0
 38 27  1  0  0  0
 27 28  2  0  0  0
 28 29  1  0  0  0
 29 30  2  0  0  0
 30 26  1  0  0  0
 26  1  1  0  0  0
  1  2  2  0  0  0
  2  3  1  0  0  0
  3  4  2  0  0  0
  4  8  1  0  0  0
  8  9  1  0  0  0
  9 10  2  0  0  0
  9 12  1  0  0  0
 12 13  1  0  0  0
 13 14  1  0  0  0
 12 15  1  0  0  0
 15 16  2  0  0  0
 15 17  1  0  0  0
 17 19  1  0  0  0
 19 20  2  0  0  0
 20 21  1  0  0  0
 21 22  1  0  0  0
 22 23  1  0  0  0
 22 24  1  0  0  0
 24 25  2  0  0  0
  4  5  1  0  0  0
  5  6  2  0  0  0
  6  7  1  0  0  0
 30 31  1  0  0  0
 31 32  2  0  0  0
 32 33  1  0  0  0
 33 34  2  0  0  0
 34 35  1  0  0  0
 35 36  2  0  0  0
 36 39  1  0  0  0
 39 40  1  0  0  0
 40 41  1  0  0  0
 41 42  1  0  0  0
 42 43  1  0  0  0
 43 44  1  0  0  0
 44 45  1  0  0  0
 45 46  1  0  0  0
 46 47  1  0  0  0
 36 27  1  0  0  0
 47 43  1  0  0  0
 34 29  1  0  0  0
  6  1  1  0  0  0
 14 12  1  0  0  0
 25 19  1  0  0  0
  8 11  1  0  0  0
 17 18  1  0  0  0
M  END
> <minimizedAffinity>
-6.95057

> <CNNscore>
0.1127545908

> <CNNaffinity>
6.6834907532

> <CNN_VS>
0.7535942793

> <CNNaffinity_variance>
0.3280934393

$$$$
[H]C1=C([H])C([H])(F)C([H])([H])C([H])=C1N([H])C(=O)C1(C(=O)N([H])c2c([H])c([H])c(Oc3c([H])c([H])nc4c([H])c(OC([H])([H])C([H])([H])C([H])([H])N5C([H])([H])C([H])([H])C([H])([H])C5([H])[H])c(OC([H])([H])[H])c([H])c34)c(F)c2[H])C([H])([H])C1([H])[H]


 47 52  0  0  0  0  0  0  0  0999 V2000
  153.3601  137.9012  183.7379 C   0  0  0  0  0  0  0  0  0  0  0  0
  154.5363  138.1722  184.4234 C   0  0  0  0  0  0  0  0  0  0  0  0
  155.2592  139.3061  184.1578 C   0  0  0  0  0  0  0  0  0  0  0  0
  154.8702  140.2522  183.1956 C   0  0  0  0  0  0  0  0  0  0  0  0
  153.7118  139.9835  182.5209 C   0  0  0  0  0  0  0  0  0  0  0  0
  152.9715  138.8182  182.7967 C   0  0  0  0  0  0  0  0  0  0  0  0
  151.8260  138.6401  182.0906 F   0  0  0  0  0  0  0  0  0  0  0  0
  155.7000  141.3919  182.9691 N   0  0  0  0  0  0  0  0  0  0  0  0
  157.0063  141.4082  182.4967 C   0  0  0  0  0  0  0  0  0  0  0  0
  157.5427  140.2697  182.2452 O   0  0  0  0  0  0  0  0  0  0  0  0
  155.2186  142.3064  183.2715 H   0  0  0  0  0  0  0  0  0  0  0  0
  157.8331  142.5865  182.2694 C   0  0  0  0  0  0  0  0  0  0  0  0
  157.1703  143.7432  181.5263 C   0  0  0  0  0  0  0  0  0  0  0  0
  158.0761  142.8497  180.7733 C   0  0  0  0  0  0  0  0  0  0  0  0
  158.9497  142.9666  183.1723 C   0  0  0  0  0  0  0  0  0  0  0  0
  159.2583  144.2198  183.0741 O   0  0  0  0  0  0  0  0  0  0  0  0
  159.5936  142.1057  184.0318 N   0  0  0  0  0  0  0  0  0  0  0  0
  159.1905  141.1211  184.1051 H   0  0  0  0  0  0  0  0  0  0  0  0
  160.6934  142.3429  184.9281 C   0  0  0  0  0  0  0  0  0  0  0  0
  161.9411  142.1070  184.6155 C   0  0  0  0  0  0  0  0  0  0  0  0
  163.0742  142.3479  185.5290 C   0  0  0  0  0  0  0  0  0  0  0  0
  162.7556  142.8692  186.8686 C   0  0  0  0  0  0  0  0  0  0  0  0
  163.2301  141.9436  187.8180 F   0  0  0  0  0  0  0  0  0  0  0  0
  161.3480  143.1052  187.1387 C   0  0  0  0  0  0  0  0  0  0  0  0
  160.4090  142.8728  186.2748 C   0  0  0  0  0  0  0  0  0  0  0  0
  152.6169  136.7700  183.9901 O   0  0  0  0  0  0  0  0  0  0  0  0
  153.4664  133.8914  186.7739 C   0  0  0  0  0  0  0  0  0  0  0  0
  153.1528  134.8615  185.8541 C   0  0  0  0  0  0  0  0  0  0  0  0
  151.9868  135.5833  185.9108 C   0  0  0  0  0  0  0  0  0  0  0  0
  151.6933  136.5661  184.9654 C   0  0  0  0  0  0  0  0  0  0  0  0
  150.4970  137.2196  185.1318 C   0  0  0  0  0  0  0  0  0  0  0  0
  149.6429  136.9250  186.1646 C   0  0  0  0  0  0  0  0  0  0  0  0
  149.9682  135.9833  187.0359 N   0  0  0  0  0  0  0  0  0  0  0  0
  151.1312  135.2846  186.9496 C   0  0  0  0  0  0  0  0  0  0  0  0
  151.4168  134.3159  187.8889 C   0  0  0  0  0  0  0  0  0  0  0  0
  152.5942  133.6222  187.7897 C   0  0  0  0  0  0  0  0  0  0  0  0
  155.8616  133.7553  186.2319 C   0  0  0  0  0  0  0  0  0  0  0  0
  154.6626  133.1812  186.6801 O   0  0  0  0  0  0  0  0  0  0  0  0
  152.8444  132.6563  188.7545 O   0  0  0  0  0  0  0  0  0  0  0  0
  151.8734  132.1050  189.5871 C   0  0  0  0  0  0  0  0  0  0  0  0
  152.2980  132.2817  191.0221 C   0  0  0  0  0  0  0  0  0  0  0  0
  153.7889  132.1945  191.1811 C   0  0  0  0  0  0  0  0  0  0  0  0
  154.1404  131.7709  192.4989 N   0  0  0  0  0  0  0  0  0  0  0  0
  153.0886  131.8199  193.4617 C   0  0  0  0  0  0  0  0  0  0  0  0
  153.2827  130.6215  194.3955 C   0  0  0  0  0  0  0  0  0  0  0  0
  154.7243  130.2491  194.1030 C   0  0  0  0  0  0  0  0  0  0  0  0
  154.7729  130.4907  192.5871 C   0  0  0  0  0  0  0  0  0  0  0  0
 37 38  1  0  0  0
 38 27  1  0  0  0
 27 28  2  0  0  0
 28 29  1  0  0  0
 29 30  2  0  0  0
 30 26  1  0  0  0
 26  1  1  0  0  0
  1  2  2  0  0  0
  2  3  1  0  0  0
  3  4  2  0  0  0
  4  8  1  0  0  0
  8  9  1  0  0  0
  9 10  2  0  0  0
  9 12  1  0  0  0
 12 13  1  0  0  0
 13 14  1  0  0  0
 12 15  1  0  0  0
 15 16  2  0  0  0
 15 17  1  0  0  0
 17 19  1  0  0  0
 19 20  2  0  0  0
 20 21  1  0  0  0
 21 22  1  0  0  0
 22 23  1  0  0  0
 22 24  1  0  0  0
 24 25  2  0  0  0
  4  5  1  0  0  0
  5  6  2  0  0  0
  6  7  1  0  0  0
 30 31  1  0  0  0
 31 32  2  0  0  0
 32 33  1  0  0  0
 33 34  2  0  0  0
 34 35  1  0  0  0
 35 36  2  0  0  0
 36 39  1  0  0  0
 39 40  1  0  0  0
 40 41  1  0  0  0
 41 42  1  0  0  0
 42 43  1  0  0  0
 43 44  1  0  0  0
 44 45  1  0  0  0
 45 46  1  0  0  0
 46 47  1  0  0  0
 36 27  1  0  0  0
 47 43  1  0  0  0
 34 29  1  0  0  0
  6  1  1  0  0  0
 14 12  1  0  0  0
 25 19  1  0  0  0
  8 11  1  0  0  0
 17 18  1  0  0  0
M  END
> <minimizedAffinity>
-7.55086

> <CNNscore>
0.1093790382

> <CNNaffinity>
6.6969985962

> <CNN_VS>
0.7325112820

> <CNNaffinity_variance>
0.2961135507

$$$$
[H]C1=C([H])C([H])(F)C([H])([H])C([H])=C1N([H])C(=O)C1(C(=O)N([H])c2c([H])c([H])c(Oc3c([H])c([H])nc4c([H])c(OC([H])([H])C([H])([H])C([H])([H])N5C([H])([H])C([H])([H])C([H])([H])C5([H])[H])c(OC([H])([H])[H])c([H])c34)c(F)c2[H])C([H])([H])C1([H])[H]


 47 52  0  0  0  0  0  0  0  0999 V2000
  152.8063  139.3767  182.6679 C   0  0  0  0  0  0  0  0  0  0  0  0
  152.8428  140.4343  181.7696 C   0  0  0  0  0  0  0  0  0  0  0  0
  153.9338  141.2613  181.7015 C   0  0  0  0  0  0  0  0  0  0  0  0
  155.0659  141.1010  182.5169 C   0  0  0  0  0  0  0  0  0  0  0  0
  155.0281  140.0592  183.4015 C   0  0  0  0  0  0  0  0  0  0  0  0
  153.9062  139.2114  183.4684 C   0  0  0  0  0  0  0  0  0  0  0  0
  153.9615  138.1934  184.3644 F   0  0  0  0  0  0  0  0  0  0  0  0
  156.1459  142.0268  182.3932 N   0  0  0  0  0  0  0  0  0  0  0  0
  157.4179  141.7823  181.8911 C   0  0  0  0  0  0  0  0  0  0  0  0
  157.6643  140.5838  181.5038 O   0  0  0  0  0  0  0  0  0  0  0  0
  155.8988  142.9904  182.8053 H   0  0  0  0  0  0  0  0  0  0  0  0
  158.5042  142.7462  181.7708 C   0  0  0  0  0  0  0  0  0  0  0  0
  158.3262  143.8362  180.7173 C   0  0  0  0  0  0  0  0  0  0  0  0
  159.1926  142.6819  180.3964 C   0  0  0  0  0  0  0  0  0  0  0  0
  159.3891  143.1006  182.9100 C   0  0  0  0  0  0  0  0  0  0  0  0
  159.4812  144.3800  183.0833 O   0  0  0  0  0  0  0  0  0  0  0  0
  160.0411  142.1912  183.7115 N   0  0  0  0  0  0  0  0  0  0  0  0
  159.8131  141.1632  183.5430 H   0  0  0  0  0  0  0  0  0  0  0  0
  160.9359  142.4059  184.8171 C   0  0  0  0  0  0  0  0  0  0  0  0
  162.2262  142.2046  184.7489 C   0  0  0  0  0  0  0  0  0  0  0  0
  163.1503  142.4227  185.8781 C   0  0  0  0  0  0  0  0  0  0  0  0
  162.5605  142.8784  187.1479 C   0  0  0  0  0  0  0  0  0  0  0  0
  162.8610  141.9191  188.1342 F   0  0  0  0  0  0  0  0  0  0  0  0
  161.1219  143.0792  187.1427 C   0  0  0  0  0  0  0  0  0  0  0  0
  160.3781  142.8705  186.1010 C   0  0  0  0  0  0  0  0  0  0  0  0
  151.7222  138.5322  182.7516 O   0  0  0  0  0  0  0  0  0  0  0  0
  148.0363  137.8430  184.3940 C   0  0  0  0  0  0  0  0  0  0  0  0
  149.2596  138.0719  183.8138 C   0  0  0  0  0  0  0  0  0  0  0  0
  149.4248  138.1734  182.4550 C   0  0  0  0  0  0  0  0  0  0  0  0
  150.6785  138.4094  181.8906 C   0  0  0  0  0  0  0  0  0  0  0  0
  150.7127  138.4926  180.5203 C   0  0  0  0  0  0  0  0  0  0  0  0
  149.5837  138.3529  179.7531 C   0  0  0  0  0  0  0  0  0  0  0  0
  148.4173  138.1302  180.3376 N   0  0  0  0  0  0  0  0  0  0  0  0
  148.2885  138.0325  181.6874 C   0  0  0  0  0  0  0  0  0  0  0  0
  147.0459  137.8016  182.2395 C   0  0  0  0  0  0  0  0  0  0  0  0
  146.9321  137.7084  183.6018 C   0  0  0  0  0  0  0  0  0  0  0  0
  148.7808  136.9863  186.5760 C   0  0  0  0  0  0  0  0  0  0  0  0
  147.9121  137.7471  185.7794 O   0  0  0  0  0  0  0  0  0  0  0  0
  145.6648  137.4758  184.1178 O   0  0  0  0  0  0  0  0  0  0  0  0
  145.3115  136.3527  184.8619 C   0  0  0  0  0  0  0  0  0  0  0  0
  145.6138  135.1148  184.0577 C   0  0  0  0  0  0  0  0  0  0  0  0
  146.7218  134.3055  184.6684 C   0  0  0  0  0  0  0  0  0  0  0  0
  147.3792  133.5090  183.6820 N   0  0  0  0  0  0  0  0  0  0  0  0
  147.8471  134.2147  182.5337 C   0  0  0  0  0  0  0  0  0  0  0  0
  149.1641  133.5564  182.1117 C   0  0  0  0  0  0  0  0  0  0  0  0
  149.0793  132.2298  182.8435 C   0  0  0  0  0  0  0  0  0  0  0  0
  148.4407  132.6806  184.1654 C   0  0  0  0  0  0  0  0  0  0  0  0
 37 38  1  0  0  0
 38 27  1  0  0  0
 27 28  2  0  0  0
 28 29  1  0  0  0
 29 30  2  0  0  0
 30 26  1  0  0  0
 26  1  1  0  0  0
  1  2  2  0  0  0
  2  3  1  0  0  0
  3  4  2  0  0  0
  4  8  1  0  0  0
  8  9  1  0  0  0
  9 10  2  0  0  0
  9 12  1  0  0  0
 12 13  1  0  0  0
 13 14  1  0  0  0
 12 15  1  0  0  0
 15 16  2  0  0  0
 15 17  1  0  0  0
 17 19  1  0  0  0
 19 20  2  0  0  0
 20 21  1  0  0  0
 21 22  1  0  0  0
 22 23  1  0  0  0
 22 24  1  0  0  0
 24 25  2  0  0  0
  4  5  1  0  0  0
  5  6  2  0  0  0
  6  7  1  0  0  0
 30 31  1  0  0  0
 31 32  2  0  0  0
 32 33  1  0  0  0
 33 34  2  0  0  0
 34 35  1  0  0  0
 35 36  2  0  0  0
 36 39  1  0  0  0
 39 40  1  0  0  0
 40 41  1  0  0  0
 41 42  1  0  0  0
 42 43  1  0  0  0
 43 44  1  0  0  0
 44 45  1  0  0  0
 45 46  1  0  0  0
 46 47  1  0  0  0
 36 27  1  0  0  0
 47 43  1  0  0  0
 34 29  1  0  0  0
  6  1  1  0  0  0
 14 12  1  0  0  0
 25 19  1  0  0  0
  8 11  1  0  0  0
 17 18  1  0  0  0
M  END
> <minimizedAffinity>
-8.57050

> <CNNscore>
0.1065640152

> <CNNaffinity>
6.6514487267

> <CNN_VS>
0.7088050842

> <CNNaffinity_variance>
0.1310342848

$$$$
[H]C1=C([H])C([H])(F)C([H])([H])C([H])=C1N([H])C(=O)C1(C(=O)N([H])c2c([H])c([H])c(Oc3c([H])c([H])nc4c([H])c(OC([H])([H])C([H])([H])C([H])([H])N5C([H])([H])C([H])([H])C([H])([H])C5([H])[H])c(OC([H])([H])[H])c([H])c34)c(F)c2[H])C([H])([H])C1([H])[H]


 47 52  0  0  0  0  0  0  0  0999 V2000
  153.5850  137.4787  186.5847 C   0  0  0  0  0  0  0  0  0  0  0  0
  154.8398  137.8499  187.0479 C   0  0  0  0  0  0  0  0  0  0  0  0
  155.6976  138.5674  186.2552 C   0  0  0  0  0  0  0  0  0  0  0  0
  155.3753  138.9685  184.9485 C   0  0  0  0  0  0  0  0  0  0  0  0
  154.1393  138.6016  184.4936 C   0  0  0  0  0  0  0  0  0  0  0  0
  153.2605  137.8652  185.3106 C   0  0  0  0  0  0  0  0  0  0  0  0
  152.0480  137.5582  184.7835 F   0  0  0  0  0  0  0  0  0  0  0  0
  156.3425  139.6922  184.1872 N   0  0  0  0  0  0  0  0  0  0  0  0
  156.2313  140.9821  183.6835 C   0  0  0  0  0  0  0  0  0  0  0  0
  155.1286  141.5974  183.9124 O   0  0  0  0  0  0  0  0  0  0  0  0
  157.2098  139.0938  183.9657 H   0  0  0  0  0  0  0  0  0  0  0  0
  157.2355  141.7026  182.9114 C   0  0  0  0  0  0  0  0  0  0  0  0
  156.7325  142.4472  181.6777 C   0  0  0  0  0  0  0  0  0  0  0  0
  157.3941  141.1385  181.4889 C   0  0  0  0  0  0  0  0  0  0  0  0
  158.4752  142.2473  183.5221 C   0  0  0  0  0  0  0  0  0  0  0  0
  158.8723  143.3355  182.9446 O   0  0  0  0  0  0  0  0  0  0  0  0
  159.1402  141.6835  184.5872 N   0  0  0  0  0  0  0  0  0  0  0  0
  158.6688  140.8462  185.0496 H   0  0  0  0  0  0  0  0  0  0  0  0
  160.3508  142.0956  185.2459 C   0  0  0  0  0  0  0  0  0  0  0  0
  161.5383  141.9754  184.7116 C   0  0  0  0  0  0  0  0  0  0  0  0
  162.7841  142.3958  185.3806 C   0  0  0  0  0  0  0  0  0  0  0  0
  162.6590  142.9662  186.7323 C   0  0  0  0  0  0  0  0  0  0  0  0
  163.4064  142.1610  187.6133 F   0  0  0  0  0  0  0  0  0  0  0  0
  161.3077  143.0666  187.2553 C   0  0  0  0  0  0  0  0  0  0  0  0
  160.2594  142.6788  186.5976 C   0  0  0  0  0  0  0  0  0  0  0  0
  152.7065  136.7604  187.3643 O   0  0  0  0  0  0  0  0  0  0  0  0
  150.9107  135.4226  190.7911 C   0  0  0  0  0  0  0  0  0  0  0  0
  151.5198  135.8409  189.6337 C   0  0  0  0  0  0  0  0  0  0  0  0
  152.0240  134.9638  188.7063 C   0  0  0  0  0  0  0  0  0  0  0  0
  152.6357  135.4146  187.5365 C   0  0  0  0  0  0  0  0  0  0  0  0
  153.0974  134.4391  186.6873 C   0  0  0  0  0  0  0  0  0  0  0  0
  152.9651  133.1031  186.9711 C   0  0  0  0  0  0  0  0  0  0  0  0
  152.3763  132.7270  188.0952 N   0  0  0  0  0  0  0  0  0  0  0  0
  151.8893  133.6225  188.9948 C   0  0  0  0  0  0  0  0  0  0  0  0
  151.2833  133.1704  190.1483 C   0  0  0  0  0  0  0  0  0  0  0  0
  150.7953  134.0855  191.0438 C   0  0  0  0  0  0  0  0  0  0  0  0
  151.2323  137.1148  192.5468 C   0  0  0  0  0  0  0  0  0  0  0  0
  150.4112  136.3474  191.7073 O   0  0  0  0  0  0  0  0  0  0  0  0
  150.1925  133.5901  192.1917 O   0  0  0  0  0  0  0  0  0  0  0  0
  150.8154  133.5059  193.4346 C   0  0  0  0  0  0  0  0  0  0  0  0
  151.1707  132.0677  193.7103 C   0  0  0  0  0  0  0  0  0  0  0  0
  152.6252  131.9034  194.0462 C   0  0  0  0  0  0  0  0  0  0  0  0
  153.2920  131.1089  193.0645 N   0  0  0  0  0  0  0  0  0  0  0  0
  152.4736  130.1604  192.3816 C   0  0  0  0  0  0  0  0  0  0  0  0
  152.9776  130.0951  190.9367 C   0  0  0  0  0  0  0  0  0  0  0  0
  154.3503  130.7270  191.0736 C   0  0  0  0  0  0  0  0  0  0  0  0
  154.0468  131.8365  192.0910 C   0  0  0  0  0  0  0  0  0  0  0  0
 37 38  1  0  0  0
 38 27  1  0  0  0
 27 28  2  0  0  0
 28 29  1  0  0  0
 29 30  2  0  0  0
 30 26  1  0  0  0
 26  1  1  0  0  0
  1  2  2  0  0  0
  2  3  1  0  0  0
  3  4  2  0  0  0
  4  8  1  0  0  0
  8  9  1  0  0  0
  9 10  2  0  0  0
  9 12  1  0  0  0
 12 13  1  0  0  0
 13 14  1  0  0  0
 12 15  1  0  0  0
 15 16  2  0  0  0
 15 17  1  0  0  0
 17 19  1  0  0  0
 19 20  2  0  0  0
 20 21  1  0  0  0
 21 22  1  0  0  0
 22 23  1  0  0  0
 22 24  1  0  0  0
 24 25  2  0  0  0
  4  5  1  0  0  0
  5  6  2  0  0  0
  6  7  1  0  0  0
 30 31  1  0  0  0
 31 32  2  0  0  0
 32 33  1  0  0  0
 33 34  2  0  0  0
 34 35  1  0  0  0
 35 36  2  0  0  0
 36 39  1  0  0  0
 39 40  1  0  0  0
 40 41  1  0  0  0
 41 42  1  0  0  0
 42 43  1  0  0  0
 43 44  1  0  0  0
 44 45  1  0  0  0
 45 46  1  0  0  0
 46 47  1  0  0  0
 36 27  1  0  0  0
 47 43  1  0  0  0
 34 29  1  0  0  0
  6  1  1  0  0  0
 14 12  1  0  0  0
 25 19  1  0  0  0
  8 11  1  0  0  0
 17 18  1  0  0  0
M  END
> <minimizedAffinity>
-7.33199

> <CNNscore>
0.0948180482

> <CNNaffinity>
6.6615400314

> <CNN_VS>
0.6316342354

> <CNNaffinity_variance>
0.2070603818

$$$$
[H]C1=C([H])C([H])(F)C([H])([H])C([H])=C1N([H])C(=O)C1(C(=O)N([H])c2c([H])c([H])c(Oc3c([H])c([H])nc4c([H])c(OC([H])([H])C([H])([H])C([H])([H])N5C([H])([H])C([H])([H])C([H])([H])C5([H])[H])c(OC([H])([H])[H])c([H])c34)c(F)c2[H])C([H])([H])C1([H])[H]


 47 52  0  0  0  0  0  0  0  0999 V2000
  153.4466  138.6413  183.7944 C   0  0  0  0  0  0  0  0  0  0  0  0
  154.6511  138.6698  184.4839 C   0  0  0  0  0  0  0  0  0  0  0  0
  155.5828  139.6428  184.2310 C   0  0  0  0  0  0  0  0  0  0  0  0
  155.3895  140.6564  183.2784 C   0  0  0  0  0  0  0  0  0  0  0  0
  154.2030  140.6266  182.5998 C   0  0  0  0  0  0  0  0  0  0  0  0
  153.2480  139.6262  182.8625 C   0  0  0  0  0  0  0  0  0  0  0  0
  152.0919  139.6830  182.1535 F   0  0  0  0  0  0  0  0  0  0  0  0
  156.4271  141.6138  183.0647 N   0  0  0  0  0  0  0  0  0  0  0  0
  157.4555  141.5546  182.1326 C   0  0  0  0  0  0  0  0  0  0  0  0
  157.4933  140.5150  181.3811 O   0  0  0  0  0  0  0  0  0  0  0  0
  156.3826  142.4207  183.7762 H   0  0  0  0  0  0  0  0  0  0  0  0
  158.5025  142.5477  181.9302 C   0  0  0  0  0  0  0  0  0  0  0  0
  158.2328  143.6052  180.8632 C   0  0  0  0  0  0  0  0  0  0  0  0
  159.1167  142.4702  180.5218 C   0  0  0  0  0  0  0  0  0  0  0  0
  159.4364  142.9572  183.0103 C   0  0  0  0  0  0  0  0  0  0  0  0
  159.5342  144.2435  183.1161 O   0  0  0  0  0  0  0  0  0  0  0  0
  160.1245  142.0880  183.8260 N   0  0  0  0  0  0  0  0  0  0  0  0
  159.8908  141.0531  183.7186 H   0  0  0  0  0  0  0  0  0  0  0  0
  161.0671  142.3563  184.8790 C   0  0  0  0  0  0  0  0  0  0  0  0
  162.3534  142.1507  184.7638 C   0  0  0  0  0  0  0  0  0  0  0  0
  163.3261  142.4236  185.8389 C   0  0  0  0  0  0  0  0  0  0  0  0
  162.7925  142.9420  187.1095 C   0  0  0  0  0  0  0  0  0  0  0  0
  163.1375  142.0323  188.1277 F   0  0  0  0  0  0  0  0  0  0  0  0
  161.3548  143.1435  187.1580 C   0  0  0  0  0  0  0  0  0  0  0  0
  160.5659  142.8842  186.1618 C   0  0  0  0  0  0  0  0  0  0  0  0
  152.4955  137.6752  184.0340 O   0  0  0  0  0  0  0  0  0  0  0  0
  148.4115  137.3932  184.0383 C   0  0  0  0  0  0  0  0  0  0  0  0
  149.7826  137.4644  184.0147 C   0  0  0  0  0  0  0  0  0  0  0  0
  150.5465  136.7085  183.1611 C   0  0  0  0  0  0  0  0  0  0  0  0
  151.9383  136.8018  183.1549 C   0  0  0  0  0  0  0  0  0  0  0  0
  152.5891  135.9957  182.2534 C   0  0  0  0  0  0  0  0  0  0  0  0
  151.9125  135.1508  181.4101 C   0  0  0  0  0  0  0  0  0  0  0  0
  150.5907  135.0995  181.4552 N   0  0  0  0  0  0  0  0  0  0  0  0
  149.8635  135.8607  182.3154 C   0  0  0  0  0  0  0  0  0  0  0  0
  148.4876  135.7658  182.3149 C   0  0  0  0  0  0  0  0  0  0  0  0
  147.7687  136.5415  183.1859 C   0  0  0  0  0  0  0  0  0  0  0  0
  147.1487  139.4341  184.5760 C   0  0  0  0  0  0  0  0  0  0  0  0
  147.6727  138.1796  184.9214 O   0  0  0  0  0  0  0  0  0  0  0  0
  146.3867  136.4168  183.1540 O   0  0  0  0  0  0  0  0  0  0  0  0
  145.6274  136.3664  181.9874 C   0  0  0  0  0  0  0  0  0  0  0  0
  145.6309  137.7267  181.3391 C   0  0  0  0  0  0  0  0  0  0  0  0
  146.0777  137.6645  179.9066 C   0  0  0  0  0  0  0  0  0  0  0  0
  147.2568  138.4440  179.7026 N   0  0  0  0  0  0  0  0  0  0  0  0
  147.6552  139.2567  180.8055 C   0  0  0  0  0  0  0  0  0  0  0  0
  149.1867  139.2626  180.8248 C   0  0  0  0  0  0  0  0  0  0  0  0
  149.5019  138.7765  179.4223 C   0  0  0  0  0  0  0  0  0  0  0  0
  148.4011  137.7216  179.2384 C   0  0  0  0  0  0  0  0  0  0  0  0
 37 38  1  0  0  0
 38 27  1  0  0  0
 27 28  2  0  0  0
 28 29  1  0  0  0
 29 30  2  0  0  0
 30 26  1  0  0  0
 26  1  1  0  0  0
  1  2  2  0  0  0
  2  3  1  0  0  0
  3  4  2  0  0  0
  4  8  1  0  0  0
  8  9  1  0  0  0
  9 10  2  0  0  0
  9 12  1  0  0  0
 12 13  1  0  0  0
 13 14  1  0  0  0
 12 15  1  0  0  0
 15 16  2  0  0  0
 15 17  1  0  0  0
 17 19  1  0  0  0
 19 20  2  0  0  0
 20 21  1  0  0  0
 21 22  1  0  0  0
 22 23  1  0  0  0
 22 24  1  0  0  0
 24 25  2  0  0  0
  4  5  1  0  0  0
  5  6  2  0  0  0
  6  7  1  0  0  0
 30 31  1  0  0  0
 31 32  2  0  0  0
 32 33  1  0  0  0
 33 34  2  0  0  0
 34 35  1  0  0  0
 35 36  2  0  0  0
 36 39  1  0  0  0
 39 40  1  0  0  0
 40 41  1  0  0  0
 41 42  1  0  0  0
 42 43  1  0  0  0
 43 44  1  0  0  0
 44 45  1  0  0  0
 45 46  1  0  0  0
 46 47  1  0  0  0
 36 27  1  0  0  0
 47 43  1  0  0  0
 34 29  1  0  0  0
  6  1  1  0  0  0
 14 12  1  0  0  0
 25 19  1  0  0  0
  8 11  1  0  0  0
 17 18  1  0  0  0
M  END
> <minimizedAffinity>
-9.42391

> <CNNscore>
0.0931015909

> <CNNaffinity>
6.6280221939

> <CNN_VS>
0.6170794368

> <CNNaffinity_variance>
0.3630046248

$$$$
[H]C1=C([H])C([H])(F)C([H])([H])C([H])=C1N([H])C(=O)C1(C(=O)N([H])c2c([H])c([H])c(Oc3c([H])c([H])nc4c([H])c(OC([H])([H])C([H])([H])C([H])([H])N5C([H])([H])C([H])([H])C([H])([H])C5([H])[H])c(OC([H])([H])[H])c([H])c34)c(F)c2[H])C([H])([H])C1([H])[H]


 47 52  0  0  0  0  0  0  0  0999 V2000
  153.4680  138.3848  183.7036 C   0  0  0  0  0  0  0  0  0  0  0  0
  154.6550  138.5352  184.4074 C   0  0  0  0  0  0  0  0  0  0  0  0
  155.4958  139.5869  184.1509 C   0  0  0  0  0  0  0  0  0  0  0  0
  155.2225  140.5643  183.1802 C   0  0  0  0  0  0  0  0  0  0  0  0
  154.0533  140.4144  182.4875 C   0  0  0  0  0  0  0  0  0  0  0  0
  153.1917  139.3334  182.7540 C   0  0  0  0  0  0  0  0  0  0  0  0
  152.0453  139.2722  182.0299 F   0  0  0  0  0  0  0  0  0  0  0  0
  156.1695  141.6108  182.9644 N   0  0  0  0  0  0  0  0  0  0  0  0
  157.3357  141.5559  182.2115 C   0  0  0  0  0  0  0  0  0  0  0  0
  157.6087  140.4335  181.6524 O   0  0  0  0  0  0  0  0  0  0  0  0
  155.9220  142.4985  183.5213 H   0  0  0  0  0  0  0  0  0  0  0  0
  158.2863  142.6405  182.0022 C   0  0  0  0  0  0  0  0  0  0  0  0
  157.8349  143.7640  181.0730 C   0  0  0  0  0  0  0  0  0  0  0  0
  158.7521  142.7347  180.5390 C   0  0  0  0  0  0  0  0  0  0  0  0
  159.2994  143.0236  183.0187 C   0  0  0  0  0  0  0  0  0  0  0  0
  159.5405  144.2953  183.0196 O   0  0  0  0  0  0  0  0  0  0  0  0
  159.9192  142.1471  183.8802 N   0  0  0  0  0  0  0  0  0  0  0  0
  159.5704  141.1396  183.8618 H   0  0  0  0  0  0  0  0  0  0  0  0
  160.9246  142.3874  184.8806 C   0  0  0  0  0  0  0  0  0  0  0  0
  162.1977  142.1555  184.6924 C   0  0  0  0  0  0  0  0  0  0  0  0
  163.2345  142.3995  185.7132 C   0  0  0  0  0  0  0  0  0  0  0  0
  162.7838  142.9193  187.0149 C   0  0  0  0  0  0  0  0  0  0  0  0
  163.1653  141.9948  188.0063 F   0  0  0  0  0  0  0  0  0  0  0  0
  161.3557  143.1508  187.1449 C   0  0  0  0  0  0  0  0  0  0  0  0
  160.5071  142.9159  186.1927 C   0  0  0  0  0  0  0  0  0  0  0  0
  152.6074  137.3380  183.9464 O   0  0  0  0  0  0  0  0  0  0  0  0
  154.7583  134.2139  185.4865 C   0  0  0  0  0  0  0  0  0  0  0  0
  154.0275  135.2429  184.9456 C   0  0  0  0  0  0  0  0  0  0  0  0
  153.2538  135.0882  183.8226 C   0  0  0  0  0  0  0  0  0  0  0  0
  152.5181  136.1493  183.2947 C   0  0  0  0  0  0  0  0  0  0  0  0
  151.7819  135.8673  182.1702 C   0  0  0  0  0  0  0  0  0  0  0  0
  151.7699  134.6188  181.6009 C   0  0  0  0  0  0  0  0  0  0  0  0
  152.4856  133.6452  182.1409 N   0  0  0  0  0  0  0  0  0  0  0  0
  153.2442  133.8327  183.2534 C   0  0  0  0  0  0  0  0  0  0  0  0
  153.9673  132.7790  183.7720 C   0  0  0  0  0  0  0  0  0  0  0  0
  154.7249  132.9833  184.8953 C   0  0  0  0  0  0  0  0  0  0  0  0
  155.0269  134.2712  187.9307 C   0  0  0  0  0  0  0  0  0  0  0  0
  155.5315  134.4137  186.6295 O   0  0  0  0  0  0  0  0  0  0  0  0
  155.4373  131.8979  185.3858 O   0  0  0  0  0  0  0  0  0  0  0  0
  156.6334  131.4318  184.8454 C   0  0  0  0  0  0  0  0  0  0  0  0
  157.4039  130.7003  185.9139 C   0  0  0  0  0  0  0  0  0  0  0  0
  158.8230  131.1820  186.0119 C   0  0  0  0  0  0  0  0  0  0  0  0
  159.7429  130.0961  185.8920 N   0  0  0  0  0  0  0  0  0  0  0  0
  159.3943  129.0978  184.9342 C   0  0  0  0  0  0  0  0  0  0  0  0
  160.7015  128.6114  184.3012 C   0  0  0  0  0  0  0  0  0  0  0  0
  161.7208  129.1066  185.3104 C   0  0  0  0  0  0  0  0  0  0  0  0
  161.1089  130.4654  185.6815 C   0  0  0  0  0  0  0  0  0  0  0  0
 37 38  1  0  0  0
 38 27  1  0  0  0
 27 28  2  0  0  0
 28 29  1  0  0  0
 29 30  2  0  0  0
 30 26  1  0  0  0
 26  1  1  0  0  0
  1  2  2  0  0  0
  2  3  1  0  0  0
  3  4  2  0  0  0
  4  8  1  0  0  0
  8  9  1  0  0  0
  9 10  2  0  0  0
  9 12  1  0  0  0
 12 13  1  0  0  0
 13 14  1  0  0  0
 12 15  1  0  0  0
 15 16  2  0  0  0
 15 17  1  0  0  0
 17 19  1  0  0  0
 19 20  2  0  0  0
 20 21  1  0  0  0
 21 22  1  0  0  0
 22 23  1  0  0  0
 22 24  1  0  0  0
 24 25  2  0  0  0
  4  5  1  0  0  0
  5  6  2  0  0  0
  6  7  1  0  0  0
 30 31  1  0  0  0
 31 32  2  0  0  0
 32 33  1  0  0  0
 33 34  2  0  0  0
 34 35  1  0  0  0
 35 36  2  0  0  0
 36 39  1  0  0  0
 39 40  1  0  0  0
 40 41  1  0  0  0
 41 42  1  0  0  0
 42 43  1  0  0  0
 43 44  1  0  0  0
 44 45  1  0  0  0
 45 46  1  0  0  0
 46 47  1  0  0  0
 36 27  1  0  0  0
 47 43  1  0  0  0
 34 29  1  0  0  0
  6  1  1  0  0  0
 14 12  1  0  0  0
 25 19  1  0  0  0
  8 11  1  0  0  0
 17 18  1  0  0  0
M  END
> <minimizedAffinity>
-8.46683

> <CNNscore>
0.0919906870

> <CNNaffinity>
6.8049573898

> <CNN_VS>
0.6259927154

> <CNNaffinity_variance>
0.1384344995

$$$$
[H]C1=C([H])C([H])(F)C([H])([H])C([H])=C1N([H])C(=O)C1(C(=O)N([H])c2c([H])c([H])c(Oc3c([H])c([H])nc4c([H])c(OC([H])([H])C([H])([H])C([H])([H])N5C([H])([H])C([H])([H])C([H])([H])C5([H])[H])c(OC([H])([H])[H])c([H])c34)c(F)c2[H])C([H])([H])C1([H])[H]


 47 52  0  0  0  0  0  0  0  0999 V2000
  152.5122  139.0779  182.8881 C   0  0  0  0  0  0  0  0  0  0  0  0
  152.5060  140.0515  181.8987 C   0  0  0  0  0  0  0  0  0  0  0  0
  153.5900  140.8691  181.7104 C   0  0  0  0  0  0  0  0  0  0  0  0
  154.7568  140.7817  182.4871 C   0  0  0  0  0  0  0  0  0  0  0  0
  154.7611  139.8227  183.4615 C   0  0  0  0  0  0  0  0  0  0  0  0
  153.6462  138.9843  183.6518 C   0  0  0  0  0  0  0  0  0  0  0  0
  153.7439  138.0499  184.6314 F   0  0  0  0  0  0  0  0  0  0  0  0
  155.8270  141.6928  182.2352 N   0  0  0  0  0  0  0  0  0  0  0  0
  157.1657  141.3889  182.0222 C   0  0  0  0  0  0  0  0  0  0  0  0
  157.4899  140.1481  182.0696 O   0  0  0  0  0  0  0  0  0  0  0  0
  155.5023  142.7182  182.2846 H   0  0  0  0  0  0  0  0  0  0  0  0
  158.2410  142.3375  181.7625 C   0  0  0  0  0  0  0  0  0  0  0  0
  158.0055  143.3310  180.6279 C   0  0  0  0  0  0  0  0  0  0  0  0
  158.8586  142.1523  180.3656 C   0  0  0  0  0  0  0  0  0  0  0  0
  159.1815  142.7898  182.8195 C   0  0  0  0  0  0  0  0  0  0  0  0
  159.2903  144.0789  182.8640 O   0  0  0  0  0  0  0  0  0  0  0  0
  159.8649  141.9545  183.6736 N   0  0  0  0  0  0  0  0  0  0  0  0
  159.6223  140.9176  183.6159 H   0  0  0  0  0  0  0  0  0  0  0  0
  160.8129  142.2644  184.7102 C   0  0  0  0  0  0  0  0  0  0  0  0
  162.1036  142.1006  184.5783 C   0  0  0  0  0  0  0  0  0  0  0  0
  163.0819  142.4163  185.6364 C   0  0  0  0  0  0  0  0  0  0  0  0
  162.5493  142.9292  186.9097 C   0  0  0  0  0  0  0  0  0  0  0  0
  162.9391  142.0416  187.9313 F   0  0  0  0  0  0  0  0  0  0  0  0
  161.1066  143.0832  186.9772 C   0  0  0  0  0  0  0  0  0  0  0  0
  160.3127  142.7880  185.9951 C   0  0  0  0  0  0  0  0  0  0  0  0
  151.4359  138.2443  183.0932 O   0  0  0  0  0  0  0  0  0  0  0  0
  152.4921  134.3670  182.3127 C   0  0  0  0  0  0  0  0  0  0  0  0
  152.1152  135.6656  182.5517 C   0  0  0  0  0  0  0  0  0  0  0  0
  151.0591  136.2585  181.9061 C   0  0  0  0  0  0  0  0  0  0  0  0
  150.6945  137.5789  182.1694 C   0  0  0  0  0  0  0  0  0  0  0  0
  149.6196  138.0566  181.4606 C   0  0  0  0  0  0  0  0  0  0  0  0
  148.9451  137.2831  180.5499 C   0  0  0  0  0  0  0  0  0  0  0  0
  149.3309  136.0352  180.3364 N   0  0  0  0  0  0  0  0  0  0  0  0
  150.3839  135.4785  180.9917 C   0  0  0  0  0  0  0  0  0  0  0  0
  150.7379  134.1716  180.7288 C   0  0  0  0  0  0  0  0  0  0  0  0
  151.7998  133.6241  181.3995 C   0  0  0  0  0  0  0  0  0  0  0  0
  154.6584  134.5538  183.4624 C   0  0  0  0  0  0  0  0  0  0  0  0
  153.5715  133.8024  182.9912 O   0  0  0  0  0  0  0  0  0  0  0  0
  152.1237  132.3067  181.1067 O   0  0  0  0  0  0  0  0  0  0  0  0
  152.8990  131.9092  180.0200 C   0  0  0  0  0  0  0  0  0  0  0  0
  154.2655  131.5073  180.5116 C   0  0  0  0  0  0  0  0  0  0  0  0
  155.2623  131.4221  179.3914 C   0  0  0  0  0  0  0  0  0  0  0  0
  156.5277  131.9512  179.7893 N   0  0  0  0  0  0  0  0  0  0  0  0
  156.6068  132.4073  181.1388 C   0  0  0  0  0  0  0  0  0  0  0  0
  158.0155  132.0754  181.6399 C   0  0  0  0  0  0  0  0  0  0  0  0
  158.7465  131.8382  180.3315 C   0  0  0  0  0  0  0  0  0  0  0  0
  157.6564  131.1110  179.5306 C   0  0  0  0  0  0  0  0  0  0  0  0
 37 38  1  0  0  0
 38 27  1  0  0  0
 27 28  2  0  0  0
 28 29  1  0  0  0
 29 30  2  0  0  0
 30 26  1  0  0  0
 26  1  1  0  0  0
  1  2  2  0  0  0
  2  3  1  0  0  0
  3  4  2  0  0  0
  4  8  1  0  0  0
  8  9  1  0  0  0
  9 10  2  0  0  0
  9 12  1  0  0  0
 12 13  1  0  0  0
 13 14  1  0  0  0
 12 15  1  0  0  0
 15 16  2  0  0  0
 15 17  1  0  0  0
 17 19  1  0  0  0
 19 20  2  0  0  0
 20 21  1  0  0  0
 21 22  1  0  0  0
 22 23  1  0  0  0
 22 24  1  0  0  0
 24 25  2  0  0  0
  4  5  1  0  0  0
  5  6  2  0  0  0
  6  7  1  0  0  0
 30 31  1  0  0  0
 31 32  2  0  0  0
 32 33  1  0  0  0
 33 34  2  0  0  0
 34 35  1  0  0  0
 35 36  2  0  0  0
 36 39  1  0  0  0
 39 40  1  0  0  0
 40 41  1  0  0  0
 41 42  1  0  0  0
 42 43  1  0  0  0
 43 44  1  0  0  0
 44 45  1  0  0  0
 45 46  1  0  0  0
 46 47  1  0  0  0
 36 27  1  0  0  0
 47 43  1  0  0  0
 34 29  1  0  0  0
  6  1  1  0  0  0
 14 12  1  0  0  0
 25 19  1  0  0  0
  8 11  1  0  0  0
 17 18  1  0  0  0
M  END
> <minimizedAffinity>
-8.90268

> <CNNscore>
0.0884477869

> <CNNaffinity>
6.6456961632

> <CNN_VS>
0.5877971053

> <CNNaffinity_variance>
0.3028917909

$$$$
[H]C1=C([H])C([H])(F)C([H])([H])C([H])=C1N([H])C(=O)C1(C(=O)N([H])c2c([H])c([H])c(Oc3c([H])c([H])nc4c([H])c(OC([H])([H])C([H])([H])C([H])([H])N5C([H])([H])C([H])([H])C([H])([H])C5([H])[H])c(OC([H])([H])[H])c([H])c34)c(F)c2[H])C([H])([H])C1([H])[H]


 47 52  0  0  0  0  0  0  0  0999 V2000
  153.1154  138.8833  183.2867 C   0  0  0  0  0  0  0  0  0  0  0  0
  153.1064  139.8096  182.2528 C   0  0  0  0  0  0  0  0  0  0  0  0
  154.1266  140.7138  182.1104 C   0  0  0  0  0  0  0  0  0  0  0  0
  155.2280  140.7662  182.9803 C   0  0  0  0  0  0  0  0  0  0  0  0
  155.2350  139.8537  183.9984 C   0  0  0  0  0  0  0  0  0  0  0  0
  154.1858  138.9259  184.1413 C   0  0  0  0  0  0  0  0  0  0  0  0
  154.2830  138.0466  185.1708 F   0  0  0  0  0  0  0  0  0  0  0  0
  156.2315  141.7595  182.7688 N   0  0  0  0  0  0  0  0  0  0  0  0
  157.4341  141.6172  182.0879 C   0  0  0  0  0  0  0  0  0  0  0  0
  157.6870  140.4571  181.6009 O   0  0  0  0  0  0  0  0  0  0  0  0
  155.9935  142.6842  183.2665 H   0  0  0  0  0  0  0  0  0  0  0  0
  158.4425  142.6487  181.8812 C   0  0  0  0  0  0  0  0  0  0  0  0
  158.0882  143.7493  180.8849 C   0  0  0  0  0  0  0  0  0  0  0  0
  158.9814  142.6582  180.4402 C   0  0  0  0  0  0  0  0  0  0  0  0
  159.4225  143.0310  182.9299 C   0  0  0  0  0  0  0  0  0  0  0  0
  159.6596  144.3034  182.9428 O   0  0  0  0  0  0  0  0  0  0  0  0
  160.0181  142.1531  183.8069 N   0  0  0  0  0  0  0  0  0  0  0  0
  159.6731  141.1446  183.7741 H   0  0  0  0  0  0  0  0  0  0  0  0
  160.9913  142.3925  184.8388 C   0  0  0  0  0  0  0  0  0  0  0  0
  162.2673  142.1439  184.6970 C   0  0  0  0  0  0  0  0  0  0  0  0
  163.2713  142.3869  185.7503 C   0  0  0  0  0  0  0  0  0  0  0  0
  162.7824  142.9261  187.0302 C   0  0  0  0  0  0  0  0  0  0  0  0
  163.1186  142.0080  188.0438 F   0  0  0  0  0  0  0  0  0  0  0  0
  161.3536  143.1755  187.1085 C   0  0  0  0  0  0  0  0  0  0  0  0
  160.5354  142.9401  186.1301 C   0  0  0  0  0  0  0  0  0  0  0  0
  152.1028  137.9645  183.4473 O   0  0  0  0  0  0  0  0  0  0  0  0
  151.3455  135.5179  186.6409 C   0  0  0  0  0  0  0  0  0  0  0  0
  151.6050  136.3125  185.5515 C   0  0  0  0  0  0  0  0  0  0  0  0
  151.8750  135.7964  184.3087 C   0  0  0  0  0  0  0  0  0  0  0  0
  152.1324  136.6258  183.2171 C   0  0  0  0  0  0  0  0  0  0  0  0
  152.3862  135.9890  182.0272 C   0  0  0  0  0  0  0  0  0  0  0  0
  152.3861  134.6212  181.9179 C   0  0  0  0  0  0  0  0  0  0  0  0
  152.1355  133.8784  182.9843 N   0  0  0  0  0  0  0  0  0  0  0  0
  151.8741  134.4219  184.2027 C   0  0  0  0  0  0  0  0  0  0  0  0
  151.6178  133.5965  185.2775 C   0  0  0  0  0  0  0  0  0  0  0  0
  151.3535  134.1597  186.4983 C   0  0  0  0  0  0  0  0  0  0  0  0
  152.0678  136.6390  188.7074 C   0  0  0  0  0  0  0  0  0  0  0  0
  151.0753  136.0832  187.8865 O   0  0  0  0  0  0  0  0  0  0  0  0
  151.1004  133.2950  187.5541 O   0  0  0  0  0  0  0  0  0  0  0  0
  152.0782  132.5656  188.2263 C   0  0  0  0  0  0  0  0  0  0  0  0
  152.3387  133.2083  189.5641 C   0  0  0  0  0  0  0  0  0  0  0  0
  153.2607  132.3818  190.4139 C   0  0  0  0  0  0  0  0  0  0  0  0
  152.7094  132.1717  191.7144 N   0  0  0  0  0  0  0  0  0  0  0  0
  153.2889  132.9491  192.7610 C   0  0  0  0  0  0  0  0  0  0  0  0
  152.1572  133.3089  193.7283 C   0  0  0  0  0  0  0  0  0  0  0  0
  151.0959  132.3003  193.3299 C   0  0  0  0  0  0  0  0  0  0  0  0
  151.2859  132.2822  191.8061 C   0  0  0  0  0  0  0  0  0  0  0  0
 37 38  1  0  0  0
 38 27  1  0  0  0
 27 28  2  0  0  0
 28 29  1  0  0  0
 29 30  2  0  0  0
 30 26  1  0  0  0
 26  1  1  0  0  0
  1  2  2  0  0  0
  2  3  1  0  0  0
  3  4  2  0  0  0
  4  8  1  0  0  0
  8  9  1  0  0  0
  9 10  2  0  0  0
  9 12  1  0  0  0
 12 13  1  0  0  0
 13 14  1  0  0  0
 12 15  1  0  0  0
 15 16  2  0  0  0
 15 17  1  0  0  0
 17 19  1  0  0  0
 19 20  2  0  0  0
 20 21  1  0  0  0
 21 22  1  0  0  0
 22 23  1  0  0  0
 22 24  1  0  0  0
 24 25  2  0  0  0
  4  5  1  0  0  0
  5  6  2  0  0  0
  6  7  1  0  0  0
 30 31  1  0  0  0
 31 32  2  0  0  0
 32 33  1  0  0  0
 33 34  2  0  0  0
 34 35  1  0  0  0
 35 36  2  0  0  0
 36 39  1  0  0  0
 39 40  1  0  0  0
 40 41  1  0  0  0
 41 42  1  0  0  0
 42 43  1  0  0  0
 43 44  1  0  0  0
 44 45  1  0  0  0
 45 46  1  0  0  0
 46 47  1  0  0  0
 36 27  1  0  0  0
 47 43  1  0  0  0
 34 29  1  0  0  0
  6  1  1  0  0  0
 14 12  1  0  0  0
 25 19  1  0  0  0
  8 11  1  0  0  0
 17 18  1  0  0  0
M  END
> <minimizedAffinity>
-7.92724

> <CNNscore>
0.0850736350

> <CNNaffinity>
6.7133302689

> <CNN_VS>
0.5711274147

> <CNNaffinity_variance>
0.2885662913

$$$$
[H]O[C@@]1([H])C([H])([H])N(c2c([H])c([H])c(-c3nc(-c4c([H])c([H])c(C#N)c([H])c4[H])c([H])s3)c([H])c2[H])C([H])([H])[C@@]1([H])C([H])([H])[H]


 27 30  0  0  0  0  0  0  0  0999 V2000
  155.3327  137.9386  187.6936 C   0  0  0  0  0  0  0  0  0  0  0  0
  156.2003  138.2820  186.6851 C   0  0  0  0  0  0  0  0  0  0  0  0
  155.7317  138.8156  185.4732 C   0  0  0  0  0  0  0  0  0  0  0  0
  154.3923  139.0099  185.2601 C   0  0  0  0  0  0  0  0  0  0  0  0
  153.5128  138.6712  186.2593 C   0  0  0  0  0  0  0  0  0  0  0  0
  153.9719  138.1435  187.4588 C   0  0  0  0  0  0  0  0  0  0  0  0
  155.0415  138.8849  191.3190 C   0  0  0  0  0  0  0  0  0  0  0  0
  156.0894  137.8002  191.1851 C   0  0  0  0  0  0  0  0  0  0  0  0
  156.7508  137.9930  189.8177 C   0  0  0  0  0  0  0  0  0  0  0  0
  155.7782  137.3950  188.9370 N   0  0  0  0  0  0  0  0  0  0  0  0
  155.3660  136.1582  189.5693 C   0  0  0  0  0  0  0  0  0  0  0  0
  155.4520  136.4496  191.0518 C   0  0  0  0  0  0  0  0  0  0  0  0
  154.1388  136.4277  191.5465 O   0  0  0  0  0  0  0  0  0  0  0  0
  153.5110  135.9886  190.9190 H   0  0  0  0  0  0  0  0  0  0  0  0
  153.9302  139.5698  183.9825 C   0  0  0  0  0  0  0  0  0  0  0  0
  152.9714  139.2109  183.1848 N   0  0  0  0  0  0  0  0  0  0  0  0
  152.7359  139.8617  182.0880 C   0  0  0  0  0  0  0  0  0  0  0  0
  153.5437  140.9407  181.8137 C   0  0  0  0  0  0  0  0  0  0  0  0
  154.5922  140.9417  183.1633 S   0  0  0  0  0  0  0  0  0  0  0  0
  151.6481  139.4818  181.1495 C   0  0  0  0  0  0  0  0  0  0  0  0
  150.6345  138.6434  181.5602 C   0  0  0  0  0  0  0  0  0  0  0  0
  149.6069  138.2676  180.7185 C   0  0  0  0  0  0  0  0  0  0  0  0
  149.5616  138.7282  179.4150 C   0  0  0  0  0  0  0  0  0  0  0  0
  150.5675  139.5642  178.9966 C   0  0  0  0  0  0  0  0  0  0  0  0
  151.6055  139.9391  179.8595 C   0  0  0  0  0  0  0  0  0  0  0  0
  148.4823  138.3315  178.5359 C   0  0  0  0  0  0  0  0  0  0  0  0
  147.6339  137.9993  177.8315 N   0  0  0  0  0  0  0  0  0  0  0  0
  7  8  1  0  0  0
  8  9  1  0  0  0
  9 10  1  0  0  0
 10 11  1  0  0  0
 11 12  1  0  0  0
 12 13  1  0  0  0
 10  1  1  0  0  0
  1  2  2  0  0  0
  2  3  1  0  0  0
  3  4  2  0  0  0
  4  5  1  0  0  0
  5  6  2  0  0  0
  4 15  1  0  0  0
 15 16  2  0  0  0
 16 17  1  0  0  0
 17 18  2  0  0  0
 18 19  1  0  0  0
 17 20  1  0  0  0
 20 21  2  0  0  0
 21 22  1  0  0  0
 22 23  2  0  0  0
 23 24  1  0  0  0
 24 25  2  0  0  0
 23 26  1  0  0  0
 26 27  3  0  0  0
 12  8  1  0  0  0
  6  1  1  0  0  0
 19 15  1  0  0  0
 25 20  1  0  0  0
 13 14  1  0  0  0
M  END
> <minimizedAffinity>
-8.50826

> <CNNscore>
0.4972551465

> <CNNaffinity>
5.3243756294

> <CNN_VS>
2.6475732327

> <CNNaffinity_variance>
0.1074913517

$$$$
[H]O[C@@]1([H])C([H])([H])N(c2c([H])c([H])c(-c3nc(-c4c([H])c([H])c(C#N)c([H])c4[H])c([H])s3)c([H])c2[H])C([H])([H])[C@@]1([H])C([H])([H])[H]


 27 30  0  0  0  0  0  0  0  0999 V2000
  154.5135  137.1613  188.7834 C   0  0  0  0  0  0  0  0  0  0  0  0
  155.3580  136.8468  187.7463 C   0  0  0  0  0  0  0  0  0  0  0  0
  155.1792  137.4028  186.4689 C   0  0  0  0  0  0  0  0  0  0  0  0
  154.1548  138.2775  186.2184 C   0  0  0  0  0  0  0  0  0  0  0  0
  153.3023  138.6014  187.2455 C   0  0  0  0  0  0  0  0  0  0  0  0
  153.4756  138.0540  188.5097 C   0  0  0  0  0  0  0  0  0  0  0  0
  152.2337  136.2962  191.6432 C   0  0  0  0  0  0  0  0  0  0  0  0
  153.6644  136.2625  192.1380 C   0  0  0  0  0  0  0  0  0  0  0  0
  154.4341  137.3125  191.3323 C   0  0  0  0  0  0  0  0  0  0  0  0
  154.6696  136.6136  190.0932 N   0  0  0  0  0  0  0  0  0  0  0  0
  155.0889  135.2752  190.4568 C   0  0  0  0  0  0  0  0  0  0  0  0
  154.3415  134.9852  191.7403 C   0  0  0  0  0  0  0  0  0  0  0  0
  153.4249  133.9617  191.4536 O   0  0  0  0  0  0  0  0  0  0  0  0
  153.6387  133.4958  190.6063 H   0  0  0  0  0  0  0  0  0  0  0  0
  153.9915  138.8439  184.8723 C   0  0  0  0  0  0  0  0  0  0  0  0
  153.0751  138.6643  183.9710 N   0  0  0  0  0  0  0  0  0  0  0  0
  153.1307  139.2786  182.8301 C   0  0  0  0  0  0  0  0  0  0  0  0
  154.1977  140.1217  182.6235 C   0  0  0  0  0  0  0  0  0  0  0  0
  155.0511  139.9692  184.0963 S   0  0  0  0  0  0  0  0  0  0  0  0
  152.1013  139.0992  181.7733 C   0  0  0  0  0  0  0  0  0  0  0  0
  151.1550  138.1037  181.8840 C   0  0  0  0  0  0  0  0  0  0  0  0
  150.1831  137.9053  180.9239 C   0  0  0  0  0  0  0  0  0  0  0  0
  150.1277  138.7128  179.8022 C   0  0  0  0  0  0  0  0  0  0  0  0
  151.0668  139.7077  179.6831 C   0  0  0  0  0  0  0  0  0  0  0  0
  152.0486  139.8999  180.6637 C   0  0  0  0  0  0  0  0  0  0  0  0
  149.1070  138.5012  178.7980 C   0  0  0  0  0  0  0  0  0  0  0  0
  148.3085  138.3237  177.9874 N   0  0  0  0  0  0  0  0  0  0  0  0
  7  8  1  0  0  0
  8  9  1  0  0  0
  9 10  1  0  0  0
 10 11  1  0  0  0
 11 12  1  0  0  0
 12 13  1  0  0  0
 10  1  1  0  0  0
  1  2  2  0  0  0
  2  3  1  0  0  0
  3  4  2  0  0  0
  4  5  1  0  0  0
  5  6  2  0  0  0
  4 15  1  0  0  0
 15 16  2  0  0  0
 16 17  1  0  0  0
 17 18  2  0  0  0
 18 19  1  0  0  0
 17 20  1  0  0  0
 20 21  2  0  0  0
 21 22  1  0  0  0
 22 23  2  0  0  0
 23 24  1  0  0  0
 24 25  2  0  0  0
 23 26  1  0  0  0
 26 27  3  0  0  0
 12  8  1  0  0  0
  6  1  1  0  0  0
 19 15  1  0  0  0
 25 20  1  0  0  0
 13 14  1  0  0  0
M  END
> <minimizedAffinity>
-7.28344

> <CNNscore>
0.4176858366

> <CNNaffinity>
5.1413073540

> <CNN_VS>
2.1474511623

> <CNNaffinity_variance>
0.1048129201

$$$$
[H]O[C@@]1([H])C([H])([H])N(c2c([H])c([H])c(-c3nc(-c4c([H])c([H])c(C#N)c([H])c4[H])c([H])s3)c([H])c2[H])C([H])([H])[C@@]1([H])C([H])([H])[H]


 27 30  0  0  0  0  0  0  0  0999 V2000
  153.4174  137.0108  189.9115 C   0  0  0  0  0  0  0  0  0  0  0  0
  154.3185  137.9697  189.5162 C   0  0  0  0  0  0  0  0  0  0  0  0
  154.4129  138.3690  188.1729 C   0  0  0  0  0  0  0  0  0  0  0  0
  153.6074  137.8128  187.2143 C   0  0  0  0  0  0  0  0  0  0  0  0
  152.7016  136.8527  187.5945 C   0  0  0  0  0  0  0  0  0  0  0  0
  152.6051  136.4552  188.9214 C   0  0  0  0  0  0  0  0  0  0  0  0
  150.6168  136.6280  192.3882 C   0  0  0  0  0  0  0  0  0  0  0  0
  151.9340  136.5235  193.1277 C   0  0  0  0  0  0  0  0  0  0  0  0
  152.9285  137.4200  192.3853 C   0  0  0  0  0  0  0  0  0  0  0  0
  153.2969  136.5844  191.2693 N   0  0  0  0  0  0  0  0  0  0  0  0
  153.5138  135.2582  191.8110 C   0  0  0  0  0  0  0  0  0  0  0  0
  152.5371  135.1606  192.9628 C   0  0  0  0  0  0  0  0  0  0  0  0
  151.5838  134.1945  192.6057 O   0  0  0  0  0  0  0  0  0  0  0  0
  151.8887  133.6306  191.8508 H   0  0  0  0  0  0  0  0  0  0  0  0
  153.7278  138.2496  185.8164 C   0  0  0  0  0  0  0  0  0  0  0  0
  152.8848  138.2135  184.8304 N   0  0  0  0  0  0  0  0  0  0  0  0
  153.2088  138.6626  183.6576 C   0  0  0  0  0  0  0  0  0  0  0  0
  154.4771  139.1742  183.5108 C   0  0  0  0  0  0  0  0  0  0  0  0
  155.1177  138.9710  185.0823 S   0  0  0  0  0  0  0  0  0  0  0  0
  152.2720  138.6386  182.5042 C   0  0  0  0  0  0  0  0  0  0  0  0
  152.3395  139.6121  181.5312 C   0  0  0  0  0  0  0  0  0  0  0  0
  151.4872  139.6242  180.4453 C   0  0  0  0  0  0  0  0  0  0  0  0
  150.5230  138.6436  180.2972 C   0  0  0  0  0  0  0  0  0  0  0  0
  150.4482  137.6692  181.2620 C   0  0  0  0  0  0  0  0  0  0  0  0
  151.3182  137.6667  182.3599 C   0  0  0  0  0  0  0  0  0  0  0  0
  149.6314  138.6602  179.1571 C   0  0  0  0  0  0  0  0  0  0  0  0
  148.9123  138.6577  178.2576 N   0  0  0  0  0  0  0  0  0  0  0  0
  7  8  1  0  0  0
  8  9  1  0  0  0
  9 10  1  0  0  0
 10 11  1  0  0  0
 11 12  1  0  0  0
 12 13  1  0  0  0
 10  1  1  0  0  0
  1  2  2  0  0  0
  2  3  1  0  0  0
  3  4  2  0  0  0
  4  5  1  0  0  0
  5  6  2  0  0  0
  4 15  1  0  0  0
 15 16  2  0  0  0
 16 17  1  0  0  0
 17 18  2  0  0  0
 18 19  1  0  0  0
 17 20  1  0  0  0
 20 21  2  0  0  0
 21 22  1  0  0  0
 22 23  2  0  0  0
 23 24  1  0  0  0
 24 25  2  0  0  0
 23 26  1  0  0  0
 26 27  3  0  0  0
 12  8  1  0  0  0
  6  1  1  0  0  0
 19 15  1  0  0  0
 25 20  1  0  0  0
 13 14  1  0  0  0
M  END
> <minimizedAffinity>
-6.73759

> <CNNscore>
0.3918572068

> <CNNaffinity>
5.1406841278

> <CNN_VS>
2.0144140720

> <CNNaffinity_variance>
0.0759173036

$$$$
[H]O[C@@]1([H])C([H])([H])N(c2c([H])c([H])c(-c3nc(-c4c([H])c([H])c(C#N)c([H])c4[H])c([H])s3)c([H])c2[H])C([H])([H])[C@@]1([H])C([H])([H])[H]


 27 30  0  0  0  0  0  0  0  0999 V2000
  153.3213  137.1185  190.8734 C   0  0  0  0  0  0  0  0  0  0  0  0
  154.3612  137.9927  190.6683 C   0  0  0  0  0  0  0  0  0  0  0  0
  154.7479  138.3714  189.3722 C   0  0  0  0  0  0  0  0  0  0  0  0
  154.0982  137.8790  188.2711 C   0  0  0  0  0  0  0  0  0  0  0  0
  153.0565  137.0038  188.4603 C   0  0  0  0  0  0  0  0  0  0  0  0
  152.6711  136.6271  189.7400 C   0  0  0  0  0  0  0  0  0  0  0  0
  150.1312  135.8883  192.4335 C   0  0  0  0  0  0  0  0  0  0  0  0
  151.1004  136.2531  193.5382 C   0  0  0  0  0  0  0  0  0  0  0  0
  151.9537  137.4100  193.0113 C   0  0  0  0  0  0  0  0  0  0  0  0
  152.9039  136.7152  192.1784 N   0  0  0  0  0  0  0  0  0  0  0  0
  153.3313  135.5547  192.9334 C   0  0  0  0  0  0  0  0  0  0  0  0
  152.1140  135.1678  193.7450 C   0  0  0  0  0  0  0  0  0  0  0  0
  151.6765  133.9279  193.2541 O   0  0  0  0  0  0  0  0  0  0  0  0
  152.3686  133.4779  192.7071 H   0  0  0  0  0  0  0  0  0  0  0  0
  154.5241  138.2923  186.9268 C   0  0  0  0  0  0  0  0  0  0  0  0
  153.8436  138.5483  185.8518 N   0  0  0  0  0  0  0  0  0  0  0  0
  154.4367  138.9035  184.7544 C   0  0  0  0  0  0  0  0  0  0  0  0
  155.8088  138.9950  184.7848 C   0  0  0  0  0  0  0  0  0  0  0  0
  156.1502  138.5601  186.4020 S   0  0  0  0  0  0  0  0  0  0  0  0
  153.6928  139.2048  183.5037 C   0  0  0  0  0  0  0  0  0  0  0  0
  152.8534  138.2637  182.9482 C   0  0  0  0  0  0  0  0  0  0  0  0
  152.1456  138.5057  181.7879 C   0  0  0  0  0  0  0  0  0  0  0  0
  152.2585  139.7203  181.1357 C   0  0  0  0  0  0  0  0  0  0  0  0
  153.0929  140.6645  181.6819 C   0  0  0  0  0  0  0  0  0  0  0  0
  153.8064  140.4081  182.8599 C   0  0  0  0  0  0  0  0  0  0  0  0
  151.5147  139.9697  179.9194 C   0  0  0  0  0  0  0  0  0  0  0  0
  150.9273  140.1876  178.9531 N   0  0  0  0  0  0  0  0  0  0  0  0
  7  8  1  0  0  0
  8  9  1  0  0  0
  9 10  1  0  0  0
 10 11  1  0  0  0
 11 12  1  0  0  0
 12 13  1  0  0  0
 10  1  1  0  0  0
  1  2  2  0  0  0
  2  3  1  0  0  0
  3  4  2  0  0  0
  4  5  1  0  0  0
  5  6  2  0  0  0
  4 15  1  0  0  0
 15 16  2  0  0  0
 16 17  1  0  0  0
 17 18  2  0  0  0
 18 19  1  0  0  0
 17 20  1  0  0  0
 20 21  2  0  0  0
 21 22  1  0  0  0
 22 23  2  0  0  0
 23 24  1  0  0  0
 24 25  2  0  0  0
 23 26  1  0  0  0
 26 27  3  0  0  0
 12  8  1  0  0  0
  6  1  1  0  0  0
 19 15  1  0  0  0
 25 20  1  0  0  0
 13 14  1  0  0  0
M  END
> <minimizedAffinity>
-7.89329

> <CNNscore>
0.3844293356

> <CNNaffinity>
5.2431020737

> <CNN_VS>
2.0156023502

> <CNNaffinity_variance>
0.0913157612

$$$$
[H]O[C@@]1([H])C([H])([H])N(c2c([H])c([H])c(-c3nc(-c4c([H])c([H])c(C#N)c([H])c4[H])c([H])s3)c([H])c2[H])C([H])([H])[C@@]1([H])C([H])([H])[H]


 27 30  0  0  0  0  0  0  0  0999 V2000
  151.1816  138.1603  181.3064 C   0  0  0  0  0  0  0  0  0  0  0  0
  151.8799  138.0665  182.4859 C   0  0  0  0  0  0  0  0  0  0  0  0
  152.8057  139.0530  182.8633 C   0  0  0  0  0  0  0  0  0  0  0  0
  153.0407  140.1410  182.0645 C   0  0  0  0  0  0  0  0  0  0  0  0
  152.3500  140.2486  180.8820 C   0  0  0  0  0  0  0  0  0  0  0  0
  151.4339  139.2755  180.5054 C   0  0  0  0  0  0  0  0  0  0  0  0
  148.3913  136.2444  182.9397 C   0  0  0  0  0  0  0  0  0  0  0  0
  148.6946  135.6086  181.5993 C   0  0  0  0  0  0  0  0  0  0  0  0
  150.1918  135.8056  181.3469 C   0  0  0  0  0  0  0  0  0  0  0  0
  150.2333  137.1745  180.8955 N   0  0  0  0  0  0  0  0  0  0  0  0
  149.1370  137.3256  179.9603 C   0  0  0  0  0  0  0  0  0  0  0  0
  148.0699  136.3873  180.4806 C   0  0  0  0  0  0  0  0  0  0  0  0
  147.0035  137.1882  180.9179 O   0  0  0  0  0  0  0  0  0  0  0  0
  147.0618  138.1120  180.5657 H   0  0  0  0  0  0  0  0  0  0  0  0
  154.0149  141.1579  182.4843 C   0  0  0  0  0  0  0  0  0  0  0  0
  155.2731  141.0668  182.7890 N   0  0  0  0  0  0  0  0  0  0  0  0
  155.9533  142.1142  183.1392 C   0  0  0  0  0  0  0  0  0  0  0  0
  155.2829  143.3148  183.1717 C   0  0  0  0  0  0  0  0  0  0  0  0
  153.7103  142.8476  182.6925 S   0  0  0  0  0  0  0  0  0  0  0  0
  157.3947  142.0505  183.4952 C   0  0  0  0  0  0  0  0  0  0  0  0
  158.3418  142.6181  182.6708 C   0  0  0  0  0  0  0  0  0  0  0  0
  159.6897  142.5797  182.9668 C   0  0  0  0  0  0  0  0  0  0  0  0
  160.1393  141.9603  184.1189 C   0  0  0  0  0  0  0  0  0  0  0  0
  159.2025  141.3917  184.9467 C   0  0  0  0  0  0  0  0  0  0  0  0
  157.8372  141.4366  184.6365 C   0  0  0  0  0  0  0  0  0  0  0  0
  161.5534  141.9223  184.4252 C   0  0  0  0  0  0  0  0  0  0  0  0
  162.6825  141.8981  184.6502 N   0  0  0  0  0  0  0  0  0  0  0  0
  7  8  1  0  0  0
  8  9  1  0  0  0
  9 10  1  0  0  0
 10 11  1  0  0  0
 11 12  1  0  0  0
 12 13  1  0  0  0
 10  1  1  0  0  0
  1  2  2  0  0  0
  2  3  1  0  0  0
  3  4  2  0  0  0
  4  5  1  0  0  0
  5  6  2  0  0  0
  4 15  1  0  0  0
 15 16  2  0  0  0
 16 17  1  0  0  0
 17 18  2  0  0  0
 18 19  1  0  0  0
 17 20  1  0  0  0
 20 21  2  0  0  0
 21 22  1  0  0  0
 22 23  2  0  0  0
 23 24  1  0  0  0
 24 25  2  0  0  0
 23 26  1  0  0  0
 26 27  3  0  0  0
 12  8  1  0  0  0
  6  1  1  0  0  0
 19 15  1  0  0  0
 25 20  1  0  0  0
 13 14  1  0  0  0
M  END
> <minimizedAffinity>
-7.57394

> <CNNscore>
0.3697425127

> <CNNaffinity>
5.6675634384

> <CNN_VS>
2.0955390930

> <CNNaffinity_variance>
0.0792883337

$$$$
[H]O[C@@]1([H])C([H])([H])N(c2c([H])c([H])c(-c3nc(-c4c([H])c([H])c(C#N)c([H])c4[H])c([H])s3)c([H])c2[H])C([H])([H])[C@@]1([H])C([H])([H])[H]


 27 30  0  0  0  0  0  0  0  0999 V2000
  154.8833  137.9539  188.5368 C   0  0  0  0  0  0  0  0  0  0  0  0
  155.8574  137.9931  187.5685 C   0  0  0  0  0  0  0  0  0  0  0  0
  155.5712  138.4362  186.2668 C   0  0  0  0  0  0  0  0  0  0  0  0
  154.3090  138.8435  185.9228 C   0  0  0  0  0  0  0  0  0  0  0  0
  153.3247  138.8099  186.8802 C   0  0  0  0  0  0  0  0  0  0  0  0
  153.6036  138.3726  188.1683 C   0  0  0  0  0  0  0  0  0  0  0  0
  154.4065  134.7641  190.4660 C   0  0  0  0  0  0  0  0  0  0  0  0
  154.7280  135.8761  191.4421 C   0  0  0  0  0  0  0  0  0  0  0  0
  154.1459  137.1630  190.8512 C   0  0  0  0  0  0  0  0  0  0  0  0
  155.1432  137.5096  189.8691 N   0  0  0  0  0  0  0  0  0  0  0  0
  156.4277  137.3165  190.5111 C   0  0  0  0  0  0  0  0  0  0  0  0
  156.1994  136.1638  191.4646 C   0  0  0  0  0  0  0  0  0  0  0  0
  156.9616  135.0860  190.9880 O   0  0  0  0  0  0  0  0  0  0  0  0
  157.6471  135.3741  190.3340 H   0  0  0  0  0  0  0  0  0  0  0  0
  154.0380  139.3022  184.5533 C   0  0  0  0  0  0  0  0  0  0  0  0
  153.0810  139.0142  183.7254 N   0  0  0  0  0  0  0  0  0  0  0  0
  153.0377  139.5459  182.5432 C   0  0  0  0  0  0  0  0  0  0  0  0
  154.0455  140.4216  182.2126 C   0  0  0  0  0  0  0  0  0  0  0  0
  154.9905  140.4174  183.6366 S   0  0  0  0  0  0  0  0  0  0  0  0
  151.9589  139.2415  181.5674 C   0  0  0  0  0  0  0  0  0  0  0  0
  151.9078  139.8989  180.3575 C   0  0  0  0  0  0  0  0  0  0  0  0
  150.9219  139.6442  179.4252 C   0  0  0  0  0  0  0  0  0  0  0  0
  149.9384  138.7057  179.6805 C   0  0  0  0  0  0  0  0  0  0  0  0
  149.9812  138.0453  180.8839 C   0  0  0  0  0  0  0  0  0  0  0  0
  150.9863  138.3119  181.8226 C   0  0  0  0  0  0  0  0  0  0  0  0
  148.9066  138.4418  178.7004 C   0  0  0  0  0  0  0  0  0  0  0  0
  148.0792  138.2167  177.9317 N   0  0  0  0  0  0  0  0  0  0  0  0
  7  8  1  0  0  0
  8  9  1  0  0  0
  9 10  1  0  0  0
 10 11  1  0  0  0
 11 12  1  0  0  0
 12 13  1  0  0  0
 10  1  1  0  0  0
  1  2  2  0  0  0
  2  3  1  0  0  0
  3  4  2  0  0  0
  4  5  1  0  0  0
  5  6  2  0  0  0
  4 15  1  0  0  0
 15 16  2  0  0  0
 16 17  1  0  0  0
 17 18  2  0  0  0
 18 19  1  0  0  0
 17 20  1  0  0  0
 20 21  2  0  0  0
 21 22  1  0  0  0
 22 23  2  0  0  0
 23 24  1  0  0  0
 24 25  2  0  0  0
 23 26  1  0  0  0
 26 27  3  0  0  0
 12  8  1  0  0  0
  6  1  1  0  0  0
 19 15  1  0  0  0
 25 20  1  0  0  0
 13 14  1  0  0  0
M  END
> <minimizedAffinity>
-7.78400

> <CNNscore>
0.3681202531

> <CNNaffinity>
5.1487751007

> <CNN_VS>
1.8953683376

> <CNNaffinity_variance>
0.0462588593

$$$$
[H]O[C@@]1([H])C([H])([H])N(c2c([H])c([H])c(-c3nc(-c4c([H])c([H])c(C#N)c([H])c4[H])c([H])s3)c([H])c2[H])C([H])([H])[C@@]1([H])C([H])([H])[H]


 27 30  0  0  0  0  0  0  0  0999 V2000
  152.9964  136.7640  188.5941 C   0  0  0  0  0  0  0  0  0  0  0  0
  153.5703  137.9735  188.2852 C   0  0  0  0  0  0  0  0  0  0  0  0
  153.5479  138.4750  186.9734 C   0  0  0  0  0  0  0  0  0  0  0  0
  152.9516  137.7713  185.9603 C   0  0  0  0  0  0  0  0  0  0  0  0
  152.3735  136.5604  186.2539 C   0  0  0  0  0  0  0  0  0  0  0  0
  152.3935  136.0611  187.5494 C   0  0  0  0  0  0  0  0  0  0  0  0
  155.0794  137.2201  191.6888 C   0  0  0  0  0  0  0  0  0  0  0  0
  154.2090  135.9941  191.8681 C   0  0  0  0  0  0  0  0  0  0  0  0
  154.0234  135.3784  190.4787 C   0  0  0  0  0  0  0  0  0  0  0  0
  153.0019  136.2278  189.9180 N   0  0  0  0  0  0  0  0  0  0  0  0
  152.0111  136.4107  190.9592 C   0  0  0  0  0  0  0  0  0  0  0  0
  152.8093  136.3782  192.2444 C   0  0  0  0  0  0  0  0  0  0  0  0
  152.7395  137.6660  192.7981 O   0  0  0  0  0  0  0  0  0  0  0  0
  152.0106  138.2047  192.3989 H   0  0  0  0  0  0  0  0  0  0  0  0
  152.9431  138.3201  184.5971 C   0  0  0  0  0  0  0  0  0  0  0  0
  152.0805  138.2113  183.6336 N   0  0  0  0  0  0  0  0  0  0  0  0
  152.2792  138.7908  182.4904 C   0  0  0  0  0  0  0  0  0  0  0  0
  153.4373  139.5196  182.3501 C   0  0  0  0  0  0  0  0  0  0  0  0
  154.1630  139.3174  183.8841 S   0  0  0  0  0  0  0  0  0  0  0  0
  151.3158  138.6897  181.3634 C   0  0  0  0  0  0  0  0  0  0  0  0
  150.3308  137.7261  181.3730 C   0  0  0  0  0  0  0  0  0  0  0  0
  149.4176  137.6003  180.3452 C   0  0  0  0  0  0  0  0  0  0  0  0
  149.4634  138.4514  179.2558 C   0  0  0  0  0  0  0  0  0  0  0  0
  150.4418  139.4149  179.2375 C   0  0  0  0  0  0  0  0  0  0  0  0
  151.3632  139.5335  180.2859 C   0  0  0  0  0  0  0  0  0  0  0  0
  148.5041  138.3157  178.1805 C   0  0  0  0  0  0  0  0  0  0  0  0
  147.7548  138.2139  177.3120 N   0  0  0  0  0  0  0  0  0  0  0  0
  7  8  1  0  0  0
  8  9  1  0  0  0
  9 10  1  0  0  0
 10 11  1  0  0  0
 11 12  1  0  0  0
 12 13  1  0  0  0
 10  1  1  0  0  0
  1  2  2  0  0  0
  2  3  1  0  0  0
  3  4  2  0  0  0
  4  5  1  0  0  0
  5  6  2  0  0  0
  4 15  1  0  0  0
 15 16  2  0  0  0
 16 17  1  0  0  0
 17 18  2  0  0  0
 18 19  1  0  0  0
 17 20  1  0  0  0
 20 21  2  0  0  0
 21 22  1  0  0  0
 22 23  2  0  0  0
 23 24  1  0  0  0
 24 25  2  0  0  0
 23 26  1  0  0  0
 26 27  3  0  0  0
 12  8  1  0  0  0
  6  1  1  0  0  0
 19 15  1  0  0  0
 25 20  1  0  0  0
 13 14  1  0  0  0
M  END
> <minimizedAffinity>
-6.28218

> <CNNscore>
0.3487912416

> <CNNaffinity>
5.1435050964

> <CNN_VS>
1.7940095663

> <CNNaffinity_variance>
0.0633759350

$$$$
[H]O[C@@]1([H])C([H])([H])N(c2c([H])c([H])c(-c3nc(-c4c([H])c([H])c(C#N)c([H])c4[H])c([H])s3)c([H])c2[H])C([H])([H])[C@@]1([H])C([H])([H])[H]


 27 30  0  0  0  0  0  0  0  0999 V2000
  150.8107  138.1650  182.1745 C   0  0  0  0  0  0  0  0  0  0  0  0
  151.7080  137.6954  183.1031 C   0  0  0  0  0  0  0  0  0  0  0  0
  152.9440  138.3310  183.3060 C   0  0  0  0  0  0  0  0  0  0  0  0
  153.2926  139.4409  182.5822 C   0  0  0  0  0  0  0  0  0  0  0  0
  152.4058  139.9220  181.6501 C   0  0  0  0  0  0  0  0  0  0  0  0
  151.1829  139.2966  181.4465 C   0  0  0  0  0  0  0  0  0  0  0  0
  148.4458  137.8289  179.2731 C   0  0  0  0  0  0  0  0  0  0  0  0
  147.7303  137.3902  180.5334 C   0  0  0  0  0  0  0  0  0  0  0  0
  148.3052  138.2261  181.6801 C   0  0  0  0  0  0  0  0  0  0  0  0
  149.5462  137.5416  181.9458 N   0  0  0  0  0  0  0  0  0  0  0  0
  149.2383  136.1259  181.9327 C   0  0  0  0  0  0  0  0  0  0  0  0
  148.1236  135.9952  180.9176 C   0  0  0  0  0  0  0  0  0  0  0  0
  148.6439  135.2697  179.8347 O   0  0  0  0  0  0  0  0  0  0  0  0
  149.4830  134.7990  180.0696 H   0  0  0  0  0  0  0  0  0  0  0  0
  154.5924  140.0856  182.8154 C   0  0  0  0  0  0  0  0  0  0  0  0
  155.3682  140.7631  182.0258 N   0  0  0  0  0  0  0  0  0  0  0  0
  156.4926  141.2504  182.4507 C   0  0  0  0  0  0  0  0  0  0  0  0
  156.8198  141.0168  183.7661 C   0  0  0  0  0  0  0  0  0  0  0  0
  155.4766  140.1058  184.3017 S   0  0  0  0  0  0  0  0  0  0  0  0
  157.4076  142.0309  181.5778 C   0  0  0  0  0  0  0  0  0  0  0  0
  157.7591  141.5543  180.3335 C   0  0  0  0  0  0  0  0  0  0  0  0
  158.6061  142.2496  179.4939 C   0  0  0  0  0  0  0  0  0  0  0  0
  159.1373  143.4666  179.8815 C   0  0  0  0  0  0  0  0  0  0  0  0
  158.7926  143.9497  181.1200 C   0  0  0  0  0  0  0  0  0  0  0  0
  157.9322  143.2355  181.9638 C   0  0  0  0  0  0  0  0  0  0  0  0
  160.0249  144.1922  178.9980 C   0  0  0  0  0  0  0  0  0  0  0  0
  160.7265  144.7569  178.2803 N   0  0  0  0  0  0  0  0  0  0  0  0
  7  8  1  0  0  0
  8  9  1  0  0  0
  9 10  1  0  0  0
 10 11  1  0  0  0
 11 12  1  0  0  0
 12 13  1  0  0  0
 10  1  1  0  0  0
  1  2  2  0  0  0
  2  3  1  0  0  0
  3  4  2  0  0  0
  4  5  1  0  0  0
  5  6  2  0  0  0
  4 15  1  0  0  0
 15 16  2  0  0  0
 16 17  1  0  0  0
 17 18  2  0  0  0
 18 19  1  0  0  0
 17 20  1  0  0  0
 20 21  2  0  0  0
 21 22  1  0  0  0
 22 23  2  0  0  0
 23 24  1  0  0  0
 24 25  2  0  0  0
 23 26  1  0  0  0
 26 27  3  0  0  0
 12  8  1  0  0  0
  6  1  1  0  0  0
 19 15  1  0  0  0
 25 20  1  0  0  0
 13 14  1  0  0  0
M  END
> <minimizedAffinity>
-7.20896

> <CNNscore>
0.3470931351

> <CNNaffinity>
5.6529831886

> <CNN_VS>
1.9621117115

> <CNNaffinity_variance>
0.2218748778

$$$$
[H]O[C@@]1([H])C([H])([H])N(c2c([H])c([H])c(-c3nc(-c4c([H])c([H])c(C#N)c([H])c4[H])c([H])s3)c([H])c2[H])C([H])([H])[C@@]1([H])C([H])([H])[H]


 27 30  0  0  0  0  0  0  0  0999 V2000
  152.8602  139.7817  182.4760 C   0  0  0  0  0  0  0  0  0  0  0  0
  153.8108  139.4025  183.3926 C   0  0  0  0  0  0  0  0  0  0  0  0
  155.0392  140.0770  183.4875 C   0  0  0  0  0  0  0  0  0  0  0  0
  155.3268  141.1357  182.6669 C   0  0  0  0  0  0  0  0  0  0  0  0
  154.3861  141.5264  181.7454 C   0  0  0  0  0  0  0  0  0  0  0  0
  153.1705  140.8623  181.6484 C   0  0  0  0  0  0  0  0  0  0  0  0
  150.6548  138.6555  179.6489 C   0  0  0  0  0  0  0  0  0  0  0  0
  149.8649  138.5790  180.9385 C   0  0  0  0  0  0  0  0  0  0  0  0
  150.3868  139.6993  181.8421 C   0  0  0  0  0  0  0  0  0  0  0  0
  151.6018  139.1169  182.3558 N   0  0  0  0  0  0  0  0  0  0  0  0
  151.2758  137.7515  182.7147 C   0  0  0  0  0  0  0  0  0  0  0  0
  150.2172  137.3443  181.7129 C   0  0  0  0  0  0  0  0  0  0  0  0
  150.7866  136.3499  180.9025 O   0  0  0  0  0  0  0  0  0  0  0  0
  151.6048  135.9638  181.3051 H   0  0  0  0  0  0  0  0  0  0  0  0
  156.6200  141.8229  182.7882 C   0  0  0  0  0  0  0  0  0  0  0  0
  157.5321  141.7789  183.7104 N   0  0  0  0  0  0  0  0  0  0  0  0
  158.6170  142.4826  183.6112 C   0  0  0  0  0  0  0  0  0  0  0  0
  158.7531  143.2702  182.4918 C   0  0  0  0  0  0  0  0  0  0  0  0
  157.2995  142.9397  181.6558 S   0  0  0  0  0  0  0  0  0  0  0  0
  159.6838  142.4592  184.6456 C   0  0  0  0  0  0  0  0  0  0  0  0
  161.0116  142.4836  184.2780 C   0  0  0  0  0  0  0  0  0  0  0  0
  162.0310  142.4630  185.2087 C   0  0  0  0  0  0  0  0  0  0  0  0
  161.7470  142.4166  186.5617 C   0  0  0  0  0  0  0  0  0  0  0  0
  160.4264  142.3919  186.9376 C   0  0  0  0  0  0  0  0  0  0  0  0
  159.4000  142.4132  185.9845 C   0  0  0  0  0  0  0  0  0  0  0  0
  162.8189  142.3950  187.5340 C   0  0  0  0  0  0  0  0  0  0  0  0
  163.6611  142.3902  188.3194 N   0  0  0  0  0  0  0  0  0  0  0  0
  7  8  1  0  0  0
  8  9  1  0  0  0
  9 10  1  0  0  0
 10 11  1  0  0  0
 11 12  1  0  0  0
 12 13  1  0  0  0
 10  1  1  0  0  0
  1  2  2  0  0  0
  2  3  1  0  0  0
  3  4  2  0  0  0
  4  5  1  0  0  0
  5  6  2  0  0  0
  4 15  1  0  0  0
 15 16  2  0  0  0
 16 17  1  0  0  0
 17 18  2  0  0  0
 18 19  1  0  0  0
 17 20  1  0  0  0
 20 21  2  0  0  0
 21 22  1  0  0  0
 22 23  2  0  0  0
 23 24  1  0  0  0
 24 25  2  0  0  0
 23 26  1  0  0  0
 26 27  3  0  0  0
 12  8  1  0  0  0
  6  1  1  0  0  0
 19 15  1  0  0  0
 25 20  1  0  0  0
 13 14  1  0  0  0
M  END
> <minimizedAffinity>
-7.87490

> <CNNscore>
0.3438765109

> <CNNaffinity>
5.9671573639

> <CNN_VS>
2.0519652367

> <CNNaffinity_variance>
0.1189381108

$$$$
[H]c1nc2c([H])c(OC([H])([H])C([H])([H])C([H])([H])N3C([H])([H])C([H])([H])N(C([H])([H])[H])C([H])([H])C3([H])[H])c(OC([H])([H])[H])c([H])c2c(N([H])c2c([H])c(OC([H])([H])[H])c(Cl)c([H])c2Cl)c1C#N


 37 40  0  0  0  0  0  0  0  0999 V2000
  153.3311  138.1367  183.3231 C   0  0  0  0  0  0  0  0  0  0  0  0
  153.9095  139.3696  183.5529 C   0  0  0  0  0  0  0  0  0  0  0  0
  154.5114  139.5519  184.7990 C   0  0  0  0  0  0  0  0  0  0  0  0
  154.5245  138.5754  185.7236 N   0  0  0  0  0  0  0  0  0  0  0  0
  153.9544  137.3819  185.4775 C   0  0  0  0  0  0  0  0  0  0  0  0
  153.9500  136.3469  186.4146 C   0  0  0  0  0  0  0  0  0  0  0  0
  153.3625  135.1256  186.1534 C   0  0  0  0  0  0  0  0  0  0  0  0
  152.7546  134.8985  184.9337 C   0  0  0  0  0  0  0  0  0  0  0  0
  152.7448  135.9126  183.9821 C   0  0  0  0  0  0  0  0  0  0  0  0
  153.3396  137.1238  184.2700 C   0  0  0  0  0  0  0  0  0  0  0  0
  152.7178  137.9280  182.0739 N   0  0  0  0  0  0  0  0  0  0  0  0
  153.2590  137.5255  181.2788 H   0  0  0  0  0  0  0  0  0  0  0  0
  148.9944  138.1083  182.4918 C   0  0  0  0  0  0  0  0  0  0  0  0
  150.3263  137.8300  182.6694 C   0  0  0  0  0  0  0  0  0  0  0  0
  151.3356  138.2538  181.8328 C   0  0  0  0  0  0  0  0  0  0  0  0
  150.9575  139.0110  180.7448 C   0  0  0  0  0  0  0  0  0  0  0  0
  152.1345  139.6097  179.6101 Cl  0  0  0  0  0  0  0  0  0  0  0  0
  149.6224  139.3246  180.5139 C   0  0  0  0  0  0  0  0  0  0  0  0
  148.6520  138.8771  181.3793 C   0  0  0  0  0  0  0  0  0  0  0  0
  146.9525  139.2300  181.1555 Cl  0  0  0  0  0  0  0  0  0  0  0  0
  147.7964  138.4185  184.5468 C   0  0  0  0  0  0  0  0  0  0  0  0
  147.9987  137.6593  183.3641 O   0  0  0  0  0  0  0  0  0  0  0  0
  152.1836  133.6698  184.7173 O   0  0  0  0  0  0  0  0  0  0  0  0
  151.0442  133.4586  183.9091 C   0  0  0  0  0  0  0  0  0  0  0  0
  153.8958  140.4187  182.5607 C   0  0  0  0  0  0  0  0  0  0  0  0
  153.8722  141.2517  181.7531 N   0  0  0  0  0  0  0  0  0  0  0  0
  153.3734  134.1069  187.1116 O   0  0  0  0  0  0  0  0  0  0  0  0
  153.5777  134.3610  188.4791 C   0  0  0  0  0  0  0  0  0  0  0  0
  152.3680  135.1203  188.9825 C   0  0  0  0  0  0  0  0  0  0  0  0
  152.5074  135.2619  190.4799 C   0  0  0  0  0  0  0  0  0  0  0  0
  151.2616  135.4380  191.1499 N   0  0  0  0  0  0  0  0  0  0  0  0
  151.1369  136.6906  191.8560 C   0  0  0  0  0  0  0  0  0  0  0  0
  150.9498  136.4893  193.3431 C   0  0  0  0  0  0  0  0  0  0  0  0
  149.7785  135.6911  193.6361 N   0  0  0  0  0  0  0  0  0  0  0  0
  150.0533  134.9518  194.8628 C   0  0  0  0  0  0  0  0  0  0  0  0
  149.5177  134.7045  192.6083 C   0  0  0  0  0  0  0  0  0  0  0  0
  150.8088  134.3115  191.8985 C   0  0  0  0  0  0  0  0  0  0  0  0
 21 22  1  0  0  0
 22 13  1  0  0  0
 13 14  2  0  0  0
 14 15  1  0  0  0
 15 11  1  0  0  0
 11  1  1  0  0  0
  1  2  2  0  0  0
  2  3  1  0  0  0
  3  4  2  0  0  0
  4  5  1  0  0  0
  5  6  2  0  0  0
  6  7  1  0  0  0
  7 27  1  0  0  0
 27 28  1  0  0  0
 28 29  1  0  0  0
 29 30  1  0  0  0
 30 31  1  0  0  0
 31 32  1  0  0  0
 32 33  1  0  0  0
 33 34  1  0  0  0
 34 35  1  0  0  0
 34 36  1  0  0  0
 36 37  1  0  0  0
  7  8  2  0  0  0
  8 23  1  0  0  0
 23 24  1  0  0  0
  8  9  1  0  0  0
  9 10  2  0  0  0
  2 25  1  0  0  0
 25 26  3  0  0  0
 15 16  2  0  0  0
 16 17  1  0  0  0
 16 18  1  0  0  0
 18 19  2  0  0  0
 19 20  1  0  0  0
 19 13  1  0  0  0
 10  1  1  0  0  0
 10  5  1  0  0  0
 37 31  1  0  0  0
 11 12  1  0  0  0
M  END
> <minimizedAffinity>
-5.48276

> <CNNscore>
0.3497231603

> <CNNaffinity>
6.0755443573

> <CNN_VS>
2.1247584820

> <CNNaffinity_variance>
0.1202837378

$$$$
[H]c1nc2c([H])c(OC([H])([H])C([H])([H])C([H])([H])N3C([H])([H])C([H])([H])N(C([H])([H])[H])C([H])([H])C3([H])[H])c(OC([H])([H])[H])c([H])c2c(N([H])c2c([H])c(OC([H])([H])[H])c(Cl)c([H])c2Cl)c1C#N


 37 40  0  0  0  0  0  0  0  0999 V2000
  153.6013  138.9248  183.7923 C   0  0  0  0  0  0  0  0  0  0  0  0
  152.9964  138.5351  182.6135 C   0  0  0  0  0  0  0  0  0  0  0  0
  152.6376  137.1899  182.5134 C   0  0  0  0  0  0  0  0  0  0  0  0
  152.8708  136.3231  183.5149 N   0  0  0  0  0  0  0  0  0  0  0  0
  153.4618  136.7255  184.6546 C   0  0  0  0  0  0  0  0  0  0  0  0
  153.7186  135.8524  185.7134 C   0  0  0  0  0  0  0  0  0  0  0  0
  154.3255  136.2741  186.8790 C   0  0  0  0  0  0  0  0  0  0  0  0
  154.6985  137.5965  187.0241 C   0  0  0  0  0  0  0  0  0  0  0  0
  154.4541  138.4874  185.9846 C   0  0  0  0  0  0  0  0  0  0  0  0
  153.8461  138.0386  184.8304 C   0  0  0  0  0  0  0  0  0  0  0  0
  153.9726  140.2764  183.9177 N   0  0  0  0  0  0  0  0  0  0  0  0
  153.3834  140.9386  184.4665 H   0  0  0  0  0  0  0  0  0  0  0  0
  157.5165  140.5578  182.7208 C   0  0  0  0  0  0  0  0  0  0  0  0
  156.3512  140.1065  183.2877 C   0  0  0  0  0  0  0  0  0  0  0  0
  155.1641  140.8056  183.3055 C   0  0  0  0  0  0  0  0  0  0  0  0
  155.1701  142.0461  182.7045 C   0  0  0  0  0  0  0  0  0  0  0  0
  153.7360  143.0321  182.6575 Cl  0  0  0  0  0  0  0  0  0  0  0  0
  156.3217  142.5553  182.1138 C   0  0  0  0  0  0  0  0  0  0  0  0
  157.4821  141.8176  182.1227 C   0  0  0  0  0  0  0  0  0  0  0  0
  158.9700  142.3905  181.4010 Cl  0  0  0  0  0  0  0  0  0  0  0  0
  159.3384  139.6355  183.9796 C   0  0  0  0  0  0  0  0  0  0  0  0
  158.7023  139.8177  182.7233 O   0  0  0  0  0  0  0  0  0  0  0  0
  155.2985  137.9714  188.1997 O   0  0  0  0  0  0  0  0  0  0  0  0
  154.6039  138.5121  189.3047 C   0  0  0  0  0  0  0  0  0  0  0  0
  152.7457  139.4651  181.5376 C   0  0  0  0  0  0  0  0  0  0  0  0
  152.5531  140.2006  180.6610 N   0  0  0  0  0  0  0  0  0  0  0  0
  154.5704  135.3766  187.9234 O   0  0  0  0  0  0  0  0  0  0  0  0
  153.5822  134.5068  188.4166 C   0  0  0  0  0  0  0  0  0  0  0  0
  152.4885  135.3627  189.0205 C   0  0  0  0  0  0  0  0  0  0  0  0
  151.6691  134.4809  189.9331 C   0  0  0  0  0  0  0  0  0  0  0  0
  150.2935  134.4105  189.5663 N   0  0  0  0  0  0  0  0  0  0  0  0
  150.0602  133.9748  188.2103 C   0  0  0  0  0  0  0  0  0  0  0  0
  149.3580  135.0306  187.3862 C   0  0  0  0  0  0  0  0  0  0  0  0
  148.0841  135.4053  187.9620 N   0  0  0  0  0  0  0  0  0  0  0  0
  147.8492  136.8039  187.6224 C   0  0  0  0  0  0  0  0  0  0  0  0
  148.0931  135.3267  189.4082 C   0  0  0  0  0  0  0  0  0  0  0  0
  149.5031  135.5341  189.9503 C   0  0  0  0  0  0  0  0  0  0  0  0
 21 22  1  0  0  0
 22 13  1  0  0  0
 13 14  2  0  0  0
 14 15  1  0  0  0
 15 11  1  0  0  0
 11  1  1  0  0  0
  1  2  2  0  0  0
  2  3  1  0  0  0
  3  4  2  0  0  0
  4  5  1  0  0  0
  5  6  2  0  0  0
  6  7  1  0  0  0
  7 27  1  0  0  0
 27 28  1  0  0  0
 28 29  1  0  0  0
 29 30  1  0  0  0
 30 31  1  0  0  0
 31 32  1  0  0  0
 32 33  1  0  0  0
 33 34  1  0  0  0
 34 35  1  0  0  0
 34 36  1  0  0  0
 36 37  1  0  0  0
  7  8  2  0  0  0
  8 23  1  0  0  0
 23 24  1  0  0  0
  8  9  1  0  0  0
  9 10  2  0  0  0
  2 25  1  0  0  0
 25 26  3  0  0  0
 15 16  2  0  0  0
 16 17  1  0  0  0
 16 18  1  0  0  0
 18 19  2  0  0  0
 19 20  1  0  0  0
 19 13  1  0  0  0
 10  1  1  0  0  0
 10  5  1  0  0  0
 37 31  1  0  0  0
 11 12  1  0  0  0
M  END
> <minimizedAffinity>
-6.14615

> <CNNscore>
0.3205009401

> <CNNaffinity>
6.4717497826

> <CNN_VS>
2.0742018223

> <CNNaffinity_variance>
0.1822608262

$$$$
[H]c1nc2c([H])c(OC([H])([H])C([H])([H])C([H])([H])N3C([H])([H])C([H])([H])N(C([H])([H])[H])C([H])([H])C3([H])[H])c(OC([H])([H])[H])c([H])c2c(N([H])c2c([H])c(OC([H])([H])[H])c(Cl)c([H])c2Cl)c1C#N


 37 40  0  0  0  0  0  0  0  0999 V2000
  153.8232  139.0577  183.9167 C   0  0  0  0  0  0  0  0  0  0  0  0
  153.0847  138.7088  182.8031 C   0  0  0  0  0  0  0  0  0  0  0  0
  152.7461  137.3604  182.6785 C   0  0  0  0  0  0  0  0  0  0  0  0
  153.1217  136.4528  183.5972 N   0  0  0  0  0  0  0  0  0  0  0  0
  153.8412  136.8160  184.6745 C   0  0  0  0  0  0  0  0  0  0  0  0
  154.2475  135.9000  185.6468 C   0  0  0  0  0  0  0  0  0  0  0  0
  154.9856  136.2816  186.7488 C   0  0  0  0  0  0  0  0  0  0  0  0
  155.3443  137.6054  186.9150 C   0  0  0  0  0  0  0  0  0  0  0  0
  154.9524  138.5386  185.9612 C   0  0  0  0  0  0  0  0  0  0  0  0
  154.2151  138.1293  184.8693 C   0  0  0  0  0  0  0  0  0  0  0  0
  154.1771  140.4116  184.0652 N   0  0  0  0  0  0  0  0  0  0  0  0
  153.6248  141.0379  184.6896 H   0  0  0  0  0  0  0  0  0  0  0  0
  157.6180  140.8500  182.6372 C   0  0  0  0  0  0  0  0  0  0  0  0
  156.5145  140.3483  183.2804 C   0  0  0  0  0  0  0  0  0  0  0  0
  155.3001  140.9921  183.3750 C   0  0  0  0  0  0  0  0  0  0  0  0
  155.2092  142.2285  182.7725 C   0  0  0  0  0  0  0  0  0  0  0  0
  153.7310  143.1472  182.8180 Cl  0  0  0  0  0  0  0  0  0  0  0  0
  156.2947  142.7873  182.1063 C   0  0  0  0  0  0  0  0  0  0  0  0
  157.4861  142.1039  182.0403 C   0  0  0  0  0  0  0  0  0  0  0  0
  158.8953  142.7411  181.2211 Cl  0  0  0  0  0  0  0  0  0  0  0  0
  159.5525  140.0065  183.7777 C   0  0  0  0  0  0  0  0  0  0  0  0
  158.8344  140.1653  182.5631 O   0  0  0  0  0  0  0  0  0  0  0  0
  156.0779  137.9397  188.0253 O   0  0  0  0  0  0  0  0  0  0  0  0
  155.5114  138.2949  189.2699 C   0  0  0  0  0  0  0  0  0  0  0  0
  152.6810  139.6825  181.8161 C   0  0  0  0  0  0  0  0  0  0  0  0
  152.3714  140.4761  181.0280 N   0  0  0  0  0  0  0  0  0  0  0  0
  155.3788  135.3417  187.7070 O   0  0  0  0  0  0  0  0  0  0  0  0
  154.4738  134.4395  188.2931 C   0  0  0  0  0  0  0  0  0  0  0  0
  154.2180  134.9127  189.7087 C   0  0  0  0  0  0  0  0  0  0  0  0
  152.8972  135.6456  189.7143 C   0  0  0  0  0  0  0  0  0  0  0  0
  152.6586  136.3723  190.9170 N   0  0  0  0  0  0  0  0  0  0  0  0
  153.6781  136.2066  191.9253 C   0  0  0  0  0  0  0  0  0  0  0  0
  153.1324  135.5795  193.1885 C   0  0  0  0  0  0  0  0  0  0  0  0
  152.0597  136.3649  193.7606 N   0  0  0  0  0  0  0  0  0  0  0  0
  151.1541  135.4389  194.4309 C   0  0  0  0  0  0  0  0  0  0  0  0
  151.2799  137.0459  192.7478 C   0  0  0  0  0  0  0  0  0  0  0  0
  151.3296  136.2848  191.4274 C   0  0  0  0  0  0  0  0  0  0  0  0
 21 22  1  0  0  0
 22 13  1  0  0  0
 13 14  2  0  0  0
 14 15  1  0  0  0
 15 11  1  0  0  0
 11  1  1  0  0  0
  1  2  2  0  0  0
  2  3  1  0  0  0
  3  4  2  0  0  0
  4  5  1  0  0  0
  5  6  2  0  0  0
  6  7  1  0  0  0
  7 27  1  0  0  0
 27 28  1  0  0  0
 28 29  1  0  0  0
 29 30  1  0  0  0
 30 31  1  0  0  0
 31 32  1  0  0  0
 32 33  1  0  0  0
 33 34  1  0  0  0
 34 35  1  0  0  0
 34 36  1  0  0  0
 36 37  1  0  0  0
  7  8  2  0  0  0
  8 23  1  0  0  0
 23 24  1  0  0  0
  8  9  1  0  0  0
  9 10  2  0  0  0
  2 25  1  0  0  0
 25 26  3  0  0  0
 15 16  2  0  0  0
 16 17  1  0  0  0
 16 18  1  0  0  0
 18 19  2  0  0  0
 19 20  1  0  0  0
 19 13  1  0  0  0
 10  1  1  0  0  0
 10  5  1  0  0  0
 37 31  1  0  0  0
 11 12  1  0  0  0
M  END
> <minimizedAffinity>
-7.11225

> <CNNscore>
0.3165424168

> <CNNaffinity>
6.4830713272

> <CNN_VS>
2.0521671772

> <CNNaffinity_variance>
0.2233996838

$$$$
[H]c1nc2c([H])c(OC([H])([H])C([H])([H])C([H])([H])N3C([H])([H])C([H])([H])N(C([H])([H])[H])C([H])([H])C3([H])[H])c(OC([H])([H])[H])c([H])c2c(N([H])c2c([H])c(OC([H])([H])[H])c(Cl)c([H])c2Cl)c1C#N


 37 40  0  0  0  0  0  0  0  0999 V2000
  150.4050  137.9657  181.0350 C   0  0  0  0  0  0  0  0  0  0  0  0
  149.7256  138.1852  179.8529 C   0  0  0  0  0  0  0  0  0  0  0  0
  150.1253  139.2917  179.1017 C   0  0  0  0  0  0  0  0  0  0  0  0
  151.1201  140.0984  179.5119 N   0  0  0  0  0  0  0  0  0  0  0  0
  151.7681  139.8650  180.6677 C   0  0  0  0  0  0  0  0  0  0  0  0
  152.8047  140.6819  181.1229 C   0  0  0  0  0  0  0  0  0  0  0  0
  153.4638  140.4348  182.3101 C   0  0  0  0  0  0  0  0  0  0  0  0
  153.1032  139.3513  183.0876 C   0  0  0  0  0  0  0  0  0  0  0  0
  152.0737  138.5211  182.6573 C   0  0  0  0  0  0  0  0  0  0  0  0
  151.4319  138.7918  181.4664 C   0  0  0  0  0  0  0  0  0  0  0  0
  150.0206  136.8562  181.8106 N   0  0  0  0  0  0  0  0  0  0  0  0
  150.0962  135.8899  181.4265 H   0  0  0  0  0  0  0  0  0  0  0  0
  149.6252  136.4146  185.5146 C   0  0  0  0  0  0  0  0  0  0  0  0
  150.0655  136.3225  184.2182 C   0  0  0  0  0  0  0  0  0  0  0  0
  149.5118  136.9951  183.1509 C   0  0  0  0  0  0  0  0  0  0  0  0
  148.4388  137.8148  183.4282 C   0  0  0  0  0  0  0  0  0  0  0  0
  147.6477  138.7213  182.1698 Cl  0  0  0  0  0  0  0  0  0  0  0  0
  147.9491  137.9476  184.7232 C   0  0  0  0  0  0  0  0  0  0  0  0
  148.5372  137.2541  185.7546 C   0  0  0  0  0  0  0  0  0  0  0  0
  147.9779  137.3692  187.4089 Cl  0  0  0  0  0  0  0  0  0  0  0  0
  151.6259  135.8100  186.6918 C   0  0  0  0  0  0  0  0  0  0  0  0
  150.2144  135.7149  186.5716 O   0  0  0  0  0  0  0  0  0  0  0  0
  153.7856  139.1437  184.2597 O   0  0  0  0  0  0  0  0  0  0  0  0
  154.5172  137.9709  184.5518 C   0  0  0  0  0  0  0  0  0  0  0  0
  148.6572  137.3196  179.4117 C   0  0  0  0  0  0  0  0  0  0  0  0
  147.7859  136.6361  179.0648 N   0  0  0  0  0  0  0  0  0  0  0  0
  154.4989  141.2708  182.7412 O   0  0  0  0  0  0  0  0  0  0  0  0
  154.4275  142.6713  182.6411 C   0  0  0  0  0  0  0  0  0  0  0  0
  155.7056  143.2314  183.2295 C   0  0  0  0  0  0  0  0  0  0  0  0
  156.6091  143.6131  182.0807 C   0  0  0  0  0  0  0  0  0  0  0  0
  157.8027  142.8365  182.0177 N   0  0  0  0  0  0  0  0  0  0  0  0
  157.7083  141.6660  181.1784 C   0  0  0  0  0  0  0  0  0  0  0  0
  157.9181  140.3878  181.9589 C   0  0  0  0  0  0  0  0  0  0  0  0
  159.2063  140.3638  182.6182 N   0  0  0  0  0  0  0  0  0  0  0  0
  159.0540  139.5809  183.8391 C   0  0  0  0  0  0  0  0  0  0  0  0
  159.6373  141.6852  183.0252 C   0  0  0  0  0  0  0  0  0  0  0  0
  158.4362  142.5916  183.2720 C   0  0  0  0  0  0  0  0  0  0  0  0
 21 22  1  0  0  0
 22 13  1  0  0  0
 13 14  2  0  0  0
 14 15  1  0  0  0
 15 11  1  0  0  0
 11  1  1  0  0  0
  1  2  2  0  0  0
  2  3  1  0  0  0
  3  4  2  0  0  0
  4  5  1  0  0  0
  5  6  2  0  0  0
  6  7  1  0  0  0
  7 27  1  0  0  0
 27 28  1  0  0  0
 28 29  1  0  0  0
 29 30  1  0  0  0
 30 31  1  0  0  0
 31 32  1  0  0  0
 32 33  1  0  0  0
 33 34  1  0  0  0
 34 35  1  0  0  0
 34 36  1  0  0  0
 36 37  1  0  0  0
  7  8  2  0  0  0
  8 23  1  0  0  0
 23 24  1  0  0  0
  8  9  1  0  0  0
  9 10  2  0  0  0
  2 25  1  0  0  0
 25 26  3  0  0  0
 15 16  2  0  0  0
 16 17  1  0  0  0
 16 18  1  0  0  0
 18 19  2  0  0  0
 19 20  1  0  0  0
 19 13  1  0  0  0
 10  1  1  0  0  0
 10  5  1  0  0  0
 37 31  1  0  0  0
 11 12  1  0  0  0
M  END
> <minimizedAffinity>
-6.86465

> <CNNscore>
0.3094787896

> <CNNaffinity>
6.6946511269

> <CNN_VS>
2.0718524456

> <CNNaffinity_variance>
0.3602972031

$$$$
[H]c1nc2c([H])c(OC([H])([H])C([H])([H])C([H])([H])N3C([H])([H])C([H])([H])N(C([H])([H])[H])C([H])([H])C3([H])[H])c(OC([H])([H])[H])c([H])c2c(N([H])c2c([H])c(OC([H])([H])[H])c(Cl)c([H])c2Cl)c1C#N


 37 40  0  0  0  0  0  0  0  0999 V2000
  153.4077  138.1833  183.1569 C   0  0  0  0  0  0  0  0  0  0  0  0
  153.8065  139.4462  183.5483 C   0  0  0  0  0  0  0  0  0  0  0  0
  154.4576  139.5395  184.7795 C   0  0  0  0  0  0  0  0  0  0  0  0
  154.6821  138.4537  185.5406 N   0  0  0  0  0  0  0  0  0  0  0  0
  154.2844  137.2328  185.1388 C   0  0  0  0  0  0  0  0  0  0  0  0
  154.5014  136.0853  185.9040 C   0  0  0  0  0  0  0  0  0  0  0  0
  154.0897  134.8368  185.4837 C   0  0  0  0  0  0  0  0  0  0  0  0
  153.4413  134.6951  184.2721 C   0  0  0  0  0  0  0  0  0  0  0  0
  153.2125  135.8221  183.4900 C   0  0  0  0  0  0  0  0  0  0  0  0
  153.6347  137.0579  183.9347 C   0  0  0  0  0  0  0  0  0  0  0  0
  152.7491  138.0630  181.9191 N   0  0  0  0  0  0  0  0  0  0  0  0
  153.2760  137.7836  181.0639 H   0  0  0  0  0  0  0  0  0  0  0  0
  149.0540  138.0125  182.5628 C   0  0  0  0  0  0  0  0  0  0  0  0
  150.4079  137.8070  182.6514 C   0  0  0  0  0  0  0  0  0  0  0  0
  151.3387  138.3150  181.7719 C   0  0  0  0  0  0  0  0  0  0  0  0
  150.8527  139.0827  180.7353 C   0  0  0  0  0  0  0  0  0  0  0  0
  151.9225  139.7843  179.5544 Cl  0  0  0  0  0  0  0  0  0  0  0  0
  149.4904  139.3250  180.5948 C   0  0  0  0  0  0  0  0  0  0  0  0
  148.6015  138.7946  181.5001 C   0  0  0  0  0  0  0  0  0  0  0  0
  146.8743  139.0546  181.3897 Cl  0  0  0  0  0  0  0  0  0  0  0  0
  147.9571  138.1958  184.6883 C   0  0  0  0  0  0  0  0  0  0  0  0
  148.1403  137.4791  183.4764 O   0  0  0  0  0  0  0  0  0  0  0  0
  153.0500  133.4354  183.8942 O   0  0  0  0  0  0  0  0  0  0  0  0
  153.7422  132.6415  182.9526 C   0  0  0  0  0  0  0  0  0  0  0  0
  153.5658  140.6127  182.7318 C   0  0  0  0  0  0  0  0  0  0  0  0
  153.3889  141.5470  182.0667 N   0  0  0  0  0  0  0  0  0  0  0  0
  154.3207  133.7045  186.2716 O   0  0  0  0  0  0  0  0  0  0  0  0
  153.6569  133.4875  187.4918 C   0  0  0  0  0  0  0  0  0  0  0  0
  154.7175  133.3484  188.5638 C   0  0  0  0  0  0  0  0  0  0  0  0
  154.4200  134.3693  189.6367 C   0  0  0  0  0  0  0  0  0  0  0  0
  155.0581  135.6245  189.4155 N   0  0  0  0  0  0  0  0  0  0  0  0
  156.2681  135.8202  190.1776 C   0  0  0  0  0  0  0  0  0  0  0  0
  156.1599  136.9934  191.1257 C   0  0  0  0  0  0  0  0  0  0  0  0
  155.8661  138.2263  190.4268 N   0  0  0  0  0  0  0  0  0  0  0  0
  155.0839  139.0614  191.3310 C   0  0  0  0  0  0  0  0  0  0  0  0
  155.0468  138.0078  189.2527 C   0  0  0  0  0  0  0  0  0  0  0  0
  154.1907  136.7569  189.4183 C   0  0  0  0  0  0  0  0  0  0  0  0
 21 22  1  0  0  0
 22 13  1  0  0  0
 13 14  2  0  0  0
 14 15  1  0  0  0
 15 11  1  0  0  0
 11  1  1  0  0  0
  1  2  2  0  0  0
  2  3  1  0  0  0
  3  4  2  0  0  0
  4  5  1  0  0  0
  5  6  2  0  0  0
  6  7  1  0  0  0
  7 27  1  0  0  0
 27 28  1  0  0  0
 28 29  1  0  0  0
 29 30  1  0  0  0
 30 31  1  0  0  0
 31 32  1  0  0  0
 32 33  1  0  0  0
 33 34  1  0  0  0
 34 35  1  0  0  0
 34 36  1  0  0  0
 36 37  1  0  0  0
  7  8  2  0  0  0
  8 23  1  0  0  0
 23 24  1  0  0  0
  8  9  1  0  0  0
  9 10  2  0  0  0
  2 25  1  0  0  0
 25 26  3  0  0  0
 15 16  2  0  0  0
 16 17  1  0  0  0
 16 18  1  0  0  0
 18 19  2  0  0  0
 19 20  1  0  0  0
 19 13  1  0  0  0
 10  1  1  0  0  0
 10  5  1  0  0  0
 37 31  1  0  0  0
 11 12  1  0  0  0
M  END
> <minimizedAffinity>
-5.34730

> <CNNscore>
0.3010385931

> <CNNaffinity>
6.2152247429

> <CNN_VS>
1.8710224628

> <CNNaffinity_variance>
0.1964344233

$$$$
[H]c1nc2c([H])c(OC([H])([H])C([H])([H])C([H])([H])N3C([H])([H])C([H])([H])N(C([H])([H])[H])C([H])([H])C3([H])[H])c(OC([H])([H])[H])c([H])c2c(N([H])c2c([H])c(OC([H])([H])[H])c(Cl)c([H])c2Cl)c1C#N


 37 40  0  0  0  0  0  0  0  0999 V2000
  153.2560  137.9910  183.1705 C   0  0  0  0  0  0  0  0  0  0  0  0
  153.7308  139.2086  183.6166 C   0  0  0  0  0  0  0  0  0  0  0  0
  154.3264  139.2197  184.8790 C   0  0  0  0  0  0  0  0  0  0  0  0
  154.4298  138.1007  185.6179 N   0  0  0  0  0  0  0  0  0  0  0  0
  153.9597  136.9251  185.1627 C   0  0  0  0  0  0  0  0  0  0  0  0
  154.0507  135.7452  185.9035 C   0  0  0  0  0  0  0  0  0  0  0  0
  153.5655  134.5436  185.4285 C   0  0  0  0  0  0  0  0  0  0  0  0
  152.9679  134.4835  184.1843 C   0  0  0  0  0  0  0  0  0  0  0  0
  152.8645  135.6444  183.4255 C   0  0  0  0  0  0  0  0  0  0  0  0
  153.3579  136.8320  183.9250 C   0  0  0  0  0  0  0  0  0  0  0  0
  152.6512  137.9537  181.9005 N   0  0  0  0  0  0  0  0  0  0  0  0
  153.2016  137.6756  181.0598 H   0  0  0  0  0  0  0  0  0  0  0  0
  148.9367  138.1227  182.3954 C   0  0  0  0  0  0  0  0  0  0  0  0
  150.2710  137.8348  182.5361 C   0  0  0  0  0  0  0  0  0  0  0  0
  151.2656  138.2917  181.6993 C   0  0  0  0  0  0  0  0  0  0  0  0
  150.8692  139.0948  180.6515 C   0  0  0  0  0  0  0  0  0  0  0  0
  152.0262  139.7387  179.5211 Cl  0  0  0  0  0  0  0  0  0  0  0  0
  149.5307  139.4202  180.4591 C   0  0  0  0  0  0  0  0  0  0  0  0
  148.5755  138.9383  181.3230 C   0  0  0  0  0  0  0  0  0  0  0  0
  146.8730  139.3033  181.1461 Cl  0  0  0  0  0  0  0  0  0  0  0  0
  147.7894  138.3383  184.4910 C   0  0  0  0  0  0  0  0  0  0  0  0
  147.9563  137.6391  183.2666 O   0  0  0  0  0  0  0  0  0  0  0  0
  152.5002  133.2681  183.7522 O   0  0  0  0  0  0  0  0  0  0  0  0
  153.1852  132.4368  182.8381 C   0  0  0  0  0  0  0  0  0  0  0  0
  153.6201  140.4106  182.8239 C   0  0  0  0  0  0  0  0  0  0  0  0
  153.5470  141.3833  182.1954 N   0  0  0  0  0  0  0  0  0  0  0  0
  153.6705  133.3772  186.1931 O   0  0  0  0  0  0  0  0  0  0  0  0
  153.3626  133.3450  187.5645 C   0  0  0  0  0  0  0  0  0  0  0  0
  154.3294  132.3821  188.2214 C   0  0  0  0  0  0  0  0  0  0  0  0
  155.3796  133.2024  188.9327 C   0  0  0  0  0  0  0  0  0  0  0  0
  156.7126  132.7926  188.6383 N   0  0  0  0  0  0  0  0  0  0  0  0
  157.6016  132.7956  189.7755 C   0  0  0  0  0  0  0  0  0  0  0  0
  158.7533  133.7588  189.5947 C   0  0  0  0  0  0  0  0  0  0  0  0
  159.5345  133.4503  188.4160 N   0  0  0  0  0  0  0  0  0  0  0  0
  160.0715  134.7083  187.9102 C   0  0  0  0  0  0  0  0  0  0  0  0
  158.7246  132.8897  187.3543 C   0  0  0  0  0  0  0  0  0  0  0  0
  157.2821  133.3710  187.4654 C   0  0  0  0  0  0  0  0  0  0  0  0
 21 22  1  0  0  0
 22 13  1  0  0  0
 13 14  2  0  0  0
 14 15  1  0  0  0
 15 11  1  0  0  0
 11  1  1  0  0  0
  1  2  2  0  0  0
  2  3  1  0  0  0
  3  4  2  0  0  0
  4  5  1  0  0  0
  5  6  2  0  0  0
  6  7  1  0  0  0
  7 27  1  0  0  0
 27 28  1  0  0  0
 28 29  1  0  0  0
 29 30  1  0  0  0
 30 31  1  0  0  0
 31 32  1  0  0  0
 32 33  1  0  0  0
 33 34  1  0  0  0
 34 35  1  0  0  0
 34 36  1  0  0  0
 36 37  1  0  0  0
  7  8  2  0  0  0
  8 23  1  0  0  0
 23 24  1  0  0  0
  8  9  1  0  0  0
  9 10  2  0  0  0
  2 25  1  0  0  0
 25 26  3  0  0  0
 15 16  2  0  0  0
 16 17  1  0  0  0
 16 18  1  0  0  0
 18 19  2  0  0  0
 19 20  1  0  0  0
 19 13  1  0  0  0
 10  1  1  0  0  0
 10  5  1  0  0  0
 37 31  1  0  0  0
 11 12  1  0  0  0
M  END
> <minimizedAffinity>
-4.88617

> <CNNscore>
0.2951542735

> <CNNaffinity>
5.9848961830

> <CNN_VS>
1.7664676905

> <CNNaffinity_variance>
0.1874917895

$$$$
[H]c1nc2c([H])c(OC([H])([H])C([H])([H])C([H])([H])N3C([H])([H])C([H])([H])N(C([H])([H])[H])C([H])([H])C3([H])[H])c(OC([H])([H])[H])c([H])c2c(N([H])c2c([H])c(OC([H])([H])[H])c(Cl)c([H])c2Cl)c1C#N


 37 40  0  0  0  0  0  0  0  0999 V2000
  151.4078  138.0945  181.8484 C   0  0  0  0  0  0  0  0  0  0  0  0
  150.5496  138.2100  180.7727 C   0  0  0  0  0  0  0  0  0  0  0  0
  150.6813  139.3597  179.9921 C   0  0  0  0  0  0  0  0  0  0  0  0
  151.5974  140.3023  180.2769 N   0  0  0  0  0  0  0  0  0  0  0  0
  152.4232  140.1684  181.3306 C   0  0  0  0  0  0  0  0  0  0  0  0
  153.3849  141.1273  181.6546 C   0  0  0  0  0  0  0  0  0  0  0  0
  154.2280  140.9816  182.7376 C   0  0  0  0  0  0  0  0  0  0  0  0
  154.1348  139.8602  183.5392 C   0  0  0  0  0  0  0  0  0  0  0  0
  153.1854  138.8894  183.2388 C   0  0  0  0  0  0  0  0  0  0  0  0
  152.3555  139.0609  182.1501 C   0  0  0  0  0  0  0  0  0  0  0  0
  151.2948  136.9441  182.6509 N   0  0  0  0  0  0  0  0  0  0  0  0
  151.7692  136.0575  182.3753 H   0  0  0  0  0  0  0  0  0  0  0  0
  148.4650  137.4205  185.0667 C   0  0  0  0  0  0  0  0  0  0  0  0
  149.2400  137.4065  183.9343 C   0  0  0  0  0  0  0  0  0  0  0  0
  150.5318  136.9316  183.8725 C   0  0  0  0  0  0  0  0  0  0  0  0
  151.0645  136.4394  185.0446 C   0  0  0  0  0  0  0  0  0  0  0  0
  152.6864  135.8090  185.1032 Cl  0  0  0  0  0  0  0  0  0  0  0  0
  150.3260  136.4281  186.2231 C   0  0  0  0  0  0  0  0  0  0  0  0
  149.0397  136.9140  186.2324 C   0  0  0  0  0  0  0  0  0  0  0  0
  148.0488  136.9336  187.6749 Cl  0  0  0  0  0  0  0  0  0  0  0  0
  146.9859  139.2877  184.7834 C   0  0  0  0  0  0  0  0  0  0  0  0
  147.1565  137.9117  185.0891 O   0  0  0  0  0  0  0  0  0  0  0  0
  154.9930  139.7569  184.6049 O   0  0  0  0  0  0  0  0  0  0  0  0
  155.1749  138.5783  185.3623 C   0  0  0  0  0  0  0  0  0  0  0  0
  149.5656  137.1985  180.4662 C   0  0  0  0  0  0  0  0  0  0  0  0
  148.7610  136.3977  180.2253 N   0  0  0  0  0  0  0  0  0  0  0  0
  155.1822  141.9590  183.0381 O   0  0  0  0  0  0  0  0  0  0  0  0
  155.1115  143.2648  182.5219 C   0  0  0  0  0  0  0  0  0  0  0  0
  156.5038  143.8557  182.5978 C   0  0  0  0  0  0  0  0  0  0  0  0
  157.2435  143.4454  181.3463 C   0  0  0  0  0  0  0  0  0  0  0  0
  158.3009  142.5215  181.5914 N   0  0  0  0  0  0  0  0  0  0  0  0
  158.0867  141.2087  181.0311 C   0  0  0  0  0  0  0  0  0  0  0  0
  158.0323  140.1371  182.0967 C   0  0  0  0  0  0  0  0  0  0  0  0
  159.2468  140.0961  182.8828 N   0  0  0  0  0  0  0  0  0  0  0  0
  158.8808  139.6551  184.2238 C   0  0  0  0  0  0  0  0  0  0  0  0
  159.8490  141.4053  183.0280 C   0  0  0  0  0  0  0  0  0  0  0  0
  158.7908  142.4989  182.9308 C   0  0  0  0  0  0  0  0  0  0  0  0
 21 22  1  0  0  0
 22 13  1  0  0  0
 13 14  2  0  0  0
 14 15  1  0  0  0
 15 11  1  0  0  0
 11  1  1  0  0  0
  1  2  2  0  0  0
  2  3  1  0  0  0
  3  4  2  0  0  0
  4  5  1  0  0  0
  5  6  2  0  0  0
  6  7  1  0  0  0
  7 27  1  0  0  0
 27 28  1  0  0  0
 28 29  1  0  0  0
 29 30  1  0  0  0
 30 31  1  0  0  0
 31 32  1  0  0  0
 32 33  1  0  0  0
 33 34  1  0  0  0
 34 35  1  0  0  0
 34 36  1  0  0  0
 36 37  1  0  0  0
  7  8  2  0  0  0
  8 23  1  0  0  0
 23 24  1  0  0  0
  8  9  1  0  0  0
  9 10  2  0  0  0
  2 25  1  0  0  0
 25 26  3  0  0  0
 15 16  2  0  0  0
 16 17  1  0  0  0
 16 18  1  0  0  0
 18 19  2  0  0  0
 19 20  1  0  0  0
 19 13  1  0  0  0
 10  1  1  0  0  0
 10  5  1  0  0  0
 37 31  1  0  0  0
 11 12  1  0  0  0
M  END
> <minimizedAffinity>
-7.00718

> <CNNscore>
0.2729563713

> <CNNaffinity>
6.5722455978

> <CNN_VS>
1.7939362526

> <CNNaffinity_variance>
0.4646071792

$$$$
[H]c1nc2c([H])c(OC([H])([H])C([H])([H])C([H])([H])N3C([H])([H])C([H])([H])N(C([H])([H])[H])C([H])([H])C3([H])[H])c(OC([H])([H])[H])c([H])c2c(N([H])c2c([H])c(OC([H])([H])[H])c(Cl)c([H])c2Cl)c1C#N


 37 40  0  0  0  0  0  0  0  0999 V2000
  151.9547  137.2675  184.0206 C   0  0  0  0  0  0  0  0  0  0  0  0
  150.7220  136.9433  183.4890 C   0  0  0  0  0  0  0  0  0  0  0  0
  149.7196  136.6086  184.4010 C   0  0  0  0  0  0  0  0  0  0  0  0
  149.9474  136.6036  185.7264 N   0  0  0  0  0  0  0  0  0  0  0  0
  151.1570  136.9230  186.2217 C   0  0  0  0  0  0  0  0  0  0  0  0
  151.4275  136.9278  187.5914 C   0  0  0  0  0  0  0  0  0  0  0  0
  152.6715  137.2568  188.0905 C   0  0  0  0  0  0  0  0  0  0  0  0
  153.6949  137.5950  187.2263 C   0  0  0  0  0  0  0  0  0  0  0  0
  153.4523  137.5983  185.8569 C   0  0  0  0  0  0  0  0  0  0  0  0
  152.1993  137.2652  185.3855 C   0  0  0  0  0  0  0  0  0  0  0  0
  152.9820  137.6087  183.1215 N   0  0  0  0  0  0  0  0  0  0  0  0
  153.3189  136.9190  182.4158 H   0  0  0  0  0  0  0  0  0  0  0  0
  155.4181  140.3616  183.8686 C   0  0  0  0  0  0  0  0  0  0  0  0
  154.7744  139.1505  183.8240 C   0  0  0  0  0  0  0  0  0  0  0  0
  153.6104  138.9047  183.1292 C   0  0  0  0  0  0  0  0  0  0  0  0
  153.0706  139.9664  182.4354 C   0  0  0  0  0  0  0  0  0  0  0  0
  151.6024  139.7901  181.5164 Cl  0  0  0  0  0  0  0  0  0  0  0  0
  153.6790  141.2171  182.4440 C   0  0  0  0  0  0  0  0  0  0  0  0
  154.8407  141.4111  183.1537 C   0  0  0  0  0  0  0  0  0  0  0  0
  155.6638  142.9544  183.2129 Cl  0  0  0  0  0  0  0  0  0  0  0  0
  157.7840  140.0068  184.0446 C   0  0  0  0  0  0  0  0  0  0  0  0
  156.5992  140.5714  184.5862 O   0  0  0  0  0  0  0  0  0  0  0  0
  154.9149  137.9152  187.7665 O   0  0  0  0  0  0  0  0  0  0  0  0
  156.1149  137.9843  187.0239 C   0  0  0  0  0  0  0  0  0  0  0  0
  150.4765  136.9483  182.0660 C   0  0  0  0  0  0  0  0  0  0  0  0
  150.2769  136.9713  180.9231 N   0  0  0  0  0  0  0  0  0  0  0  0
  152.9136  137.2529  189.4680 O   0  0  0  0  0  0  0  0  0  0  0  0
  152.5037  136.1980  190.3021 C   0  0  0  0  0  0  0  0  0  0  0  0
  152.0153  136.8111  191.5979 C   0  0  0  0  0  0  0  0  0  0  0  0
  152.8847  136.2782  192.7122 C   0  0  0  0  0  0  0  0  0  0  0  0
  152.1602  135.5331  193.6879 N   0  0  0  0  0  0  0  0  0  0  0  0
  152.5061  134.1330  193.7458 C   0  0  0  0  0  0  0  0  0  0  0  0
  151.3297  133.2421  193.4156 C   0  0  0  0  0  0  0  0  0  0  0  0
  150.2154  133.4660  194.3117 N   0  0  0  0  0  0  0  0  0  0  0  0
  148.9942  133.2003  193.5601 C   0  0  0  0  0  0  0  0  0  0  0  0
  150.1373  134.8427  194.7544 C   0  0  0  0  0  0  0  0  0  0  0  0
  150.7553  135.7772  193.7200 C   0  0  0  0  0  0  0  0  0  0  0  0
 21 22  1  0  0  0
 22 13  1  0  0  0
 13 14  2  0  0  0
 14 15  1  0  0  0
 15 11  1  0  0  0
 11  1  1  0  0  0
  1  2  2  0  0  0
  2  3  1  0  0  0
  3  4  2  0  0  0
  4  5  1  0  0  0
  5  6  2  0  0  0
  6  7  1  0  0  0
  7 27  1  0  0  0
 27 28  1  0  0  0
 28 29  1  0  0  0
 29 30  1  0  0  0
 30 31  1  0  0  0
 31 32  1  0  0  0
 32 33  1  0  0  0
 33 34  1  0  0  0
 34 35  1  0  0  0
 34 36  1  0  0  0
 36 37  1  0  0  0
  7  8  2  0  0  0
  8 23  1  0  0  0
 23 24  1  0  0  0
  8  9  1  0  0  0
  9 10  2  0  0  0
  2 25  1  0  0  0
 25 26  3  0  0  0
 15 16  2  0  0  0
 16 17  1  0  0  0
 16 18  1  0  0  0
 18 19  2  0  0  0
 19 20  1  0  0  0
 19 13  1  0  0  0
 10  1  1  0  0  0
 10  5  1  0  0  0
 37 31  1  0  0  0
 11 12  1  0  0  0
M  END
> <minimizedAffinity>
-5.94781

> <CNNscore>
0.2470068187

> <CNNaffinity>
6.0499200821

> <CNN_VS>
1.4943715334

> <CNNaffinity_variance>
0.1524312794

$$$$
[H]c1nc2c([H])c(OC([H])([H])C([H])([H])C([H])([H])N3C([H])([H])C([H])([H])N(C([H])([H])[H])C([H])([H])C3([H])[H])c(OC([H])([H])[H])c([H])c2c(N([H])c2c([H])c(OC([H])([H])[H])c(Cl)c([H])c2Cl)c1C#N


 37 40  0  0  0  0  0  0  0  0999 V2000
  151.7061  137.7821  182.0429 C   0  0  0  0  0  0  0  0  0  0  0  0
  150.7255  137.8719  181.0747 C   0  0  0  0  0  0  0  0  0  0  0  0
  150.6390  139.0837  180.3873 C   0  0  0  0  0  0  0  0  0  0  0  0
  151.4692  140.1067  180.6575 N   0  0  0  0  0  0  0  0  0  0  0  0
  152.4174  139.9963  181.6056 C   0  0  0  0  0  0  0  0  0  0  0  0
  153.2952  141.0381  181.9113 C   0  0  0  0  0  0  0  0  0  0  0  0
  154.2649  140.9159  182.8858 C   0  0  0  0  0  0  0  0  0  0  0  0
  154.3887  139.7353  183.5925 C   0  0  0  0  0  0  0  0  0  0  0  0
  153.5270  138.6814  183.3079 C   0  0  0  0  0  0  0  0  0  0  0  0
  152.5667  138.8312  182.3287 C   0  0  0  0  0  0  0  0  0  0  0  0
  151.8137  136.5702  182.7501 N   0  0  0  0  0  0  0  0  0  0  0  0
  151.9419  135.6695  182.2408 H   0  0  0  0  0  0  0  0  0  0  0  0
  152.8178  135.9999  186.3190 C   0  0  0  0  0  0  0  0  0  0  0  0
  152.8162  136.0771  184.9490 C   0  0  0  0  0  0  0  0  0  0  0  0
  151.7532  136.5120  184.1880 C   0  0  0  0  0  0  0  0  0  0  0  0
  150.6193  136.8924  184.8731 C   0  0  0  0  0  0  0  0  0  0  0  0
  149.2056  137.4616  184.0313 Cl  0  0  0  0  0  0  0  0  0  0  0  0
  150.5629  136.8355  186.2616 C   0  0  0  0  0  0  0  0  0  0  0  0
  151.6518  136.3936  186.9758 C   0  0  0  0  0  0  0  0  0  0  0  0
  151.6568  136.2936  188.7230 Cl  0  0  0  0  0  0  0  0  0  0  0  0
  154.9490  134.8989  186.3313 C   0  0  0  0  0  0  0  0  0  0  0  0
  153.9179  135.5525  187.0563 O   0  0  0  0  0  0  0  0  0  0  0  0
  155.3667  139.6582  184.5519 O   0  0  0  0  0  0  0  0  0  0  0  0
  155.4123  138.6660  185.5566 C   0  0  0  0  0  0  0  0  0  0  0  0
  149.8336  136.7741  180.7839 C   0  0  0  0  0  0  0  0  0  0  0  0
  149.1194  135.8853  180.5681 N   0  0  0  0  0  0  0  0  0  0  0  0
  155.1306  141.9768  183.1707 O   0  0  0  0  0  0  0  0  0  0  0  0
  155.1449  143.1615  182.4139 C   0  0  0  0  0  0  0  0  0  0  0  0
  156.4927  143.8178  182.6289 C   0  0  0  0  0  0  0  0  0  0  0  0
  157.3219  143.5763  181.3896 C   0  0  0  0  0  0  0  0  0  0  0  0
  158.3406  142.5963  181.5728 N   0  0  0  0  0  0  0  0  0  0  0  0
  158.0207  141.2964  181.0332 C   0  0  0  0  0  0  0  0  0  0  0  0
  157.9749  140.2309  182.1053 C   0  0  0  0  0  0  0  0  0  0  0  0
  159.2322  140.1248  182.8143 N   0  0  0  0  0  0  0  0  0  0  0  0
  158.9273  139.7063  184.1777 C   0  0  0  0  0  0  0  0  0  0  0  0
  159.9126  141.3993  182.9153 C   0  0  0  0  0  0  0  0  0  0  0  0
  158.9115  142.5489  182.8791 C   0  0  0  0  0  0  0  0  0  0  0  0
 21 22  1  0  0  0
 22 13  1  0  0  0
 13 14  2  0  0  0
 14 15  1  0  0  0
 15 11  1  0  0  0
 11  1  1  0  0  0
  1  2  2  0  0  0
  2  3  1  0  0  0
  3  4  2  0  0  0
  4  5  1  0  0  0
  5  6  2  0  0  0
  6  7  1  0  0  0
  7 27  1  0  0  0
 27 28  1  0  0  0
 28 29  1  0  0  0
 29 30  1  0  0  0
 30 31  1  0  0  0
 31 32  1  0  0  0
 32 33  1  0  0  0
 33 34  1  0  0  0
 34 35  1  0  0  0
 34 36  1  0  0  0
 36 37  1  0  0  0
  7  8  2  0  0  0
  8 23  1  0  0  0
 23 24  1  0  0  0
  8  9  1  0  0  0
  9 10  2  0  0  0
  2 25  1  0  0  0
 25 26  3  0  0  0
 15 16  2  0  0  0
 16 17  1  0  0  0
 16 18  1  0  0  0
 18 19  2  0  0  0
 19 20  1  0  0  0
 19 13  1  0  0  0
 10  1  1  0  0  0
 10  5  1  0  0  0
 37 31  1  0  0  0
 11 12  1  0  0  0
M  END
> <minimizedAffinity>
-6.76382

> <CNNscore>
0.2452896684

> <CNNaffinity>
6.4248456955

> <CNN_VS>
1.5759482384

> <CNNaffinity_variance>
0.6305601597

$$$$
[H]Oc1c([H])c([H])c(C([H])([H])[C@@]([H])(C(=O)N([H])[C@]([H])(C(=O)N2C([H])([H])C([H])([H])C([H])([H])[C@@]2([H])C(=O)N([H])[C@]([H])(C(=O)N([H])[H])C([H])([H])c2c([H])c([H])c([H])c([H])c2[H])C([H])([H])c2c([H])c([H])c(O[H])c([H])c2[H])N([H])[H])c([H])c1[H]


 51 54  0  0  0  0  0  0  0  0999 V2000
  153.2913  138.6744  183.9563 C   0  0  0  0  0  0  0  0  0  0  0  0
  153.6006  139.6171  182.8128 C   0  0  0  0  0  0  0  0  0  0  0  0
  153.1930  139.3049  181.6477 O   0  0  0  0  0  0  0  0  0  0  0  0
  154.3149  140.8111  182.9788 N   0  0  0  0  0  0  0  0  0  0  0  0
  154.7802  141.3708  184.2244 C   0  0  0  0  0  0  0  0  0  0  0  0
  154.9548  142.8597  183.9479 C   0  0  0  0  0  0  0  0  0  0  0  0
  154.3233  143.0450  182.5712 C   0  0  0  0  0  0  0  0  0  0  0  0
  154.7455  141.7135  181.9257 C   0  0  0  0  0  0  0  0  0  0  0  0
  156.2162  141.7492  181.7715 C   0  0  0  0  0  0  0  0  0  0  0  0
  156.8273  140.6810  181.5646 O   0  0  0  0  0  0  0  0  0  0  0  0
  156.9871  142.9230  181.8432 N   0  0  0  0  0  0  0  0  0  0  0  0
  156.4806  143.8313  182.0010 H   0  0  0  0  0  0  0  0  0  0  0  0
  158.4188  142.9502  181.7134 C   0  0  0  0  0  0  0  0  0  0  0  0
  158.9331  143.0890  180.3618 C   0  0  0  0  0  0  0  0  0  0  0  0
  158.7373  142.1011  179.3559 N   0  0  0  0  0  0  0  0  0  0  0  0
  159.5962  144.1152  179.9966 O   0  0  0  0  0  0  0  0  0  0  0  0
  158.5396  141.1373  179.6861 H   0  0  0  0  0  0  0  0  0  0  0  0
  158.7847  142.3046  178.3371 H   0  0  0  0  0  0  0  0  0  0  0  0
  158.9951  141.7733  182.4877 C   0  0  0  0  0  0  0  0  0  0  0  0
  159.3549  142.0836  183.8759 C   0  0  0  0  0  0  0  0  0  0  0  0
  160.3572  142.9805  184.1638 C   0  0  0  0  0  0  0  0  0  0  0  0
  160.6958  143.2440  185.4652 C   0  0  0  0  0  0  0  0  0  0  0  0
  160.0303  142.6084  186.4983 C   0  0  0  0  0  0  0  0  0  0  0  0
  159.0420  141.7260  186.1932 C   0  0  0  0  0  0  0  0  0  0  0  0
  158.6944  141.4545  184.8996 C   0  0  0  0  0  0  0  0  0  0  0  0
  151.7335  136.5349  183.2652 C   0  0  0  0  0  0  0  0  0  0  0  0
  152.0653  135.6014  182.5145 O   0  0  0  0  0  0  0  0  0  0  0  0
  152.5275  137.6259  183.6177 N   0  0  0  0  0  0  0  0  0  0  0  0
  153.5310  137.1092  182.8520 H   0  0  0  0  0  0  0  0  0  0  0  0
  150.3993  136.5444  185.2839 N   0  0  0  0  0  0  0  0  0  0  0  0
  150.3280  136.4059  183.8119 C   0  0  0  0  0  0  0  0  0  0  0  0
  151.3481  136.3880  185.6287 H   0  0  0  0  0  0  0  0  0  0  0  0
  149.9332  137.3935  185.6273 H   0  0  0  0  0  0  0  0  0  0  0  0
  149.3855  137.4501  183.3618 C   0  0  0  0  0  0  0  0  0  0  0  0
  149.3715  137.8332  181.9653 C   0  0  0  0  0  0  0  0  0  0  0  0
  149.7697  139.0780  181.5601 C   0  0  0  0  0  0  0  0  0  0  0  0
  149.7600  139.4826  180.2274 C   0  0  0  0  0  0  0  0  0  0  0  0
  149.3324  138.6007  179.2532 C   0  0  0  0  0  0  0  0  0  0  0  0
  149.3070  138.9611  177.9094 O   0  0  0  0  0  0  0  0  0  0  0  0
  148.9300  137.3438  179.6613 C   0  0  0  0  0  0  0  0  0  0  0  0
  148.9388  136.9414  180.9803 C   0  0  0  0  0  0  0  0  0  0  0  0
  148.4794  139.3901  177.4937 H   0  0  0  0  0  0  0  0  0  0  0  0
  154.6719  138.3047  184.5491 C   0  0  0  0  0  0  0  0  0  0  0  0
  154.6415  138.2899  186.0300 C   0  0  0  0  0  0  0  0  0  0  0  0
  153.5211  138.5259  186.7901 C   0  0  0  0  0  0  0  0  0  0  0  0
  153.5889  138.4979  188.1749 C   0  0  0  0  0  0  0  0  0  0  0  0
  154.7723  138.2340  188.8481 C   0  0  0  0  0  0  0  0  0  0  0  0
  154.8570  138.2046  190.2293 O   0  0  0  0  0  0  0  0  0  0  0  0
  155.9184  137.9915  188.0863 C   0  0  0  0  0  0  0  0  0  0  0  0
  155.8302  138.0242  186.7135 C   0  0  0  0  0  0  0  0  0  0  0  0
  154.6997  137.3306  190.6970 H   0  0  0  0  0  0  0  0  0  0  0  0
 30 31  1  0  0  0
 31 34  1  0  0  0
 34 35  1  0  0  0
 35 36  2  0  0  0
 36 37  1  0  0  0
 37 38  2  0  0  0
 38 39  1  0  0  0
 38 40  1  0  0  0
 40 41  2  0  0  0
 31 26  1  0  0  0
 26 27  2  0  0  0
 26 28  1  0  0  0
 28  1  1  0  0  0
  1 43  1  0  0  0
 43 44  1  0  0  0
 44 45  2  0  0  0
 45 46  1  0  0  0
 46 47  2  0  0  0
 47 48  1  0  0  0
 47 49  1  0  0  0
 49 50  2  0  0  0
  1  2  1  0  0  0
  2  3  2  0  0  0
  2  4  1  0  0  0
  4  5  1  0  0  0
  5  6  1  0  0  0
  6  7  1  0  0  0
  7  8  1  0  0  0
  8  9  1  0  0  0
  9 10  2  0  0  0
  9 11  1  0  0  0
 11 13  1  0  0  0
 13 19  1  0  0  0
 19 20  1  0  0  0
 20 21  2  0  0  0
 21 22  1  0  0  0
 22 23  2  0  0  0
 23 24  1  0  0  0
 24 25  2  0  0  0
 13 14  1  0  0  0
 14 15  1  0  0  0
 14 16  2  0  0  0
 41 35  1  0  0  0
 50 44  1  0  0  0
  8  4  1  0  0  0
 25 20  1  0  0  0
 30 32  1  0  0  0
 30 33  1  0  0  0
 39 42  1  0  0  0
 28 29  1  0  0  0
 48 51  1  0  0  0
 11 12  1  0  0  0
 15 17  1  0  0  0
 15 18  1  0  0  0
M  END
> <minimizedAffinity>
-10.21059

> <CNNscore>
0.2953805923

> <CNNaffinity>
6.9275121689

> <CNN_VS>
2.0462527275

> <CNNaffinity_variance>
0.5581052899

$$$$
[H]Oc1c([H])c([H])c(C([H])([H])[C@@]([H])(C(=O)N([H])[C@]([H])(C(=O)N2C([H])([H])C([H])([H])C([H])([H])[C@@]2([H])C(=O)N([H])[C@]([H])(C(=O)N([H])[H])C([H])([H])c2c([H])c([H])c([H])c([H])c2[H])C([H])([H])c2c([H])c([H])c(O[H])c([H])c2[H])N([H])[H])c([H])c1[H]


 51 54  0  0  0  0  0  0  0  0999 V2000
  154.1827  138.2035  185.4791 C   0  0  0  0  0  0  0  0  0  0  0  0
  154.8702  137.2578  186.4409 C   0  0  0  0  0  0  0  0  0  0  0  0
  155.5153  136.2718  185.9583 O   0  0  0  0  0  0  0  0  0  0  0  0
  154.8258  137.4173  187.8323 N   0  0  0  0  0  0  0  0  0  0  0  0
  154.2224  138.5101  188.5554 C   0  0  0  0  0  0  0  0  0  0  0  0
  154.9197  138.5199  189.9110 C   0  0  0  0  0  0  0  0  0  0  0  0
  156.0650  137.5276  189.7319 C   0  0  0  0  0  0  0  0  0  0  0  0
  155.3629  136.5027  188.8241 C   0  0  0  0  0  0  0  0  0  0  0  0
  154.3072  135.8537  189.6320 C   0  0  0  0  0  0  0  0  0  0  0  0
  154.5785  135.4807  190.7916 O   0  0  0  0  0  0  0  0  0  0  0  0
  152.9969  135.6236  189.1767 N   0  0  0  0  0  0  0  0  0  0  0  0
  152.7526  135.9487  188.2066 H   0  0  0  0  0  0  0  0  0  0  0  0
  151.9799  134.9736  189.9581 C   0  0  0  0  0  0  0  0  0  0  0  0
  151.1680  133.9934  189.2578 C   0  0  0  0  0  0  0  0  0  0  0  0
  150.6306  132.8392  189.8946 N   0  0  0  0  0  0  0  0  0  0  0  0
  150.8880  134.1131  188.0195 O   0  0  0  0  0  0  0  0  0  0  0  0
  151.1120  132.5201  190.7567 H   0  0  0  0  0  0  0  0  0  0  0  0
  149.8018  132.3224  189.5374 H   0  0  0  0  0  0  0  0  0  0  0  0
  151.1821  136.0409  190.6937 C   0  0  0  0  0  0  0  0  0  0  0  0
  151.0818  135.8271  192.1418 C   0  0  0  0  0  0  0  0  0  0  0  0
  152.1809  135.9699  192.9562 C   0  0  0  0  0  0  0  0  0  0  0  0
  152.0760  135.7465  194.3041 C   0  0  0  0  0  0  0  0  0  0  0  0
  150.8619  135.3753  194.8540 C   0  0  0  0  0  0  0  0  0  0  0  0
  149.7869  135.2402  194.0325 C   0  0  0  0  0  0  0  0  0  0  0  0
  149.8782  135.4604  192.6867 C   0  0  0  0  0  0  0  0  0  0  0  0
  155.8583  139.9878  184.2583 C   0  0  0  0  0  0  0  0  0  0  0  0
  155.5911  140.6736  183.2566 O   0  0  0  0  0  0  0  0  0  0  0  0
  155.0042  139.0780  184.8809 N   0  0  0  0  0  0  0  0  0  0  0  0
  154.0469  139.3864  183.9597 H   0  0  0  0  0  0  0  0  0  0  0  0
  158.1599  139.2507  184.1387 N   0  0  0  0  0  0  0  0  0  0  0  0
  157.2534  140.2173  184.7984 C   0  0  0  0  0  0  0  0  0  0  0  0
  157.6414  138.4734  183.7259 H   0  0  0  0  0  0  0  0  0  0  0  0
  158.8483  139.7046  183.5254 H   0  0  0  0  0  0  0  0  0  0  0  0
  157.8214  141.5504  184.5124 C   0  0  0  0  0  0  0  0  0  0  0  0
  159.0964  141.9136  185.0950 C   0  0  0  0  0  0  0  0  0  0  0  0
  160.2253  142.0316  184.3307 C   0  0  0  0  0  0  0  0  0  0  0  0
  161.4688  142.3698  184.8592 C   0  0  0  0  0  0  0  0  0  0  0  0
  161.5896  142.6015  186.2162 C   0  0  0  0  0  0  0  0  0  0  0  0
  162.8115  142.9431  186.7876 O   0  0  0  0  0  0  0  0  0  0  0  0
  160.4504  142.4826  186.9885 C   0  0  0  0  0  0  0  0  0  0  0  0
  159.2185  142.1477  186.4672 C   0  0  0  0  0  0  0  0  0  0  0  0
  163.4509  142.2266  187.1335 H   0  0  0  0  0  0  0  0  0  0  0  0
  153.4004  137.2840  184.5112 C   0  0  0  0  0  0  0  0  0  0  0  0
  151.9938  137.1118  184.9423 C   0  0  0  0  0  0  0  0  0  0  0  0
  151.5438  137.2931  186.2282 C   0  0  0  0  0  0  0  0  0  0  0  0
  150.2064  137.1022  186.5413 C   0  0  0  0  0  0  0  0  0  0  0  0
  149.2739  136.7256  185.5864 C   0  0  0  0  0  0  0  0  0  0  0  0
  147.9363  136.5290  185.8833 O   0  0  0  0  0  0  0  0  0  0  0  0
  149.7191  136.5390  184.2750 C   0  0  0  0  0  0  0  0  0  0  0  0
  151.0500  136.7330  183.9849 C   0  0  0  0  0  0  0  0  0  0  0  0
  147.3123  137.3115  185.8077 H   0  0  0  0  0  0  0  0  0  0  0  0
 30 31  1  0  0  0
 31 34  1  0  0  0
 34 35  1  0  0  0
 35 36  2  0  0  0
 36 37  1  0  0  0
 37 38  2  0  0  0
 38 39  1  0  0  0
 38 40  1  0  0  0
 40 41  2  0  0  0
 31 26  1  0  0  0
 26 27  2  0  0  0
 26 28  1  0  0  0
 28  1  1  0  0  0
  1 43  1  0  0  0
 43 44  1  0  0  0
 44 45  2  0  0  0
 45 46  1  0  0  0
 46 47  2  0  0  0
 47 48  1  0  0  0
 47 49  1  0  0  0
 49 50  2  0  0  0
  1  2  1  0  0  0
  2  3  2  0  0  0
  2  4  1  0  0  0
  4  5  1  0  0  0
  5  6  1  0  0  0
  6  7  1  0  0  0
  7  8  1  0  0  0
  8  9  1  0  0  0
  9 10  2  0  0  0
  9 11  1  0  0  0
 11 13  1  0  0  0
 13 19  1  0  0  0
 19 20  1  0  0  0
 20 21  2  0  0  0
 21 22  1  0  0  0
 22 23  2  0  0  0
 23 24  1  0  0  0
 24 25  2  0  0  0
 13 14  1  0  0  0
 14 15  1  0  0  0
 14 16  2  0  0  0
 41 35  1  0  0  0
 50 44  1  0  0  0
  8  4  1  0  0  0
 25 20  1  0  0  0
 30 32  1  0  0  0
 30 33  1  0  0  0
 39 42  1  0  0  0
 28 29  1  0  0  0
 48 51  1  0  0  0
 11 12  1  0  0  0
 15 17  1  0  0  0
 15 18  1  0  0  0
M  END
> <minimizedAffinity>
-7.71059

> <CNNscore>
0.2780959904

> <CNNaffinity>
6.5617966652

> <CNN_VS>
1.8248093128

> <CNNaffinity_variance>
0.0580187552

$$$$
[H]Oc1c([H])c([H])c(C([H])([H])[C@@]([H])(C(=O)N([H])[C@]([H])(C(=O)N2C([H])([H])C([H])([H])C([H])([H])[C@@]2([H])C(=O)N([H])[C@]([H])(C(=O)N([H])[H])C([H])([H])c2c([H])c([H])c([H])c([H])c2[H])C([H])([H])c2c([H])c([H])c(O[H])c([H])c2[H])N([H])[H])c([H])c1[H]


 51 54  0  0  0  0  0  0  0  0999 V2000
  155.3066  138.8382  183.8043 C   0  0  0  0  0  0  0  0  0  0  0  0
  154.4907  137.6958  184.3711 C   0  0  0  0  0  0  0  0  0  0  0  0
  154.5912  136.5525  183.8199 O   0  0  0  0  0  0  0  0  0  0  0  0
  153.6317  137.8412  185.4685 N   0  0  0  0  0  0  0  0  0  0  0  0
  153.4512  139.0268  186.2703 C   0  0  0  0  0  0  0  0  0  0  0  0
  152.9064  138.5239  187.6023 C   0  0  0  0  0  0  0  0  0  0  0  0
  153.0534  137.0086  187.5004 C   0  0  0  0  0  0  0  0  0  0  0  0
  152.7373  136.8308  186.0050 C   0  0  0  0  0  0  0  0  0  0  0  0
  151.3108  137.1736  185.8157 C   0  0  0  0  0  0  0  0  0  0  0  0
  150.6486  137.5641  186.7987 O   0  0  0  0  0  0  0  0  0  0  0  0
  150.6373  137.0885  184.5843 N   0  0  0  0  0  0  0  0  0  0  0  0
  151.1900  136.7761  183.7457 H   0  0  0  0  0  0  0  0  0  0  0  0
  149.2452  137.4028  184.4094 C   0  0  0  0  0  0  0  0  0  0  0  0
  148.3989  137.2165  185.5754 C   0  0  0  0  0  0  0  0  0  0  0  0
  147.9358  138.2997  186.3745 N   0  0  0  0  0  0  0  0  0  0  0  0
  148.0191  136.0591  185.9528 O   0  0  0  0  0  0  0  0  0  0  0  0
  148.4902  139.1759  186.3322 H   0  0  0  0  0  0  0  0  0  0  0  0
  147.0911  138.2447  186.9788 H   0  0  0  0  0  0  0  0  0  0  0  0
  148.7475  136.7028  183.1528 C   0  0  0  0  0  0  0  0  0  0  0  0
  148.9652  137.4599  181.9151 C   0  0  0  0  0  0  0  0  0  0  0  0
  148.8474  136.8552  180.6854 C   0  0  0  0  0  0  0  0  0  0  0  0
  149.0743  137.5706  179.5388 C   0  0  0  0  0  0  0  0  0  0  0  0
  149.4236  138.9073  179.6121 C   0  0  0  0  0  0  0  0  0  0  0  0
  149.5340  139.4872  180.8369 C   0  0  0  0  0  0  0  0  0  0  0  0
  149.3101  138.7850  181.9878 C   0  0  0  0  0  0  0  0  0  0  0  0
  153.8291  140.7611  182.5389 C   0  0  0  0  0  0  0  0  0  0  0  0
  152.6850  140.6162  182.0750 O   0  0  0  0  0  0  0  0  0  0  0  0
  154.5826  139.7808  183.1841 N   0  0  0  0  0  0  0  0  0  0  0  0
  153.5481  138.9090  183.0110 H   0  0  0  0  0  0  0  0  0  0  0  0
  153.4971  143.1001  183.0625 N   0  0  0  0  0  0  0  0  0  0  0  0
  154.3889  142.1550  182.3534 C   0  0  0  0  0  0  0  0  0  0  0  0
  152.5817  142.6851  183.2450 H   0  0  0  0  0  0  0  0  0  0  0  0
  153.9521  143.5503  183.8664 H   0  0  0  0  0  0  0  0  0  0  0  0
  155.7313  142.3697  182.9305 C   0  0  0  0  0  0  0  0  0  0  0  0
  156.8248  142.7376  182.0553 C   0  0  0  0  0  0  0  0  0  0  0  0
  157.5935  143.8439  182.2958 C   0  0  0  0  0  0  0  0  0  0  0  0
  158.6460  144.2319  181.4702 C   0  0  0  0  0  0  0  0  0  0  0  0
  158.9448  143.4780  180.3513 C   0  0  0  0  0  0  0  0  0  0  0  0
  159.9879  143.8270  179.4991 O   0  0  0  0  0  0  0  0  0  0  0  0
  158.1692  142.3611  180.1077 C   0  0  0  0  0  0  0  0  0  0  0  0
  157.1267  141.9754  180.9237 C   0  0  0  0  0  0  0  0  0  0  0  0
  159.8335  144.4449  178.7015 H   0  0  0  0  0  0  0  0  0  0  0  0
  156.1514  139.3503  184.9953 C   0  0  0  0  0  0  0  0  0  0  0  0
  157.4617  139.8755  184.5466 C   0  0  0  0  0  0  0  0  0  0  0  0
  158.1199  139.4654  183.4119 C   0  0  0  0  0  0  0  0  0  0  0  0
  159.3495  140.0100  183.0736 C   0  0  0  0  0  0  0  0  0  0  0  0
  159.9638  140.9796  183.8519 C   0  0  0  0  0  0  0  0  0  0  0  0
  161.1915  141.5313  183.5291 O   0  0  0  0  0  0  0  0  0  0  0  0
  159.3040  141.4056  185.0078 C   0  0  0  0  0  0  0  0  0  0  0  0
  158.0849  140.8526  185.3261 C   0  0  0  0  0  0  0  0  0  0  0  0
  161.2070  142.3538  182.9541 H   0  0  0  0  0  0  0  0  0  0  0  0
 30 31  1  0  0  0
 31 34  1  0  0  0
 34 35  1  0  0  0
 35 36  2  0  0  0
 36 37  1  0  0  0
 37 38  2  0  0  0
 38 39  1  0  0  0
 38 40  1  0  0  0
 40 41  2  0  0  0
 31 26  1  0  0  0
 26 27  2  0  0  0
 26 28  1  0  0  0
 28  1  1  0  0  0
  1 43  1  0  0  0
 43 44  1  0  0  0
 44 45  2  0  0  0
 45 46  1  0  0  0
 46 47  2  0  0  0
 47 48  1  0  0  0
 47 49  1  0  0  0
 49 50  2  0  0  0
  1  2  1  0  0  0
  2  3  2  0  0  0
  2  4  1  0  0  0
  4  5  1  0  0  0
  5  6  1  0  0  0
  6  7  1  0  0  0
  7  8  1  0  0  0
  8  9  1  0  0  0
  9 10  2  0  0  0
  9 11  1  0  0  0
 11 13  1  0  0  0
 13 19  1  0  0  0
 19 20  1  0  0  0
 20 21  2  0  0  0
 21 22  1  0  0  0
 22 23  2  0  0  0
 23 24  1  0  0  0
 24 25  2  0  0  0
 13 14  1  0  0  0
 14 15  1  0  0  0
 14 16  2  0  0  0
 41 35  1  0  0  0
 50 44  1  0  0  0
  8  4  1  0  0  0
 25 20  1  0  0  0
 30 32  1  0  0  0
 30 33  1  0  0  0
 39 42  1  0  0  0
 28 29  1  0  0  0
 48 51  1  0  0  0
 11 12  1  0  0  0
 15 17  1  0  0  0
 15 18  1  0  0  0
M  END
> <minimizedAffinity>
-8.53396

> <CNNscore>
0.2666301429

> <CNNaffinity>
6.8224740028

> <CNN_VS>
1.8190772533

> <CNNaffinity_variance>
0.4015073776

$$$$
[H]Oc1c([H])c([H])c(C([H])([H])[C@@]([H])(C(=O)N([H])[C@]([H])(C(=O)N2C([H])([H])C([H])([H])C([H])([H])[C@@]2([H])C(=O)N([H])[C@]([H])(C(=O)N([H])[H])C([H])([H])c2c([H])c([H])c([H])c([H])c2[H])C([H])([H])c2c([H])c([H])c(O[H])c([H])c2[H])N([H])[H])c([H])c1[H]


 51 54  0  0  0  0  0  0  0  0999 V2000
  153.4302  138.0466  184.6159 C   0  0  0  0  0  0  0  0  0  0  0  0
  154.1212  137.1420  185.6141 C   0  0  0  0  0  0  0  0  0  0  0  0
  154.7005  136.0954  185.1780 O   0  0  0  0  0  0  0  0  0  0  0  0
  154.1489  137.4031  186.9904 N   0  0  0  0  0  0  0  0  0  0  0  0
  153.6271  138.5716  187.6564 C   0  0  0  0  0  0  0  0  0  0  0  0
  154.3870  138.6469  188.9758 C   0  0  0  0  0  0  0  0  0  0  0  0
  155.4795  137.5930  188.8207 C   0  0  0  0  0  0  0  0  0  0  0  0
  154.6926  136.5386  188.0227 C   0  0  0  0  0  0  0  0  0  0  0  0
  153.6494  135.9985  188.9218 C   0  0  0  0  0  0  0  0  0  0  0  0
  152.6842  135.3830  188.4249 O   0  0  0  0  0  0  0  0  0  0  0  0
  153.6696  136.1328  190.3214 N   0  0  0  0  0  0  0  0  0  0  0  0
  154.4870  136.6357  190.7522 H   0  0  0  0  0  0  0  0  0  0  0  0
  152.6427  135.6242  191.1898 C   0  0  0  0  0  0  0  0  0  0  0  0
  151.9972  136.5993  192.0517 C   0  0  0  0  0  0  0  0  0  0  0  0
  150.5830  136.7021  192.1777 N   0  0  0  0  0  0  0  0  0  0  0  0
  152.6686  137.4271  192.7518 O   0  0  0  0  0  0  0  0  0  0  0  0
  150.0198  136.3246  191.3921 H   0  0  0  0  0  0  0  0  0  0  0  0
  150.1113  137.1285  193.0007 H   0  0  0  0  0  0  0  0  0  0  0  0
  153.1887  134.4046  191.9185 C   0  0  0  0  0  0  0  0  0  0  0  0
  152.1958  133.6950  192.7331 C   0  0  0  0  0  0  0  0  0  0  0  0
  151.1160  133.0735  192.1505 C   0  0  0  0  0  0  0  0  0  0  0  0
  150.1860  132.4326  192.9265 C   0  0  0  0  0  0  0  0  0  0  0  0
  150.3284  132.4072  194.3025 C   0  0  0  0  0  0  0  0  0  0  0  0
  151.4031  133.0266  194.8593 C   0  0  0  0  0  0  0  0  0  0  0  0
  152.3378  133.6690  194.0966 C   0  0  0  0  0  0  0  0  0  0  0  0
  154.8421  140.2971  183.9654 C   0  0  0  0  0  0  0  0  0  0  0  0
  154.3952  141.4566  183.9338 O   0  0  0  0  0  0  0  0  0  0  0  0
  154.1224  139.1495  184.2970 N   0  0  0  0  0  0  0  0  0  0  0  0
  153.0209  139.9292  184.4941 H   0  0  0  0  0  0  0  0  0  0  0  0
  156.7214  141.5013  183.0306 N   0  0  0  0  0  0  0  0  0  0  0  0
  156.3085  140.2002  183.6034 C   0  0  0  0  0  0  0  0  0  0  0  0
  155.9146  142.0475  182.7235 H   0  0  0  0  0  0  0  0  0  0  0  0
  157.3999  141.9990  183.6205 H   0  0  0  0  0  0  0  0  0  0  0  0
  157.2178  139.9637  184.7430 C   0  0  0  0  0  0  0  0  0  0  0  0
  158.4776  140.6756  184.7998 C   0  0  0  0  0  0  0  0  0  0  0  0
  158.7556  141.5602  185.8061 C   0  0  0  0  0  0  0  0  0  0  0  0
  159.9523  142.2684  185.8862 C   0  0  0  0  0  0  0  0  0  0  0  0
  160.9172  142.0832  184.9145 C   0  0  0  0  0  0  0  0  0  0  0  0
  162.1277  142.7682  184.9548 O   0  0  0  0  0  0  0  0  0  0  0  0
  160.6373  141.1905  183.8981 C   0  0  0  0  0  0  0  0  0  0  0  0
  159.4532  140.4886  183.8169 C   0  0  0  0  0  0  0  0  0  0  0  0
  162.2365  143.6748  184.4985 H   0  0  0  0  0  0  0  0  0  0  0  0
  153.0895  137.1275  183.4185 C   0  0  0  0  0  0  0  0  0  0  0  0
  152.0318  137.7163  182.5649 C   0  0  0  0  0  0  0  0  0  0  0  0
  150.6949  137.7394  182.8828 C   0  0  0  0  0  0  0  0  0  0  0  0
  149.7732  138.3078  182.0165 C   0  0  0  0  0  0  0  0  0  0  0  0
  150.1509  138.8715  180.8071 C   0  0  0  0  0  0  0  0  0  0  0  0
  149.2432  139.4406  179.9307 O   0  0  0  0  0  0  0  0  0  0  0  0
  151.5077  138.8549  180.4728 C   0  0  0  0  0  0  0  0  0  0  0  0
  152.4062  138.2860  181.3459 C   0  0  0  0  0  0  0  0  0  0  0  0
  149.0393  140.4187  180.0258 H   0  0  0  0  0  0  0  0  0  0  0  0
 30 31  1  0  0  0
 31 34  1  0  0  0
 34 35  1  0  0  0
 35 36  2  0  0  0
 36 37  1  0  0  0
 37 38  2  0  0  0
 38 39  1  0  0  0
 38 40  1  0  0  0
 40 41  2  0  0  0
 31 26  1  0  0  0
 26 27  2  0  0  0
 26 28  1  0  0  0
 28  1  1  0  0  0
  1 43  1  0  0  0
 43 44  1  0  0  0
 44 45  2  0  0  0
 45 46  1  0  0  0
 46 47  2  0  0  0
 47 48  1  0  0  0
 47 49  1  0  0  0
 49 50  2  0  0  0
  1  2  1  0  0  0
  2  3  2  0  0  0
  2  4  1  0  0  0
  4  5  1  0  0  0
  5  6  1  0  0  0
  6  7  1  0  0  0
  7  8  1  0  0  0
  8  9  1  0  0  0
  9 10  2  0  0  0
  9 11  1  0  0  0
 11 13  1  0  0  0
 13 19  1  0  0  0
 19 20  1  0  0  0
 20 21  2  0  0  0
 21 22  1  0  0  0
 22 23  2  0  0  0
 23 24  1  0  0  0
 24 25  2  0  0  0
 13 14  1  0  0  0
 14 15  1  0  0  0
 14 16  2  0  0  0
 41 35  1  0  0  0
 50 44  1  0  0  0
  8  4  1  0  0  0
 25 20  1  0  0  0
 30 32  1  0  0  0
 30 33  1  0  0  0
 39 42  1  0  0  0
 28 29  1  0  0  0
 48 51  1  0  0  0
 11 12  1  0  0  0
 15 17  1  0  0  0
 15 18  1  0  0  0
M  END
> <minimizedAffinity>
-8.02025

> <CNNscore>
0.2515716553

> <CNNaffinity>
6.1622552872

> <CNN_VS>
1.5502487421

> <CNNaffinity_variance>
0.3345454335

$$$$
[H]Oc1c([H])c([H])c(C([H])([H])[C@@]([H])(C(=O)N([H])[C@]([H])(C(=O)N2C([H])([H])C([H])([H])C([H])([H])[C@@]2([H])C(=O)N([H])[C@]([H])(C(=O)N([H])[H])C([H])([H])c2c([H])c([H])c([H])c([H])c2[H])C([H])([H])c2c([H])c([H])c(O[H])c([H])c2[H])N([H])[H])c([H])c1[H]


 51 54  0  0  0  0  0  0  0  0999 V2000
  153.1451  138.1233  183.8641 C   0  0  0  0  0  0  0  0  0  0  0  0
  153.9913  137.0749  184.5546 C   0  0  0  0  0  0  0  0  0  0  0  0
  154.3749  136.0681  183.8761 O   0  0  0  0  0  0  0  0  0  0  0  0
  154.3669  137.1618  185.9017 N   0  0  0  0  0  0  0  0  0  0  0  0
  154.1025  138.2586  186.8008 C   0  0  0  0  0  0  0  0  0  0  0  0
  155.1606  138.1391  187.8918 C   0  0  0  0  0  0  0  0  0  0  0  0
  156.1081  137.0696  187.3564 C   0  0  0  0  0  0  0  0  0  0  0  0
  155.0815  136.1548  186.6658 C   0  0  0  0  0  0  0  0  0  0  0  0
  154.2500  135.5496  187.7291 C   0  0  0  0  0  0  0  0  0  0  0  0
  154.8040  135.1456  188.7718 O   0  0  0  0  0  0  0  0  0  0  0  0
  152.8549  135.3947  187.6454 N   0  0  0  0  0  0  0  0  0  0  0  0
  152.3754  135.7467  186.7778 H   0  0  0  0  0  0  0  0  0  0  0  0
  152.0534  134.7869  188.6728 C   0  0  0  0  0  0  0  0  0  0  0  0
  151.4078  133.5344  188.3192 C   0  0  0  0  0  0  0  0  0  0  0  0
  150.8313  132.6630  189.2859 N   0  0  0  0  0  0  0  0  0  0  0  0
  151.3201  133.1410  187.1093 O   0  0  0  0  0  0  0  0  0  0  0  0
  151.1858  132.7504  190.2573 H   0  0  0  0  0  0  0  0  0  0  0  0
  150.0936  131.9656  189.0600 H   0  0  0  0  0  0  0  0  0  0  0  0
  151.1127  135.8419  189.2372 C   0  0  0  0  0  0  0  0  0  0  0  0
  151.3855  136.2086  190.6314 C   0  0  0  0  0  0  0  0  0  0  0  0
  150.4315  136.0392  191.6076 C   0  0  0  0  0  0  0  0  0  0  0  0
  150.6941  136.4059  192.9015 C   0  0  0  0  0  0  0  0  0  0  0  0
  151.9223  136.9494  193.2336 C   0  0  0  0  0  0  0  0  0  0  0  0
  152.8524  137.1081  192.2547 C   0  0  0  0  0  0  0  0  0  0  0  0
  152.6032  136.7461  190.9605 C   0  0  0  0  0  0  0  0  0  0  0  0
  154.4745  140.4407  183.2773 C   0  0  0  0  0  0  0  0  0  0  0  0
  153.9585  141.5619  183.1298 O   0  0  0  0  0  0  0  0  0  0  0  0
  153.7969  139.2590  183.5765 N   0  0  0  0  0  0  0  0  0  0  0  0
  152.6294  139.9639  183.5941 H   0  0  0  0  0  0  0  0  0  0  0  0
  156.3944  141.7999  182.7102 N   0  0  0  0  0  0  0  0  0  0  0  0
  155.9783  140.4355  183.1061 C   0  0  0  0  0  0  0  0  0  0  0  0
  155.6071  142.3407  182.3482 H   0  0  0  0  0  0  0  0  0  0  0  0
  156.9652  142.2659  183.4265 H   0  0  0  0  0  0  0  0  0  0  0  0
  156.7444  140.1284  184.3309 C   0  0  0  0  0  0  0  0  0  0  0  0
  158.0658  140.6968  184.4975 C   0  0  0  0  0  0  0  0  0  0  0  0
  158.3818  141.4690  185.5820 C   0  0  0  0  0  0  0  0  0  0  0  0
  159.6389  142.0387  185.7690 C   0  0  0  0  0  0  0  0  0  0  0  0
  160.6276  141.8259  184.8272 C   0  0  0  0  0  0  0  0  0  0  0  0
  161.8982  142.3741  184.9731 O   0  0  0  0  0  0  0  0  0  0  0  0
  160.3095  141.0466  183.7318 C   0  0  0  0  0  0  0  0  0  0  0  0
  159.0654  140.4819  183.5450 C   0  0  0  0  0  0  0  0  0  0  0  0
  162.1218  143.2957  184.5957 H   0  0  0  0  0  0  0  0  0  0  0  0
  152.5374  137.3980  182.6397 C   0  0  0  0  0  0  0  0  0  0  0  0
  151.2835  138.0464  182.1908 C   0  0  0  0  0  0  0  0  0  0  0  0
  151.1804  138.8733  181.0977 C   0  0  0  0  0  0  0  0  0  0  0  0
  149.9630  139.4426  180.7559 C   0  0  0  0  0  0  0  0  0  0  0  0
  148.8095  139.2081  181.4893 C   0  0  0  0  0  0  0  0  0  0  0  0
  147.5877  139.7704  181.1625 O   0  0  0  0  0  0  0  0  0  0  0  0
  148.9014  138.3683  182.6024 C   0  0  0  0  0  0  0  0  0  0  0  0
  150.1185  137.8135  182.9250 C   0  0  0  0  0  0  0  0  0  0  0  0
  146.9831  139.2659  180.5402 H   0  0  0  0  0  0  0  0  0  0  0  0
 30 31  1  0  0  0
 31 34  1  0  0  0
 34 35  1  0  0  0
 35 36  2  0  0  0
 36 37  1  0  0  0
 37 38  2  0  0  0
 38 39  1  0  0  0
 38 40  1  0  0  0
 40 41  2  0  0  0
 31 26  1  0  0  0
 26 27  2  0  0  0
 26 28  1  0  0  0
 28  1  1  0  0  0
  1 43  1  0  0  0
 43 44  1  0  0  0
 44 45  2  0  0  0
 45 46  1  0  0  0
 46 47  2  0  0  0
 47 48  1  0  0  0
 47 49  1  0  0  0
 49 50  2  0  0  0
  1  2  1  0  0  0
  2  3  2  0  0  0
  2  4  1  0  0  0
  4  5  1  0  0  0
  5  6  1  0  0  0
  6  7  1  0  0  0
  7  8  1  0  0  0
  8  9  1  0  0  0
  9 10  2  0  0  0
  9 11  1  0  0  0
 11 13  1  0  0  0
 13 19  1  0  0  0
 19 20  1  0  0  0
 20 21  2  0  0  0
 21 22  1  0  0  0
 22 23  2  0  0  0
 23 24  1  0  0  0
 24 25  2  0  0  0
 13 14  1  0  0  0
 14 15  1  0  0  0
 14 16  2  0  0  0
 41 35  1  0  0  0
 50 44  1  0  0  0
  8  4  1  0  0  0
 25 20  1  0  0  0
 30 32  1  0  0  0
 30 33  1  0  0  0
 39 42  1  0  0  0
 28 29  1  0  0  0
 48 51  1  0  0  0
 11 12  1  0  0  0
 15 17  1  0  0  0
 15 18  1  0  0  0
M  END
> <minimizedAffinity>
-8.13447

> <CNNscore>
0.2210592330

> <CNNaffinity>
6.3444571495

> <CNN_VS>
1.4025008678

> <CNNaffinity_variance>
0.2282083929

$$$$
[H]Oc1c([H])c([H])c(C([H])([H])[C@@]([H])(C(=O)N([H])[C@]([H])(C(=O)N2C([H])([H])C([H])([H])C([H])([H])[C@@]2([H])C(=O)N([H])[C@]([H])(C(=O)N([H])[H])C([H])([H])c2c([H])c([H])c([H])c([H])c2[H])C([H])([H])c2c([H])c([H])c(O[H])c([H])c2[H])N([H])[H])c([H])c1[H]


 51 54  0  0  0  0  0  0  0  0999 V2000
  153.6689  137.8882  185.6592 C   0  0  0  0  0  0  0  0  0  0  0  0
  154.4936  138.2494  184.4420 C   0  0  0  0  0  0  0  0  0  0  0  0
  155.0549  137.3081  183.7939 O   0  0  0  0  0  0  0  0  0  0  0  0
  154.6677  139.5679  184.0009 N   0  0  0  0  0  0  0  0  0  0  0  0
  154.0469  140.7490  184.5492 C   0  0  0  0  0  0  0  0  0  0  0  0
  154.0854  141.7751  183.4224 C   0  0  0  0  0  0  0  0  0  0  0  0
  154.5407  140.9629  182.2136 C   0  0  0  0  0  0  0  0  0  0  0  0
  155.5241  140.0091  182.9143 C   0  0  0  0  0  0  0  0  0  0  0  0
  156.6655  140.8249  183.3833 C   0  0  0  0  0  0  0  0  0  0  0  0
  156.9575  140.8131  184.5965 O   0  0  0  0  0  0  0  0  0  0  0  0
  157.4579  141.6269  182.5429 N   0  0  0  0  0  0  0  0  0  0  0  0
  157.2309  141.6317  181.5159 H   0  0  0  0  0  0  0  0  0  0  0  0
  158.5534  142.4345  183.0065 C   0  0  0  0  0  0  0  0  0  0  0  0
  158.9445  143.5342  182.1414 C   0  0  0  0  0  0  0  0  0  0  0  0
  158.7490  144.8998  182.4922 N   0  0  0  0  0  0  0  0  0  0  0  0
  159.4911  143.3356  181.0065 O   0  0  0  0  0  0  0  0  0  0  0  0
  158.0123  145.0957  183.1963 H   0  0  0  0  0  0  0  0  0  0  0  0
  159.2992  145.6807  182.0809 H   0  0  0  0  0  0  0  0  0  0  0  0
  159.6961  141.5122  183.4066 C   0  0  0  0  0  0  0  0  0  0  0  0
  160.4493  141.9613  184.5829 C   0  0  0  0  0  0  0  0  0  0  0  0
  159.8033  142.3136  185.7449 C   0  0  0  0  0  0  0  0  0  0  0  0
  160.5193  142.7512  186.8283 C   0  0  0  0  0  0  0  0  0  0  0  0
  161.8981  142.8411  186.7590 C   0  0  0  0  0  0  0  0  0  0  0  0
  162.5183  142.4875  185.6019 C   0  0  0  0  0  0  0  0  0  0  0  0
  161.8159  142.0493  184.5144 C   0  0  0  0  0  0  0  0  0  0  0  0
  151.1140  137.0902  185.0961 C   0  0  0  0  0  0  0  0  0  0  0  0
  150.1692  137.0411  185.9024 O   0  0  0  0  0  0  0  0  0  0  0  0
  152.4167  137.4970  185.3829 N   0  0  0  0  0  0  0  0  0  0  0  0
  152.0343  137.7222  186.6726 H   0  0  0  0  0  0  0  0  0  0  0  0
  150.1846  135.2890  183.7744 N   0  0  0  0  0  0  0  0  0  0  0  0
  150.7406  136.6586  183.6943 C   0  0  0  0  0  0  0  0  0  0  0  0
  150.4461  134.8297  184.6485 H   0  0  0  0  0  0  0  0  0  0  0  0
  149.1874  135.2488  183.5293 H   0  0  0  0  0  0  0  0  0  0  0  0
  149.6916  137.4739  183.0493 C   0  0  0  0  0  0  0  0  0  0  0  0
  150.0192  138.2325  181.8601 C   0  0  0  0  0  0  0  0  0  0  0  0
  149.2972  138.1008  180.7051 C   0  0  0  0  0  0  0  0  0  0  0  0
  149.5902  138.8073  179.5411 C   0  0  0  0  0  0  0  0  0  0  0  0
  150.6554  139.6876  179.5311 C   0  0  0  0  0  0  0  0  0  0  0  0
  150.9841  140.4153  178.3915 O   0  0  0  0  0  0  0  0  0  0  0  0
  151.3849  139.8210  180.6966 C   0  0  0  0  0  0  0  0  0  0  0  0
  151.0965  139.1224  181.8499 C   0  0  0  0  0  0  0  0  0  0  0  0
  151.6393  140.0469  177.7010 H   0  0  0  0  0  0  0  0  0  0  0  0
  154.5208  136.8431  186.4185 C   0  0  0  0  0  0  0  0  0  0  0  0
  154.9282  137.3398  187.7532 C   0  0  0  0  0  0  0  0  0  0  0  0
  154.1692  138.1709  188.5418 C   0  0  0  0  0  0  0  0  0  0  0  0
  154.6362  138.5914  189.7780 C   0  0  0  0  0  0  0  0  0  0  0  0
  155.8721  138.1989  190.2698 C   0  0  0  0  0  0  0  0  0  0  0  0
  156.3532  138.6115  191.5002 O   0  0  0  0  0  0  0  0  0  0  0  0
  156.6528  137.3531  189.4775 C   0  0  0  0  0  0  0  0  0  0  0  0
  156.1716  136.9474  188.2539 C   0  0  0  0  0  0  0  0  0  0  0  0
  156.1451  138.0492  192.3052 H   0  0  0  0  0  0  0  0  0  0  0  0
 30 31  1  0  0  0
 31 34  1  0  0  0
 34 35  1  0  0  0
 35 36  2  0  0  0
 36 37  1  0  0  0
 37 38  2  0  0  0
 38 39  1  0  0  0
 38 40  1  0  0  0
 40 41  2  0  0  0
 31 26  1  0  0  0
 26 27  2  0  0  0
 26 28  1  0  0  0
 28  1  1  0  0  0
  1 43  1  0  0  0
 43 44  1  0  0  0
 44 45  2  0  0  0
 45 46  1  0  0  0
 46 47  2  0  0  0
 47 48  1  0  0  0
 47 49  1  0  0  0
 49 50  2  0  0  0
  1  2  1  0  0  0
  2  3  2  0  0  0
  2  4  1  0  0  0
  4  5  1  0  0  0
  5  6  1  0  0  0
  6  7  1  0  0  0
  7  8  1  0  0  0
  8  9  1  0  0  0
  9 10  2  0  0  0
  9 11  1  0  0  0
 11 13  1  0  0  0
 13 19  1  0  0  0
 19 20  1  0  0  0
 20 21  2  0  0  0
 21 22  1  0  0  0
 22 23  2  0  0  0
 23 24  1  0  0  0
 24 25  2  0  0  0
 13 14  1  0  0  0
 14 15  1  0  0  0
 14 16  2  0  0  0
 41 35  1  0  0  0
 50 44  1  0  0  0
  8  4  1  0  0  0
 25 20  1  0  0  0
 30 32  1  0  0  0
 30 33  1  0  0  0
 39 42  1  0  0  0
 28 29  1  0  0  0
 48 51  1  0  0  0
 11 12  1  0  0  0
 15 17  1  0  0  0
 15 18  1  0  0  0
M  END
> <minimizedAffinity>
-9.31148

> <CNNscore>
0.2176850587

> <CNNaffinity>
6.9650344849

> <CNN_VS>
1.5161839724

> <CNNaffinity_variance>
0.3295550346

$$$$
[H]Oc1c([H])c([H])c(C([H])([H])[C@@]([H])(C(=O)N([H])[C@]([H])(C(=O)N2C([H])([H])C([H])([H])C([H])([H])[C@@]2([H])C(=O)N([H])[C@]([H])(C(=O)N([H])[H])C([H])([H])c2c([H])c([H])c([H])c([H])c2[H])C([H])([H])c2c([H])c([H])c(O[H])c([H])c2[H])N([H])[H])c([H])c1[H]


 51 54  0  0  0  0  0  0  0  0999 V2000
  153.9457  138.9168  185.6483 C   0  0  0  0  0  0  0  0  0  0  0  0
  155.1017  138.3190  186.4219 C   0  0  0  0  0  0  0  0  0  0  0  0
  156.1731  138.0478  185.7898 O   0  0  0  0  0  0  0  0  0  0  0  0
  155.0438  138.0497  187.7958 N   0  0  0  0  0  0  0  0  0  0  0  0
  153.9565  138.3641  188.6903 C   0  0  0  0  0  0  0  0  0  0  0  0
  154.5870  138.4108  190.0775 C   0  0  0  0  0  0  0  0  0  0  0  0
  156.0844  138.3398  189.7930 C   0  0  0  0  0  0  0  0  0  0  0  0
  156.0609  137.3824  188.5887 C   0  0  0  0  0  0  0  0  0  0  0  0
  155.6191  136.0620  189.0882 C   0  0  0  0  0  0  0  0  0  0  0  0
  155.1246  135.2468  188.2831 O   0  0  0  0  0  0  0  0  0  0  0  0
  155.7190  135.6543  190.4303 N   0  0  0  0  0  0  0  0  0  0  0  0
  156.1493  136.3273  191.1147 H   0  0  0  0  0  0  0  0  0  0  0  0
  155.2691  134.3777  190.9152 C   0  0  0  0  0  0  0  0  0  0  0  0
  156.0080  133.2201  190.4412 C   0  0  0  0  0  0  0  0  0  0  0  0
  155.6230  132.4766  189.2900 N   0  0  0  0  0  0  0  0  0  0  0  0
  157.0549  132.8005  191.0363 O   0  0  0  0  0  0  0  0  0  0  0  0
  154.6273  132.5463  189.0059 H   0  0  0  0  0  0  0  0  0  0  0  0
  156.2818  131.8858  188.7436 H   0  0  0  0  0  0  0  0  0  0  0  0
  153.7633  134.2888  190.7122 C   0  0  0  0  0  0  0  0  0  0  0  0
  152.9821  135.1403  191.6163 C   0  0  0  0  0  0  0  0  0  0  0  0
  153.1831  135.1003  192.9763 C   0  0  0  0  0  0  0  0  0  0  0  0
  152.4310  135.8866  193.8094 C   0  0  0  0  0  0  0  0  0  0  0  0
  151.4639  136.7262  193.2861 C   0  0  0  0  0  0  0  0  0  0  0  0
  151.2810  136.7521  191.9391 C   0  0  0  0  0  0  0  0  0  0  0  0
  152.0246  135.9733  191.0974 C   0  0  0  0  0  0  0  0  0  0  0  0
  154.6229  139.9039  183.1889 C   0  0  0  0  0  0  0  0  0  0  0  0
  153.8849  139.9452  182.1895 O   0  0  0  0  0  0  0  0  0  0  0  0
  154.2779  139.4006  184.4430 N   0  0  0  0  0  0  0  0  0  0  0  0
  153.0346  139.1183  183.9583 H   0  0  0  0  0  0  0  0  0  0  0  0
  155.9010  141.4739  181.8636 N   0  0  0  0  0  0  0  0  0  0  0  0
  156.0049  140.4726  182.9488 C   0  0  0  0  0  0  0  0  0  0  0  0
  155.0436  141.3510  181.3220 H   0  0  0  0  0  0  0  0  0  0  0  0
  156.0935  142.4309  182.1846 H   0  0  0  0  0  0  0  0  0  0  0  0
  156.5906  141.1935  184.0970 C   0  0  0  0  0  0  0  0  0  0  0  0
  158.0285  141.3464  184.1748 C   0  0  0  0  0  0  0  0  0  0  0  0
  158.8294  141.1536  183.0822 C   0  0  0  0  0  0  0  0  0  0  0  0
  160.2156  141.2830  183.1236 C   0  0  0  0  0  0  0  0  0  0  0  0
  160.8305  141.6217  184.3139 C   0  0  0  0  0  0  0  0  0  0  0  0
  162.2120  141.7631  184.4018 O   0  0  0  0  0  0  0  0  0  0  0  0
  160.0229  141.8164  185.4176 C   0  0  0  0  0  0  0  0  0  0  0  0
  158.6504  141.6886  185.3785 C   0  0  0  0  0  0  0  0  0  0  0  0
  162.8096  140.9702  184.6383 H   0  0  0  0  0  0  0  0  0  0  0  0
  152.8684  137.8063  185.6255 C   0  0  0  0  0  0  0  0  0  0  0  0
  152.9668  136.9783  184.4012 C   0  0  0  0  0  0  0  0  0  0  0  0
  152.1894  137.1467  183.2803 C   0  0  0  0  0  0  0  0  0  0  0  0
  152.3478  136.3172  182.1804 C   0  0  0  0  0  0  0  0  0  0  0  0
  153.2841  135.2943  182.1593 C   0  0  0  0  0  0  0  0  0  0  0  0
  153.4529  134.4567  181.0704 O   0  0  0  0  0  0  0  0  0  0  0  0
  154.0813  135.1135  183.2928 C   0  0  0  0  0  0  0  0  0  0  0  0
  153.9083  135.9469  184.3738 C   0  0  0  0  0  0  0  0  0  0  0  0
  154.1126  134.7237  180.3627 H   0  0  0  0  0  0  0  0  0  0  0  0
 30 31  1  0  0  0
 31 34  1  0  0  0
 34 35  1  0  0  0
 35 36  2  0  0  0
 36 37  1  0  0  0
 37 38  2  0  0  0
 38 39  1  0  0  0
 38 40  1  0  0  0
 40 41  2  0  0  0
 31 26  1  0  0  0
 26 27  2  0  0  0
 26 28  1  0  0  0
 28  1  1  0  0  0
  1 43  1  0  0  0
 43 44  1  0  0  0
 44 45  2  0  0  0
 45 46  1  0  0  0
 46 47  2  0  0  0
 47 48  1  0  0  0
 47 49  1  0  0  0
 49 50  2  0  0  0
  1  2  1  0  0  0
  2  3  2  0  0  0
  2  4  1  0  0  0
  4  5  1  0  0  0
  5  6  1  0  0  0
  6  7  1  0  0  0
  7  8  1  0  0  0
  8  9  1  0  0  0
  9 10  2  0  0  0
  9 11  1  0  0  0
 11 13  1  0  0  0
 13 19  1  0  0  0
 19 20  1  0  0  0
 20 21  2  0  0  0
 21 22  1  0  0  0
 22 23  2  0  0  0
 23 24  1  0  0  0
 24 25  2  0  0  0
 13 14  1  0  0  0
 14 15  1  0  0  0
 14 16  2  0  0  0
 41 35  1  0  0  0
 50 44  1  0  0  0
  8  4  1  0  0  0
 25 20  1  0  0  0
 30 32  1  0  0  0
 30 33  1  0  0  0
 39 42  1  0  0  0
 28 29  1  0  0  0
 48 51  1  0  0  0
 11 12  1  0  0  0
 15 17  1  0  0  0
 15 18  1  0  0  0
M  END
> <minimizedAffinity>
-8.13932

> <CNNscore>
0.2132792175

> <CNNaffinity>
6.5334119797

> <CNN_VS>
1.3934409618

> <CNNaffinity_variance>
0.1782906055

$$$$
[H]Oc1c([H])c([H])c(C([H])([H])[C@@]([H])(C(=O)N([H])[C@]([H])(C(=O)N2C([H])([H])C([H])([H])C([H])([H])[C@@]2([H])C(=O)N([H])[C@]([H])(C(=O)N([H])[H])C([H])([H])c2c([H])c([H])c([H])c([H])c2[H])C([H])([H])c2c([H])c([H])c(O[H])c([H])c2[H])N([H])[H])c([H])c1[H]


 51 54  0  0  0  0  0  0  0  0999 V2000
  154.2443  138.7548  184.8444 C   0  0  0  0  0  0  0  0  0  0  0  0
  155.2422  138.6258  185.9756 C   0  0  0  0  0  0  0  0  0  0  0  0
  156.4432  138.9916  185.7639 O   0  0  0  0  0  0  0  0  0  0  0  0
  154.9045  138.1214  187.2385 N   0  0  0  0  0  0  0  0  0  0  0  0
  153.5887  137.7395  187.6902 C   0  0  0  0  0  0  0  0  0  0  0  0
  153.6532  137.8231  189.2110 C   0  0  0  0  0  0  0  0  0  0  0  0
  154.9964  138.4967  189.4762 C   0  0  0  0  0  0  0  0  0  0  0  0
  155.8173  137.8649  188.3383 C   0  0  0  0  0  0  0  0  0  0  0  0
  155.9512  136.4237  188.6438 C   0  0  0  0  0  0  0  0  0  0  0  0
  155.8925  135.6005  187.7078 O   0  0  0  0  0  0  0  0  0  0  0  0
  156.1431  135.9076  189.9377 N   0  0  0  0  0  0  0  0  0  0  0  0
  156.2105  136.5936  190.7323 H   0  0  0  0  0  0  0  0  0  0  0  0
  156.2519  134.5046  190.2325 C   0  0  0  0  0  0  0  0  0  0  0  0
  155.2320  133.9574  191.1106 C   0  0  0  0  0  0  0  0  0  0  0  0
  154.1655  134.7397  191.6368 N   0  0  0  0  0  0  0  0  0  0  0  0
  155.2349  132.7319  191.4631 O   0  0  0  0  0  0  0  0  0  0  0  0
  154.3211  135.7648  191.6799 H   0  0  0  0  0  0  0  0  0  0  0  0
  153.2676  134.3334  191.9689 H   0  0  0  0  0  0  0  0  0  0  0  0
  157.6803  134.2137  190.6700 C   0  0  0  0  0  0  0  0  0  0  0  0
  158.5181  133.6087  189.6284 C   0  0  0  0  0  0  0  0  0  0  0  0
  158.7193  132.2489  189.5829 C   0  0  0  0  0  0  0  0  0  0  0  0
  159.5214  131.7009  188.6164 C   0  0  0  0  0  0  0  0  0  0  0  0
  160.1343  132.5139  187.6796 C   0  0  0  0  0  0  0  0  0  0  0  0
  159.9223  133.8555  187.7407 C   0  0  0  0  0  0  0  0  0  0  0  0
  159.1244  134.4145  188.6994 C   0  0  0  0  0  0  0  0  0  0  0  0
  155.0486  140.3979  182.8109 C   0  0  0  0  0  0  0  0  0  0  0  0
  154.3336  140.8193  181.8856 O   0  0  0  0  0  0  0  0  0  0  0  0
  154.6388  139.5601  183.8478 N   0  0  0  0  0  0  0  0  0  0  0  0
  153.3827  139.5605  183.3163 H   0  0  0  0  0  0  0  0  0  0  0  0
  156.7331  141.3592  181.3640 N   0  0  0  0  0  0  0  0  0  0  0  0
  156.4806  140.8831  182.7427 C   0  0  0  0  0  0  0  0  0  0  0  0
  156.0410  140.9914  180.7088 H   0  0  0  0  0  0  0  0  0  0  0  0
  156.8996  142.3721  181.3164 H   0  0  0  0  0  0  0  0  0  0  0  0
  156.7931  142.0294  183.6200 C   0  0  0  0  0  0  0  0  0  0  0  0
  158.1260  142.1520  184.1726 C   0  0  0  0  0  0  0  0  0  0  0  0
  159.1372  142.7563  183.4763 C   0  0  0  0  0  0  0  0  0  0  0  0
  160.4321  142.8829  183.9733 C   0  0  0  0  0  0  0  0  0  0  0  0
  160.7305  142.3820  185.2262 C   0  0  0  0  0  0  0  0  0  0  0  0
  162.0098  142.4870  185.7633 O   0  0  0  0  0  0  0  0  0  0  0  0
  159.7104  141.7716  185.9298 C   0  0  0  0  0  0  0  0  0  0  0  0
  158.4278  141.6452  185.4394 C   0  0  0  0  0  0  0  0  0  0  0  0
  162.7081  141.7586  185.6094 H   0  0  0  0  0  0  0  0  0  0  0  0
  153.9392  137.2990  184.4178 C   0  0  0  0  0  0  0  0  0  0  0  0
  152.6324  137.1971  183.7279 C   0  0  0  0  0  0  0  0  0  0  0  0
  152.4703  137.1682  182.3634 C   0  0  0  0  0  0  0  0  0  0  0  0
  151.2042  137.0778  181.8049 C   0  0  0  0  0  0  0  0  0  0  0  0
  150.0592  137.0128  182.5847 C   0  0  0  0  0  0  0  0  0  0  0  0
  148.7887  136.9245  182.0427 O   0  0  0  0  0  0  0  0  0  0  0  0
  150.2111  137.0404  183.9736 C   0  0  0  0  0  0  0  0  0  0  0  0
  151.4758  137.1307  184.5080 C   0  0  0  0  0  0  0  0  0  0  0  0
  148.4081  136.0122  181.8687 H   0  0  0  0  0  0  0  0  0  0  0  0
 30 31  1  0  0  0
 31 34  1  0  0  0
 34 35  1  0  0  0
 35 36  2  0  0  0
 36 37  1  0  0  0
 37 38  2  0  0  0
 38 39  1  0  0  0
 38 40  1  0  0  0
 40 41  2  0  0  0
 31 26  1  0  0  0
 26 27  2  0  0  0
 26 28  1  0  0  0
 28  1  1  0  0  0
  1 43  1  0  0  0
 43 44  1  0  0  0
 44 45  2  0  0  0
 45 46  1  0  0  0
 46 47  2  0  0  0
 47 48  1  0  0  0
 47 49  1  0  0  0
 49 50  2  0  0  0
  1  2  1  0  0  0
  2  3  2  0  0  0
  2  4  1  0  0  0
  4  5  1  0  0  0
  5  6  1  0  0  0
  6  7  1  0  0  0
  7  8  1  0  0  0
  8  9  1  0  0  0
  9 10  2  0  0  0
  9 11  1  0  0  0
 11 13  1  0  0  0
 13 19  1  0  0  0
 19 20  1  0  0  0
 20 21  2  0  0  0
 21 22  1  0  0  0
 22 23  2  0  0  0
 23 24  1  0  0  0
 24 25  2  0  0  0
 13 14  1  0  0  0
 14 15  1  0  0  0
 14 16  2  0  0  0
 41 35  1  0  0  0
 50 44  1  0  0  0
  8  4  1  0  0  0
 25 20  1  0  0  0
 30 32  1  0  0  0
 30 33  1  0  0  0
 39 42  1  0  0  0
 28 29  1  0  0  0
 48 51  1  0  0  0
 11 12  1  0  0  0
 15 17  1  0  0  0
 15 18  1  0  0  0
M  END
> <minimizedAffinity>
-8.35461

> <CNNscore>
0.1929229796

> <CNNaffinity>
6.6581854820

> <CNN_VS>
1.2845169306

> <CNNaffinity_variance>
0.1300054640

$$$$
[H]Oc1c([H])c([H])c(C([H])([H])[C@@]([H])(C(=O)N([H])[C@]([H])(C(=O)N2C([H])([H])C([H])([H])C([H])([H])[C@@]2([H])C(=O)N([H])[C@]([H])(C(=O)N([H])[H])C([H])([H])c2c([H])c([H])c([H])c([H])c2[H])C([H])([H])c2c([H])c([H])c(O[H])c([H])c2[H])N([H])[H])c([H])c1[H]


 51 54  0  0  0  0  0  0  0  0999 V2000
  153.5230  139.4293  183.6697 C   0  0  0  0  0  0  0  0  0  0  0  0
  154.4582  138.6124  184.5358 C   0  0  0  0  0  0  0  0  0  0  0  0
  155.5979  138.2992  184.0624 O   0  0  0  0  0  0  0  0  0  0  0  0
  154.1253  138.1854  185.8282 N   0  0  0  0  0  0  0  0  0  0  0  0
  152.9260  138.5108  186.5609 C   0  0  0  0  0  0  0  0  0  0  0  0
  153.2934  138.3146  188.0274 C   0  0  0  0  0  0  0  0  0  0  0  0
  154.8047  138.1072  187.9935 C   0  0  0  0  0  0  0  0  0  0  0  0
  154.9147  137.3136  186.6798 C   0  0  0  0  0  0  0  0  0  0  0  0
  154.2700  136.0015  186.9063 C   0  0  0  0  0  0  0  0  0  0  0  0
  153.9998  135.2840  185.9217 O   0  0  0  0  0  0  0  0  0  0  0  0
  153.9344  135.4978  188.1756 N   0  0  0  0  0  0  0  0  0  0  0  0
  154.1725  136.0872  189.0137 H   0  0  0  0  0  0  0  0  0  0  0  0
  153.2890  134.2310  188.3895 C   0  0  0  0  0  0  0  0  0  0  0  0
  151.8608  134.1915  188.1258 C   0  0  0  0  0  0  0  0  0  0  0  0
  151.1395  135.3055  187.6111 N   0  0  0  0  0  0  0  0  0  0  0  0
  151.1655  133.1447  188.3429 O   0  0  0  0  0  0  0  0  0  0  0  0
  151.5631  136.2407  187.7622 H   0  0  0  0  0  0  0  0  0  0  0  0
  150.2338  135.2176  187.1075 H   0  0  0  0  0  0  0  0  0  0  0  0
  153.6893  133.7124  189.7633 C   0  0  0  0  0  0  0  0  0  0  0  0
  154.6694  134.5514  190.4620 C   0  0  0  0  0  0  0  0  0  0  0  0
  156.0013  134.2094  190.4910 C   0  0  0  0  0  0  0  0  0  0  0  0
  156.9013  134.9922  191.1654 C   0  0  0  0  0  0  0  0  0  0  0  0
  156.4745  136.1328  191.8219 C   0  0  0  0  0  0  0  0  0  0  0  0
  155.1541  136.4545  191.7809 C   0  0  0  0  0  0  0  0  0  0  0  0
  154.2464  135.6824  191.1116 C   0  0  0  0  0  0  0  0  0  0  0  0
  154.5142  141.8676  182.9253 C   0  0  0  0  0  0  0  0  0  0  0  0
  153.8421  142.8598  182.5951 O   0  0  0  0  0  0  0  0  0  0  0  0
  154.0091  140.6243  183.3048 N   0  0  0  0  0  0  0  0  0  0  0  0
  152.7477  141.1129  183.1301 H   0  0  0  0  0  0  0  0  0  0  0  0
  156.2319  143.5613  182.7352 N   0  0  0  0  0  0  0  0  0  0  0  0
  156.0084  142.1064  182.8926 C   0  0  0  0  0  0  0  0  0  0  0  0
  155.3961  144.0322  182.3841 H   0  0  0  0  0  0  0  0  0  0  0  0
  156.6724  143.9882  183.5597 H   0  0  0  0  0  0  0  0  0  0  0  0
  156.7276  141.7272  184.1255 C   0  0  0  0  0  0  0  0  0  0  0  0
  158.1749  141.6794  184.1115 C   0  0  0  0  0  0  0  0  0  0  0  0
  158.8696  141.3482  182.9801 C   0  0  0  0  0  0  0  0  0  0  0  0
  160.2602  141.2835  182.9338 C   0  0  0  0  0  0  0  0  0  0  0  0
  160.9912  141.5636  184.0726 C   0  0  0  0  0  0  0  0  0  0  0  0
  162.3817  141.5127  184.0725 O   0  0  0  0  0  0  0  0  0  0  0  0
  160.2906  141.8979  185.2154 C   0  0  0  0  0  0  0  0  0  0  0  0
  158.9140  141.9624  185.2632 C   0  0  0  0  0  0  0  0  0  0  0  0
  162.8782  140.6504  184.3001 H   0  0  0  0  0  0  0  0  0  0  0  0
  153.1546  138.4940  182.4934 C   0  0  0  0  0  0  0  0  0  0  0  0
  151.7483  138.6831  182.0681 C   0  0  0  0  0  0  0  0  0  0  0  0
  150.6651  138.0834  182.6647 C   0  0  0  0  0  0  0  0  0  0  0  0
  149.3818  138.3147  182.1928 C   0  0  0  0  0  0  0  0  0  0  0  0
  149.1343  139.1495  181.1134 C   0  0  0  0  0  0  0  0  0  0  0  0
  147.8599  139.3888  180.6292 O   0  0  0  0  0  0  0  0  0  0  0  0
  150.2276  139.7659  180.4989 C   0  0  0  0  0  0  0  0  0  0  0  0
  151.4928  139.5232  180.9820 C   0  0  0  0  0  0  0  0  0  0  0  0
  147.3430  140.1598  181.0110 H   0  0  0  0  0  0  0  0  0  0  0  0
 30 31  1  0  0  0
 31 34  1  0  0  0
 34 35  1  0  0  0
 35 36  2  0  0  0
 36 37  1  0  0  0
 37 38  2  0  0  0
 38 39  1  0  0  0
 38 40  1  0  0  0
 40 41  2  0  0  0
 31 26  1  0  0  0
 26 27  2  0  0  0
 26 28  1  0  0  0
 28  1  1  0  0  0
  1 43  1  0  0  0
 43 44  1  0  0  0
 44 45  2  0  0  0
 45 46  1  0  0  0
 46 47  2  0  0  0
 47 48  1  0  0  0
 47 49  1  0  0  0
 49 50  2  0  0  0
  1  2  1  0  0  0
  2  3  2  0  0  0
  2  4  1  0  0  0
  4  5  1  0  0  0
  5  6  1  0  0  0
  6  7  1  0  0  0
  7  8  1  0  0  0
  8  9  1  0  0  0
  9 10  2  0  0  0
  9 11  1  0  0  0
 11 13  1  0  0  0
 13 19  1  0  0  0
 19 20  1  0  0  0
 20 21  2  0  0  0
 21 22  1  0  0  0
 22 23  2  0  0  0
 23 24  1  0  0  0
 24 25  2  0  0  0
 13 14  1  0  0  0
 14 15  1  0  0  0
 14 16  2  0  0  0
 41 35  1  0  0  0
 50 44  1  0  0  0
  8  4  1  0  0  0
 25 20  1  0  0  0
 30 32  1  0  0  0
 30 33  1  0  0  0
 39 42  1  0  0  0
 28 29  1  0  0  0
 48 51  1  0  0  0
 11 12  1  0  0  0
 15 17  1  0  0  0
 15 18  1  0  0  0
M  END
> <minimizedAffinity>
-7.82262

> <CNNscore>
0.1836692095

> <CNNaffinity>
6.4603438377

> <CNN_VS>
1.1865662336

> <CNNaffinity_variance>
0.2878685594

$$$$
[H]c1nc(N2C([H])([H])C([H])([H])N(c3c([H])c([H])c([H])c([H])c3C([H])(C([H])([H])[H])C([H])([H])[H])C([H])([H])C2([H])[H])sc1C(=O)N([H])c1c([H])c([H])c([H])c(Br)c1[H]


 31 34  0  0  0  0  0  0  0  0999 V2000
  153.0403  137.2575  186.6021 C   0  0  0  0  0  0  0  0  0  0  0  0
  152.7294  137.4537  185.3382 N   0  0  0  0  0  0  0  0  0  0  0  0
  153.4888  138.1710  184.5770 C   0  0  0  0  0  0  0  0  0  0  0  0
  154.6180  138.7144  185.1287 C   0  0  0  0  0  0  0  0  0  0  0  0
  154.5170  138.1496  186.7395 S   0  0  0  0  0  0  0  0  0  0  0  0
  151.2354  135.0046  189.6685 N   0  0  0  0  0  0  0  0  0  0  0  0
  152.5536  134.7325  189.1828 C   0  0  0  0  0  0  0  0  0  0  0  0
  153.1236  136.0842  188.7576 C   0  0  0  0  0  0  0  0  0  0  0  0
  152.3569  136.5111  187.6169 N   0  0  0  0  0  0  0  0  0  0  0  0
  150.9766  136.1882  187.5358 C   0  0  0  0  0  0  0  0  0  0  0  0
  150.3625  135.8185  188.8718 C   0  0  0  0  0  0  0  0  0  0  0  0
  151.2668  135.0644  192.0631 C   0  0  0  0  0  0  0  0  0  0  0  0
  150.7876  134.5212  193.2601 C   0  0  0  0  0  0  0  0  0  0  0  0
  149.9043  133.4686  193.3073 C   0  0  0  0  0  0  0  0  0  0  0  0
  149.4709  132.9232  192.1235 C   0  0  0  0  0  0  0  0  0  0  0  0
  149.9022  133.4100  190.9382 C   0  0  0  0  0  0  0  0  0  0  0  0
  150.8085  134.4912  190.9088 C   0  0  0  0  0  0  0  0  0  0  0  0
  151.6546  137.3302  192.9865 C   0  0  0  0  0  0  0  0  0  0  0  0
  152.2236  136.1741  192.1363 C   0  0  0  0  0  0  0  0  0  0  0  0
  153.5878  135.7993  192.6022 C   0  0  0  0  0  0  0  0  0  0  0  0
  155.6505  139.5659  184.4966 C   0  0  0  0  0  0  0  0  0  0  0  0
  155.2829  140.2365  183.5387 O   0  0  0  0  0  0  0  0  0  0  0  0
  156.9461  139.5573  185.0115 N   0  0  0  0  0  0  0  0  0  0  0  0
  157.1593  138.9164  185.8736 H   0  0  0  0  0  0  0  0  0  0  0  0
  158.0623  140.2874  184.5665 C   0  0  0  0  0  0  0  0  0  0  0  0
  158.4741  140.1683  183.2324 C   0  0  0  0  0  0  0  0  0  0  0  0
  159.5645  140.8639  182.7948 C   0  0  0  0  0  0  0  0  0  0  0  0
  160.2940  141.6931  183.6151 C   0  0  0  0  0  0  0  0  0  0  0  0
  159.9135  141.8222  184.9071 C   0  0  0  0  0  0  0  0  0  0  0  0
  160.8471  142.9392  186.1282 Br  0  0  0  0  0  0  0  0  0  0  0  0
  158.8062  141.1195  185.3641 C   0  0  0  0  0  0  0  0  0  0  0  0
 18 19  1  0  0  0
 19 20  1  0  0  0
 19 12  1  0  0  0
 12 13  2  0  0  0
 13 14  1  0  0  0
 14 15  2  0  0  0
 15 16  1  0  0  0
 16 17  2  0  0  0
 17  6  1  0  0  0
  6  7  1  0  0  0
  7  8  1  0  0  0
  8  9  1  0  0  0
  9 10  1  0  0  0
 10 11  1  0  0  0
  9  1  1  0  0  0
  1  2  2  0  0  0
  2  3  1  0  0  0
  3  4  2  0  0  0
  4  5  1  0  0  0
  4 21  1  0  0  0
 21 22  2  0  0  0
 21 23  1  0  0  0
 23 25  1  0  0  0
 25 26  2  0  0  0
 26 27  1  0  0  0
 27 28  2  0  0  0
 28 29  1  0  0  0
 29 30  1  0  0  0
 29 31  2  0  0  0
 17 12  1  0  0  0
 11  6  1  0  0  0
  5  1  1  0  0  0
 31 25  1  0  0  0
 23 24  1  0  0  0
M  END
> <minimizedAffinity>
-6.91578

> <CNNscore>
0.3779541552

> <CNNaffinity>
5.8981156349

> <CNN_VS>
2.2292172909

> <CNNaffinity_variance>
0.0335992053

$$$$
[H]c1nc(N2C([H])([H])C([H])([H])N(c3c([H])c([H])c([H])c([H])c3C([H])(C([H])([H])[H])C([H])([H])[H])C([H])([H])C2([H])[H])sc1C(=O)N([H])c1c([H])c([H])c([H])c(Br)c1[H]


 31 34  0  0  0  0  0  0  0  0999 V2000
  154.1841  137.7638  186.2368 C   0  0  0  0  0  0  0  0  0  0  0  0
  153.7063  138.2768  185.1228 N   0  0  0  0  0  0  0  0  0  0  0  0
  154.4503  139.0133  184.3648 C   0  0  0  0  0  0  0  0  0  0  0  0
  155.7418  139.2383  184.7598 C   0  0  0  0  0  0  0  0  0  0  0  0
  155.8089  138.3599  186.2252 S   0  0  0  0  0  0  0  0  0  0  0  0
  152.5297  135.2377  189.1725 N   0  0  0  0  0  0  0  0  0  0  0  0
  153.7708  134.9543  188.5190 C   0  0  0  0  0  0  0  0  0  0  0  0
  154.3929  136.3141  188.2078 C   0  0  0  0  0  0  0  0  0  0  0  0
  153.5511  136.9321  187.2174 N   0  0  0  0  0  0  0  0  0  0  0  0
  152.1497  136.7051  187.2441 C   0  0  0  0  0  0  0  0  0  0  0  0
  151.6443  136.1997  188.5812 C   0  0  0  0  0  0  0  0  0  0  0  0
  152.4007  135.2375  191.5645 C   0  0  0  0  0  0  0  0  0  0  0  0
  152.0220  134.5496  192.7225 C   0  0  0  0  0  0  0  0  0  0  0  0
  151.4668  133.2919  192.7018 C   0  0  0  0  0  0  0  0  0  0  0  0
  151.2741  132.6805  191.4870 C   0  0  0  0  0  0  0  0  0  0  0  0
  151.6220  133.3007  190.3371 C   0  0  0  0  0  0  0  0  0  0  0  0
  152.1903  134.5917  190.3773 C   0  0  0  0  0  0  0  0  0  0  0  0
  152.3285  137.3490  192.8582 C   0  0  0  0  0  0  0  0  0  0  0  0
  153.0033  136.5672  191.7108 C   0  0  0  0  0  0  0  0  0  0  0  0
  154.4843  136.5731  191.8687 C   0  0  0  0  0  0  0  0  0  0  0  0
  156.7981  140.0328  184.0936 C   0  0  0  0  0  0  0  0  0  0  0  0
  157.8967  140.0311  184.6371 O   0  0  0  0  0  0  0  0  0  0  0  0
  156.4925  140.7190  182.9189 N   0  0  0  0  0  0  0  0  0  0  0  0
  155.4735  140.6470  182.5242 H   0  0  0  0  0  0  0  0  0  0  0  0
  157.3420  141.5191  182.1346 C   0  0  0  0  0  0  0  0  0  0  0  0
  157.7620  141.0527  180.8817 C   0  0  0  0  0  0  0  0  0  0  0  0
  158.5970  141.8176  180.1187 C   0  0  0  0  0  0  0  0  0  0  0  0
  159.0560  143.0485  180.5270 C   0  0  0  0  0  0  0  0  0  0  0  0
  158.6627  143.5174  181.7337 C   0  0  0  0  0  0  0  0  0  0  0  0
  159.2348  145.2034  182.3977 Br  0  0  0  0  0  0  0  0  0  0  0  0
  157.8137  142.7486  182.5191 C   0  0  0  0  0  0  0  0  0  0  0  0
 18 19  1  0  0  0
 19 20  1  0  0  0
 19 12  1  0  0  0
 12 13  2  0  0  0
 13 14  1  0  0  0
 14 15  2  0  0  0
 15 16  1  0  0  0
 16 17  2  0  0  0
 17  6  1  0  0  0
  6  7  1  0  0  0
  7  8  1  0  0  0
  8  9  1  0  0  0
  9 10  1  0  0  0
 10 11  1  0  0  0
  9  1  1  0  0  0
  1  2  2  0  0  0
  2  3  1  0  0  0
  3  4  2  0  0  0
  4  5  1  0  0  0
  4 21  1  0  0  0
 21 22  2  0  0  0
 21 23  1  0  0  0
 23 25  1  0  0  0
 25 26  2  0  0  0
 26 27  1  0  0  0
 27 28  2  0  0  0
 28 29  1  0  0  0
 29 30  1  0  0  0
 29 31  2  0  0  0
 17 12  1  0  0  0
 11  6  1  0  0  0
  5  1  1  0  0  0
 31 25  1  0  0  0
 23 24  1  0  0  0
M  END
> <minimizedAffinity>
-6.52614

> <CNNscore>
0.3662670255

> <CNNaffinity>
5.9019565582

> <CNN_VS>
2.1616921425

> <CNNaffinity_variance>
0.1168385521

$$$$
[H]c1nc(N2C([H])([H])C([H])([H])N(c3c([H])c([H])c([H])c([H])c3C([H])(C([H])([H])[H])C([H])([H])[H])C([H])([H])C2([H])[H])sc1C(=O)N([H])c1c([H])c([H])c([H])c(Br)c1[H]


 31 34  0  0  0  0  0  0  0  0999 V2000
  153.0899  136.8263  186.4228 C   0  0  0  0  0  0  0  0  0  0  0  0
  153.2639  136.4751  185.1663 N   0  0  0  0  0  0  0  0  0  0  0  0
  153.9634  137.2120  184.3674 C   0  0  0  0  0  0  0  0  0  0  0  0
  154.5114  138.3610  184.8716 C   0  0  0  0  0  0  0  0  0  0  0  0
  153.9774  138.3104  186.4951 S   0  0  0  0  0  0  0  0  0  0  0  0
  151.1503  134.8138  189.5730 N   0  0  0  0  0  0  0  0  0  0  0  0
  152.3549  134.3291  188.9716 C   0  0  0  0  0  0  0  0  0  0  0  0
  153.1264  135.5725  188.5339 C   0  0  0  0  0  0  0  0  0  0  0  0
  152.3635  136.1749  187.4726 N   0  0  0  0  0  0  0  0  0  0  0  0
  150.9454  136.1084  187.4998 C   0  0  0  0  0  0  0  0  0  0  0  0
  150.3806  135.8020  188.8731 C   0  0  0  0  0  0  0  0  0  0  0  0
  151.1471  134.9868  191.9623 C   0  0  0  0  0  0  0  0  0  0  0  0
  150.6820  134.4750  193.1786 C   0  0  0  0  0  0  0  0  0  0  0  0
  149.8559  133.3794  193.2661 C   0  0  0  0  0  0  0  0  0  0  0  0
  149.4678  132.7567  192.1050 C   0  0  0  0  0  0  0  0  0  0  0  0
  149.8879  133.2104  190.9026 C   0  0  0  0  0  0  0  0  0  0  0  0
  150.7353  134.3364  190.8317 C   0  0  0  0  0  0  0  0  0  0  0  0
  151.4777  137.2480  192.9187 C   0  0  0  0  0  0  0  0  0  0  0  0
  152.0420  136.1490  191.9931 C   0  0  0  0  0  0  0  0  0  0  0  0
  153.4581  135.8439  192.3397 C   0  0  0  0  0  0  0  0  0  0  0  0
  155.3443  139.3769  184.1896 C   0  0  0  0  0  0  0  0  0  0  0  0
  154.7505  140.3585  183.7581 O   0  0  0  0  0  0  0  0  0  0  0  0
  156.7181  139.1659  184.0794 N   0  0  0  0  0  0  0  0  0  0  0  0
  157.1395  138.2488  184.5045 H   0  0  0  0  0  0  0  0  0  0  0  0
  157.6792  139.9988  183.4799 C   0  0  0  0  0  0  0  0  0  0  0  0
  158.8260  140.3553  184.2019 C   0  0  0  0  0  0  0  0  0  0  0  0
  159.7585  141.1739  183.6322 C   0  0  0  0  0  0  0  0  0  0  0  0
  159.6257  141.6766  182.3585 C   0  0  0  0  0  0  0  0  0  0  0  0
  158.5255  141.3448  181.6441 C   0  0  0  0  0  0  0  0  0  0  0  0
  158.2390  141.9812  179.8768 Br  0  0  0  0  0  0  0  0  0  0  0  0
  157.5698  140.5131  182.2128 C   0  0  0  0  0  0  0  0  0  0  0  0
 18 19  1  0  0  0
 19 20  1  0  0  0
 19 12  1  0  0  0
 12 13  2  0  0  0
 13 14  1  0  0  0
 14 15  2  0  0  0
 15 16  1  0  0  0
 16 17  2  0  0  0
 17  6  1  0  0  0
  6  7  1  0  0  0
  7  8  1  0  0  0
  8  9  1  0  0  0
  9 10  1  0  0  0
 10 11  1  0  0  0
  9  1  1  0  0  0
  1  2  2  0  0  0
  2  3  1  0  0  0
  3  4  2  0  0  0
  4  5  1  0  0  0
  4 21  1  0  0  0
 21 22  2  0  0  0
 21 23  1  0  0  0
 23 25  1  0  0  0
 25 26  2  0  0  0
 26 27  1  0  0  0
 27 28  2  0  0  0
 28 29  1  0  0  0
 29 30  1  0  0  0
 29 31  2  0  0  0
 17 12  1  0  0  0
 11  6  1  0  0  0
  5  1  1  0  0  0
 31 25  1  0  0  0
 23 24  1  0  0  0
M  END
> <minimizedAffinity>
-6.34560

> <CNNscore>
0.3602534235

> <CNNaffinity>
5.7772073746

> <CNN_VS>
2.0812587738

> <CNNaffinity_variance>
0.1977671683

$$$$
[H]c1nc(N2C([H])([H])C([H])([H])N(c3c([H])c([H])c([H])c([H])c3C([H])(C([H])([H])[H])C([H])([H])[H])C([H])([H])C2([H])[H])sc1C(=O)N([H])c1c([H])c([H])c([H])c(Br)c1[H]


 31 34  0  0  0  0  0  0  0  0999 V2000
  155.0497  138.2255  185.8903 C   0  0  0  0  0  0  0  0  0  0  0  0
  154.0181  138.5898  185.1586 N   0  0  0  0  0  0  0  0  0  0  0  0
  154.1604  139.4425  184.1978 C   0  0  0  0  0  0  0  0  0  0  0  0
  155.4124  139.9484  183.9713 C   0  0  0  0  0  0  0  0  0  0  0  0
  156.3262  139.1515  185.1770 S   0  0  0  0  0  0  0  0  0  0  0  0
  155.1842  135.3759  188.9883 N   0  0  0  0  0  0  0  0  0  0  0  0
  154.2619  135.2892  187.8977 C   0  0  0  0  0  0  0  0  0  0  0  0
  154.9799  135.9084  186.7002 C   0  0  0  0  0  0  0  0  0  0  0  0
  155.1255  137.3104  186.9907 N   0  0  0  0  0  0  0  0  0  0  0  0
  155.3376  137.7336  188.3294 C   0  0  0  0  0  0  0  0  0  0  0  0
  155.8358  136.6292  189.2409 C   0  0  0  0  0  0  0  0  0  0  0  0
  156.6497  133.6010  189.6522 C   0  0  0  0  0  0  0  0  0  0  0  0
  156.8631  132.5036  190.4936 C   0  0  0  0  0  0  0  0  0  0  0  0
  155.9404  132.0754  191.4187 C   0  0  0  0  0  0  0  0  0  0  0  0
  154.7521  132.7563  191.5228 C   0  0  0  0  0  0  0  0  0  0  0  0
  154.4947  133.8239  190.7342 C   0  0  0  0  0  0  0  0  0  0  0  0
  155.4534  134.2497  189.7905 C   0  0  0  0  0  0  0  0  0  0  0  0
  159.0983  133.7153  189.2937 C   0  0  0  0  0  0  0  0  0  0  0  0
  157.6982  133.9530  188.6884 C   0  0  0  0  0  0  0  0  0  0  0  0
  157.5794  133.2912  187.3593 C   0  0  0  0  0  0  0  0  0  0  0  0
  155.8550  140.9269  182.9528 C   0  0  0  0  0  0  0  0  0  0  0  0
  154.9738  141.6106  182.4443 O   0  0  0  0  0  0  0  0  0  0  0  0
  157.2105  141.0132  182.6380 N   0  0  0  0  0  0  0  0  0  0  0  0
  157.9090  140.3496  183.1587 H   0  0  0  0  0  0  0  0  0  0  0  0
  157.8344  141.8688  181.7130 C   0  0  0  0  0  0  0  0  0  0  0  0
  158.0414  141.4272  180.3994 C   0  0  0  0  0  0  0  0  0  0  0  0
  158.6578  142.2467  179.4978 C   0  0  0  0  0  0  0  0  0  0  0  0
  159.0948  143.5104  179.8214 C   0  0  0  0  0  0  0  0  0  0  0  0
  158.9050  143.9563  181.0847 C   0  0  0  0  0  0  0  0  0  0  0  0
  159.4680  145.6836  181.6415 Br  0  0  0  0  0  0  0  0  0  0  0  0
  158.2794  143.1319  182.0108 C   0  0  0  0  0  0  0  0  0  0  0  0
 18 19  1  0  0  0
 19 20  1  0  0  0
 19 12  1  0  0  0
 12 13  2  0  0  0
 13 14  1  0  0  0
 14 15  2  0  0  0
 15 16  1  0  0  0
 16 17  2  0  0  0
 17  6  1  0  0  0
  6  7  1  0  0  0
  7  8  1  0  0  0
  8  9  1  0  0  0
  9 10  1  0  0  0
 10 11  1  0  0  0
  9  1  1  0  0  0
  1  2  2  0  0  0
  2  3  1  0  0  0
  3  4  2  0  0  0
  4  5  1  0  0  0
  4 21  1  0  0  0
 21 22  2  0  0  0
 21 23  1  0  0  0
 23 25  1  0  0  0
 25 26  2  0  0  0
 26 27  1  0  0  0
 27 28  2  0  0  0
 28 29  1  0  0  0
 29 30  1  0  0  0
 29 31  2  0  0  0
 17 12  1  0  0  0
 11  6  1  0  0  0
  5  1  1  0  0  0
 31 25  1  0  0  0
 23 24  1  0  0  0
M  END
> <minimizedAffinity>
-6.52101

> <CNNscore>
0.3601303995

> <CNNaffinity>
5.9655084610

> <CNN_VS>
2.1483609676

> <CNNaffinity_variance>
0.0452093706

$$$$
[H]c1nc(N2C([H])([H])C([H])([H])N(c3c([H])c([H])c([H])c([H])c3C([H])(C([H])([H])[H])C([H])([H])[H])C([H])([H])C2([H])[H])sc1C(=O)N([H])c1c([H])c([H])c([H])c(Br)c1[H]


 31 34  0  0  0  0  0  0  0  0999 V2000
  154.4175  136.8198  187.3257 C   0  0  0  0  0  0  0  0  0  0  0  0
  153.9641  136.8352  186.0902 N   0  0  0  0  0  0  0  0  0  0  0  0
  154.4519  137.6569  185.2199 C   0  0  0  0  0  0  0  0  0  0  0  0
  155.4484  138.5031  185.6269 C   0  0  0  0  0  0  0  0  0  0  0  0
  155.6267  138.0567  187.2678 S   0  0  0  0  0  0  0  0  0  0  0  0
  153.4299  134.5522  190.7344 N   0  0  0  0  0  0  0  0  0  0  0  0
  154.6938  135.2052  190.5799 C   0  0  0  0  0  0  0  0  0  0  0  0
  154.4118  136.4592  189.7547 C   0  0  0  0  0  0  0  0  0  0  0  0
  154.0312  136.0082  188.4421 N   0  0  0  0  0  0  0  0  0  0  0  0
  153.2985  134.8006  188.2977 C   0  0  0  0  0  0  0  0  0  0  0  0
  152.6106  134.3545  189.5730 C   0  0  0  0  0  0  0  0  0  0  0  0
  152.2386  134.9626  192.7717 C   0  0  0  0  0  0  0  0  0  0  0  0
  151.8222  134.4663  194.0119 C   0  0  0  0  0  0  0  0  0  0  0  0
  152.1408  133.2071  194.4628 C   0  0  0  0  0  0  0  0  0  0  0  0
  152.9042  132.3967  193.6585 C   0  0  0  0  0  0  0  0  0  0  0  0
  153.3329  132.8264  192.4504 C   0  0  0  0  0  0  0  0  0  0  0  0
  152.9960  134.1218  192.0035 C   0  0  0  0  0  0  0  0  0  0  0  0
  150.4242  136.3602  191.8273 C   0  0  0  0  0  0  0  0  0  0  0  0
  151.8553  136.3306  192.4055 C   0  0  0  0  0  0  0  0  0  0  0  0
  152.0059  137.3386  193.4915 C   0  0  0  0  0  0  0  0  0  0  0  0
  156.1762  139.5318  184.8505 C   0  0  0  0  0  0  0  0  0  0  0  0
  157.3929  139.5564  184.9971 O   0  0  0  0  0  0  0  0  0  0  0  0
  155.4573  140.3906  184.0201 N   0  0  0  0  0  0  0  0  0  0  0  0
  154.3695  140.2750  183.9685 H   0  0  0  0  0  0  0  0  0  0  0  0
  155.9505  141.4229  183.2027 C   0  0  0  0  0  0  0  0  0  0  0  0
  155.5341  142.7408  183.4335 C   0  0  0  0  0  0  0  0  0  0  0  0
  155.9982  143.7478  182.6367 C   0  0  0  0  0  0  0  0  0  0  0  0
  156.8723  143.5287  181.5972 C   0  0  0  0  0  0  0  0  0  0  0  0
  157.2868  142.2632  181.3570 C   0  0  0  0  0  0  0  0  0  0  0  0
  158.4921  141.8453  179.9488 Br  0  0  0  0  0  0  0  0  0  0  0  0
  156.8215  141.2304  182.1604 C   0  0  0  0  0  0  0  0  0  0  0  0
 18 19  1  0  0  0
 19 20  1  0  0  0
 19 12  1  0  0  0
 12 13  2  0  0  0
 13 14  1  0  0  0
 14 15  2  0  0  0
 15 16  1  0  0  0
 16 17  2  0  0  0
 17  6  1  0  0  0
  6  7  1  0  0  0
  7  8  1  0  0  0
  8  9  1  0  0  0
  9 10  1  0  0  0
 10 11  1  0  0  0
  9  1  1  0  0  0
  1  2  2  0  0  0
  2  3  1  0  0  0
  3  4  2  0  0  0
  4  5  1  0  0  0
  4 21  1  0  0  0
 21 22  2  0  0  0
 21 23  1  0  0  0
 23 25  1  0  0  0
 25 26  2  0  0  0
 26 27  1  0  0  0
 27 28  2  0  0  0
 28 29  1  0  0  0
 29 30  1  0  0  0
 29 31  2  0  0  0
 17 12  1  0  0  0
 11  6  1  0  0  0
  5  1  1  0  0  0
 31 25  1  0  0  0
 23 24  1  0  0  0
M  END
> <minimizedAffinity>
-7.10153

> <CNNscore>
0.3384771347

> <CNNaffinity>
5.7542648315

> <CNN_VS>
1.9476870298

> <CNNaffinity_variance>
0.0872752443

$$$$
[H]c1nc(N2C([H])([H])C([H])([H])N(c3c([H])c([H])c([H])c([H])c3C([H])(C([H])([H])[H])C([H])([H])[H])C([H])([H])C2([H])[H])sc1C(=O)N([H])c1c([H])c([H])c([H])c(Br)c1[H]


 31 34  0  0  0  0  0  0  0  0999 V2000
  154.0997  136.8978  187.2860 C   0  0  0  0  0  0  0  0  0  0  0  0
  153.5011  137.0161  186.1197 N   0  0  0  0  0  0  0  0  0  0  0  0
  153.9712  137.8115  185.2159 C   0  0  0  0  0  0  0  0  0  0  0  0
  155.1042  138.5202  185.5137 C   0  0  0  0  0  0  0  0  0  0  0  0
  155.4309  137.9891  187.1058 S   0  0  0  0  0  0  0  0  0  0  0  0
  153.2593  134.6430  190.7422 N   0  0  0  0  0  0  0  0  0  0  0  0
  154.5170  135.2914  190.5291 C   0  0  0  0  0  0  0  0  0  0  0  0
  154.2022  136.5440  189.7138 C   0  0  0  0  0  0  0  0  0  0  0  0
  153.7615  136.0907  188.4210 N   0  0  0  0  0  0  0  0  0  0  0  0
  153.0191  134.8851  188.3132 C   0  0  0  0  0  0  0  0  0  0  0  0
  152.3879  134.4449  189.6196 C   0  0  0  0  0  0  0  0  0  0  0  0
  152.1548  135.0599  192.8267 C   0  0  0  0  0  0  0  0  0  0  0  0
  151.7936  134.5685  194.0860 C   0  0  0  0  0  0  0  0  0  0  0  0
  152.1355  133.3126  194.5289 C   0  0  0  0  0  0  0  0  0  0  0  0
  152.8666  132.5006  193.6966 C   0  0  0  0  0  0  0  0  0  0  0  0
  153.2417  132.9256  192.4692 C   0  0  0  0  0  0  0  0  0  0  0  0
  152.8816  134.2176  192.0309 C   0  0  0  0  0  0  0  0  0  0  0  0
  150.2773  136.4567  192.0137 C   0  0  0  0  0  0  0  0  0  0  0  0
  151.7516  136.4247  192.4705 C   0  0  0  0  0  0  0  0  0  0  0  0
  151.9995  137.4492  193.5229 C   0  0  0  0  0  0  0  0  0  0  0  0
  155.8471  139.4898  184.6776 C   0  0  0  0  0  0  0  0  0  0  0  0
  155.1649  140.2618  184.0136 O   0  0  0  0  0  0  0  0  0  0  0  0
  157.2411  139.4706  184.6920 N   0  0  0  0  0  0  0  0  0  0  0  0
  157.7450  138.7337  185.3264 H   0  0  0  0  0  0  0  0  0  0  0  0
  158.1283  140.2993  183.9827 C   0  0  0  0  0  0  0  0  0  0  0  0
  158.2872  140.1144  182.6029 C   0  0  0  0  0  0  0  0  0  0  0  0
  159.1560  140.9063  181.9083 C   0  0  0  0  0  0  0  0  0  0  0  0
  159.8984  141.8972  182.5079 C   0  0  0  0  0  0  0  0  0  0  0  0
  159.7602  142.0923  183.8397 C   0  0  0  0  0  0  0  0  0  0  0  0
  160.7351  143.4314  184.7709 Br  0  0  0  0  0  0  0  0  0  0  0  0
  158.8798  141.2930  184.5571 C   0  0  0  0  0  0  0  0  0  0  0  0
 18 19  1  0  0  0
 19 20  1  0  0  0
 19 12  1  0  0  0
 12 13  2  0  0  0
 13 14  1  0  0  0
 14 15  2  0  0  0
 15 16  1  0  0  0
 16 17  2  0  0  0
 17  6  1  0  0  0
  6  7  1  0  0  0
  7  8  1  0  0  0
  8  9  1  0  0  0
  9 10  1  0  0  0
 10 11  1  0  0  0
  9  1  1  0  0  0
  1  2  2  0  0  0
  2  3  1  0  0  0
  3  4  2  0  0  0
  4  5  1  0  0  0
  4 21  1  0  0  0
 21 22  2  0  0  0
 21 23  1  0  0  0
 23 25  1  0  0  0
 25 26  2  0  0  0
 26 27  1  0  0  0
 27 28  2  0  0  0
 28 29  1  0  0  0
 29 30  1  0  0  0
 29 31  2  0  0  0
 17 12  1  0  0  0
 11  6  1  0  0  0
  5  1  1  0  0  0
 31 25  1  0  0  0
 23 24  1  0  0  0
M  END
> <minimizedAffinity>
-7.06135

> <CNNscore>
0.3180188239

> <CNNaffinity>
5.8260927200

> <CNN_VS>
1.8528071642

> <CNNaffinity_variance>
0.0569677241

$$$$
[H]c1nc(N2C([H])([H])C([H])([H])N(c3c([H])c([H])c([H])c([H])c3C([H])(C([H])([H])[H])C([H])([H])[H])C([H])([H])C2([H])[H])sc1C(=O)N([H])c1c([H])c([H])c([H])c(Br)c1[H]


 31 34  0  0  0  0  0  0  0  0999 V2000
  154.3032  138.0925  186.6052 C   0  0  0  0  0  0  0  0  0  0  0  0
  153.7563  138.6347  185.5378 N   0  0  0  0  0  0  0  0  0  0  0  0
  154.4846  139.2509  184.6657 C   0  0  0  0  0  0  0  0  0  0  0  0
  155.8334  139.3185  184.8912 C   0  0  0  0  0  0  0  0  0  0  0  0
  155.9749  138.4753  186.3720 S   0  0  0  0  0  0  0  0  0  0  0  0
  152.6707  136.0897  189.9308 N   0  0  0  0  0  0  0  0  0  0  0  0
  153.9962  136.6286  189.9272 C   0  0  0  0  0  0  0  0  0  0  0  0
  153.9391  137.8578  189.0223 C   0  0  0  0  0  0  0  0  0  0  0  0
  153.7005  137.3731  187.6884 N   0  0  0  0  0  0  0  0  0  0  0  0
  152.8907  136.2235  187.4916 C   0  0  0  0  0  0  0  0  0  0  0  0
  152.0010  135.9006  188.6760 C   0  0  0  0  0  0  0  0  0  0  0  0
  152.1372  134.4869  191.6294 C   0  0  0  0  0  0  0  0  0  0  0  0
  151.4999  134.2324  192.8487 C   0  0  0  0  0  0  0  0  0  0  0  0
  150.7998  135.1893  193.5449 C   0  0  0  0  0  0  0  0  0  0  0  0
  150.7214  136.4559  193.0194 C   0  0  0  0  0  0  0  0  0  0  0  0
  151.3191  136.7560  191.8444 C   0  0  0  0  0  0  0  0  0  0  0  0
  152.0339  135.7614  191.1436 C   0  0  0  0  0  0  0  0  0  0  0  0
  154.2366  133.1724  191.5845 C   0  0  0  0  0  0  0  0  0  0  0  0
  152.8375  133.3814  190.9662 C   0  0  0  0  0  0  0  0  0  0  0  0
  152.0848  132.0970  190.9198 C   0  0  0  0  0  0  0  0  0  0  0  0
  156.8877  139.9547  184.0699 C   0  0  0  0  0  0  0  0  0  0  0  0
  158.0411  139.6321  184.3304 O   0  0  0  0  0  0  0  0  0  0  0  0
  156.5198  140.8593  183.0748 N   0  0  0  0  0  0  0  0  0  0  0  0
  155.4549  141.0711  182.9318 H   0  0  0  0  0  0  0  0  0  0  0  0
  157.3549  141.5636  182.1896 C   0  0  0  0  0  0  0  0  0  0  0  0
  157.7621  140.9527  180.9960 C   0  0  0  0  0  0  0  0  0  0  0  0
  158.5833  141.6245  180.1365 C   0  0  0  0  0  0  0  0  0  0  0  0
  159.0402  142.8973  180.3890 C   0  0  0  0  0  0  0  0  0  0  0  0
  158.6591  143.5053  181.5361 C   0  0  0  0  0  0  0  0  0  0  0  0
  159.2297  145.2609  181.9866 Br  0  0  0  0  0  0  0  0  0  0  0  0
  157.8243  142.8322  182.4185 C   0  0  0  0  0  0  0  0  0  0  0  0
 18 19  1  0  0  0
 19 20  1  0  0  0
 19 12  1  0  0  0
 12 13  2  0  0  0
 13 14  1  0  0  0
 14 15  2  0  0  0
 15 16  1  0  0  0
 16 17  2  0  0  0
 17  6  1  0  0  0
  6  7  1  0  0  0
  7  8  1  0  0  0
  8  9  1  0  0  0
  9 10  1  0  0  0
 10 11  1  0  0  0
  9  1  1  0  0  0
  1  2  2  0  0  0
  2  3  1  0  0  0
  3  4  2  0  0  0
  4  5  1  0  0  0
  4 21  1  0  0  0
 21 22  2  0  0  0
 21 23  1  0  0  0
 23 25  1  0  0  0
 25 26  2  0  0  0
 26 27  1  0  0  0
 27 28  2  0  0  0
 28 29  1  0  0  0
 29 30  1  0  0  0
 29 31  2  0  0  0
 17 12  1  0  0  0
 11  6  1  0  0  0
  5  1  1  0  0  0
 31 25  1  0  0  0
 23 24  1  0  0  0
M  END
> <minimizedAffinity>
-6.66829

> <CNNscore>
0.3066858947

> <CNNaffinity>
5.8695740700

> <CNN_VS>
1.8001155853

> <CNNaffinity_variance>
0.0966967121

$$$$
[H]c1nc(N2C([H])([H])C([H])([H])N(c3c([H])c([H])c([H])c([H])c3C([H])(C([H])([H])[H])C([H])([H])[H])C([H])([H])C2([H])[H])sc1C(=O)N([H])c1c([H])c([H])c([H])c(Br)c1[H]


 31 34  0  0  0  0  0  0  0  0999 V2000
  152.9859  137.3199  186.5979 C   0  0  0  0  0  0  0  0  0  0  0  0
  152.7107  137.4408  185.3165 N   0  0  0  0  0  0  0  0  0  0  0  0
  153.4858  138.1217  184.5379 C   0  0  0  0  0  0  0  0  0  0  0  0
  154.5934  138.7073  185.0901 C   0  0  0  0  0  0  0  0  0  0  0  0
  154.4501  138.2338  186.7269 S   0  0  0  0  0  0  0  0  0  0  0  0
  151.0947  135.3007  189.7732 N   0  0  0  0  0  0  0  0  0  0  0  0
  152.5170  135.3427  189.6217 C   0  0  0  0  0  0  0  0  0  0  0  0
  152.8222  136.6875  188.9651 C   0  0  0  0  0  0  0  0  0  0  0  0
  152.2796  136.6252  187.6335 N   0  0  0  0  0  0  0  0  0  0  0  0
  151.0857  135.8950  187.3934 C   0  0  0  0  0  0  0  0  0  0  0  0
  150.2721  135.6373  188.6466 C   0  0  0  0  0  0  0  0  0  0  0  0
  150.0996  133.6576  191.2045 C   0  0  0  0  0  0  0  0  0  0  0  0
  149.5533  133.3657  192.4591 C   0  0  0  0  0  0  0  0  0  0  0  0
  149.4271  134.3003  193.4596 C   0  0  0  0  0  0  0  0  0  0  0  0
  149.8574  135.5820  193.2174 C   0  0  0  0  0  0  0  0  0  0  0  0
  150.3934  135.9179  192.0225 C   0  0  0  0  0  0  0  0  0  0  0  0
  150.5155  134.9456  191.0071 C   0  0  0  0  0  0  0  0  0  0  0  0
  151.0384  131.4178  190.7157 C   0  0  0  0  0  0  0  0  0  0  0  0
  150.1642  132.5840  190.2068 C   0  0  0  0  0  0  0  0  0  0  0  0
  148.8434  132.0846  189.7330 C   0  0  0  0  0  0  0  0  0  0  0  0
  155.6366  139.5323  184.4405 C   0  0  0  0  0  0  0  0  0  0  0  0
  155.2883  140.1529  183.4425 O   0  0  0  0  0  0  0  0  0  0  0  0
  156.9199  139.5563  184.9849 N   0  0  0  0  0  0  0  0  0  0  0  0
  157.1159  138.9599  185.8822 H   0  0  0  0  0  0  0  0  0  0  0  0
  158.0429  140.2698  184.5300 C   0  0  0  0  0  0  0  0  0  0  0  0
  158.4686  140.1093  183.2047 C   0  0  0  0  0  0  0  0  0  0  0  0
  159.5656  140.7886  182.7580 C   0  0  0  0  0  0  0  0  0  0  0  0
  160.2887  141.6403  183.5607 C   0  0  0  0  0  0  0  0  0  0  0  0
  159.8947  141.8095  184.8441 C   0  0  0  0  0  0  0  0  0  0  0  0
  160.8184  142.9606  186.0409 Br  0  0  0  0  0  0  0  0  0  0  0  0
  158.7806  141.1238  185.3101 C   0  0  0  0  0  0  0  0  0  0  0  0
 18 19  1  0  0  0
 19 20  1  0  0  0
 19 12  1  0  0  0
 12 13  2  0  0  0
 13 14  1  0  0  0
 14 15  2  0  0  0
 15 16  1  0  0  0
 16 17  2  0  0  0
 17  6  1  0  0  0
  6  7  1  0  0  0
  7  8  1  0  0  0
  8  9  1  0  0  0
  9 10  1  0  0  0
 10 11  1  0  0  0
  9  1  1  0  0  0
  1  2  2  0  0  0
  2  3  1  0  0  0
  3  4  2  0  0  0
  4  5  1  0  0  0
  4 21  1  0  0  0
 21 22  2  0  0  0
 21 23  1  0  0  0
 23 25  1  0  0  0
 25 26  2  0  0  0
 26 27  1  0  0  0
 27 28  2  0  0  0
 28 29  1  0  0  0
 29 30  1  0  0  0
 29 31  2  0  0  0
 17 12  1  0  0  0
 11  6  1  0  0  0
  5  1  1  0  0  0
 31 25  1  0  0  0
 23 24  1  0  0  0
M  END
> <minimizedAffinity>
-6.57882

> <CNNscore>
0.3037453592

> <CNNaffinity>
5.7041654587

> <CNN_VS>
1.7326138020

> <CNNaffinity_variance>
0.1584951133

$$$$
[H]c1nc(N2C([H])([H])C([H])([H])N(c3c([H])c([H])c([H])c([H])c3C([H])(C([H])([H])[H])C([H])([H])[H])C([H])([H])C2([H])[H])sc1C(=O)N([H])c1c([H])c([H])c([H])c(Br)c1[H]


 31 34  0  0  0  0  0  0  0  0999 V2000
  154.2072  138.1220  185.9976 C   0  0  0  0  0  0  0  0  0  0  0  0
  153.4018  138.1230  184.9565 N   0  0  0  0  0  0  0  0  0  0  0  0
  153.6963  138.8019  183.8968 C   0  0  0  0  0  0  0  0  0  0  0  0
  154.8660  139.5136  183.8971 C   0  0  0  0  0  0  0  0  0  0  0  0
  155.4831  139.1560  185.4512 S   0  0  0  0  0  0  0  0  0  0  0  0
  153.6529  136.0703  189.6334 N   0  0  0  0  0  0  0  0  0  0  0  0
  152.5648  136.4395  188.7805 C   0  0  0  0  0  0  0  0  0  0  0  0
  153.1206  136.3908  187.3586 C   0  0  0  0  0  0  0  0  0  0  0  0
  154.0854  137.4542  187.2598 N   0  0  0  0  0  0  0  0  0  0  0  0
  154.8710  137.7993  188.3911 C   0  0  0  0  0  0  0  0  0  0  0  0
  154.9229  136.7113  189.4458 C   0  0  0  0  0  0  0  0  0  0  0  0
  152.6102  135.3261  191.6577 C   0  0  0  0  0  0  0  0  0  0  0  0
  152.4700  134.3033  192.6021 C   0  0  0  0  0  0  0  0  0  0  0  0
  153.1566  133.1143  192.5296 C   0  0  0  0  0  0  0  0  0  0  0  0
  154.0218  132.9199  191.4806 C   0  0  0  0  0  0  0  0  0  0  0  0
  154.1947  133.8755  190.5399 C   0  0  0  0  0  0  0  0  0  0  0  0
  153.4814  135.0897  190.6300 C   0  0  0  0  0  0  0  0  0  0  0  0
  150.3255  136.2699  191.8206 C   0  0  0  0  0  0  0  0  0  0  0  0
  151.8413  136.5607  191.8498 C   0  0  0  0  0  0  0  0  0  0  0  0
  152.2040  137.3458  193.0625 C   0  0  0  0  0  0  0  0  0  0  0  0
  155.4413  140.3668  182.8333 C   0  0  0  0  0  0  0  0  0  0  0  0
  154.6768  140.6933  181.9326 O   0  0  0  0  0  0  0  0  0  0  0  0
  156.7823  140.7402  182.9133 N   0  0  0  0  0  0  0  0  0  0  0  0
  157.3706  140.3878  183.7671 H   0  0  0  0  0  0  0  0  0  0  0  0
  157.5154  141.5411  182.0199 C   0  0  0  0  0  0  0  0  0  0  0  0
  157.8538  141.0316  180.7592 C   0  0  0  0  0  0  0  0  0  0  0  0
  158.5764  141.7977  179.8901 C   0  0  0  0  0  0  0  0  0  0  0  0
  158.9975  143.0710  180.1967 C   0  0  0  0  0  0  0  0  0  0  0  0
  158.6816  143.5820  181.4091 C   0  0  0  0  0  0  0  0  0  0  0  0
  159.2108  145.3286  181.9382 Br  0  0  0  0  0  0  0  0  0  0  0  0
  157.9472  142.8124  182.3018 C   0  0  0  0  0  0  0  0  0  0  0  0
 18 19  1  0  0  0
 19 20  1  0  0  0
 19 12  1  0  0  0
 12 13  2  0  0  0
 13 14  1  0  0  0
 14 15  2  0  0  0
 15 16  1  0  0  0
 16 17  2  0  0  0
 17  6  1  0  0  0
  6  7  1  0  0  0
  7  8  1  0  0  0
  8  9  1  0  0  0
  9 10  1  0  0  0
 10 11  1  0  0  0
  9  1  1  0  0  0
  1  2  2  0  0  0
  2  3  1  0  0  0
  3  4  2  0  0  0
  4  5  1  0  0  0
  4 21  1  0  0  0
 21 22  2  0  0  0
 21 23  1  0  0  0
 23 25  1  0  0  0
 25 26  2  0  0  0
 26 27  1  0  0  0
 27 28  2  0  0  0
 28 29  1  0  0  0
 29 30  1  0  0  0
 29 31  2  0  0  0
 17 12  1  0  0  0
 11  6  1  0  0  0
  5  1  1  0  0  0
 31 25  1  0  0  0
 23 24  1  0  0  0
M  END
> <minimizedAffinity>
-7.09269

> <CNNscore>
0.2934714556

> <CNNaffinity>
5.8318672180

> <CNN_VS>
1.7114865780

> <CNNaffinity_variance>
0.0927179530

$$$$
[H]C1=C(N([H])C(=O)C2(C(=O)N([H])c3c([H])c([H])c(Oc4c([H])c([H])nc5c([H])c(OC([H])([H])C([H])([H])C([H])([H])N6C([H])([H])C([H])([H])OC([H])([H])C6([H])[H])c(OC([H])([H])[H])c([H])c45)c(F)c3[H])C([H])([H])C2([H])[H])C(F)=C([H])C([H])(F)C1([H])[H]


 49 54  0  0  0  0  0  0  0  0999 V2000
  152.7781  139.2551  182.5864 C   0  0  0  0  0  0  0  0  0  0  0  0
  152.9277  140.3315  181.7179 C   0  0  0  0  0  0  0  0  0  0  0  0
  154.0089  141.1677  181.8278 C   0  0  0  0  0  0  0  0  0  0  0  0
  154.9995  140.9844  182.8023 C   0  0  0  0  0  0  0  0  0  0  0  0
  154.8295  139.9264  183.6366 C   0  0  0  0  0  0  0  0  0  0  0  0
  153.7306  139.0554  183.5436 C   0  0  0  0  0  0  0  0  0  0  0  0
  153.6480  137.9901  184.4115 F   0  0  0  0  0  0  0  0  0  0  0  0
  156.1073  141.8609  182.8330 N   0  0  0  0  0  0  0  0  0  0  0  0
  157.2398  141.7873  182.0277 C   0  0  0  0  0  0  0  0  0  0  0  0
  157.2936  140.8300  181.1534 O   0  0  0  0  0  0  0  0  0  0  0  0
  155.9918  142.6618  183.5259 H   0  0  0  0  0  0  0  0  0  0  0  0
  158.3919  142.7097  182.0711 C   0  0  0  0  0  0  0  0  0  0  0  0
  158.1862  143.9452  181.2282 C   0  0  0  0  0  0  0  0  0  0  0  0
  159.0687  142.8878  180.6939 C   0  0  0  0  0  0  0  0  0  0  0  0
  159.3630  142.7643  183.1591 C   0  0  0  0  0  0  0  0  0  0  0  0
  159.7444  143.9913  183.4381 O   0  0  0  0  0  0  0  0  0  0  0  0
  159.9605  141.8004  183.9417 N   0  0  0  0  0  0  0  0  0  0  0  0
  159.8326  140.7926  183.8305 H   0  0  0  0  0  0  0  0  0  0  0  0
  160.8969  142.1488  184.9905 C   0  0  0  0  0  0  0  0  0  0  0  0
  162.1869  142.1360  184.7430 C   0  0  0  0  0  0  0  0  0  0  0  0
  163.2461  142.4648  185.7047 C   0  0  0  0  0  0  0  0  0  0  0  0
  162.7940  142.8206  187.0819 C   0  0  0  0  0  0  0  0  0  0  0  0
  163.4363  142.0327  188.0427 F   0  0  0  0  0  0  0  0  0  0  0  0
  161.3393  142.8138  187.2843 C   0  0  0  0  0  0  0  0  0  0  0  0
  160.4642  142.5072  186.3321 C   0  0  0  0  0  0  0  0  0  0  0  0
  159.1289  142.5189  186.6088 F   0  0  0  0  0  0  0  0  0  0  0  0
  151.7032  138.4312  182.4651 O   0  0  0  0  0  0  0  0  0  0  0  0
  147.7850  138.3397  183.7486 C   0  0  0  0  0  0  0  0  0  0  0  0
  149.0652  138.3759  183.2793 C   0  0  0  0  0  0  0  0  0  0  0  0
  149.3709  138.5486  181.9463 C   0  0  0  0  0  0  0  0  0  0  0  0
  150.7111  138.5737  181.5278 C   0  0  0  0  0  0  0  0  0  0  0  0
  150.9512  138.7444  180.1864 C   0  0  0  0  0  0  0  0  0  0  0  0
  149.8577  138.8799  179.3487 C   0  0  0  0  0  0  0  0  0  0  0  0
  148.5923  138.8526  179.7779 N   0  0  0  0  0  0  0  0  0  0  0  0
  148.3117  138.6862  181.0869 C   0  0  0  0  0  0  0  0  0  0  0  0
  146.9998  138.6532  181.5389 C   0  0  0  0  0  0  0  0  0  0  0  0
  146.6986  138.4815  182.8671 C   0  0  0  0  0  0  0  0  0  0  0  0
  148.5802  137.6519  185.9102 C   0  0  0  0  0  0  0  0  0  0  0  0
  147.5437  138.1631  185.0974 O   0  0  0  0  0  0  0  0  0  0  0  0
  145.4423  138.4397  183.3967 O   0  0  0  0  0  0  0  0  0  0  0  0
  144.5350  137.4339  183.5848 C   0  0  0  0  0  0  0  0  0  0  0  0
  144.4016  136.9225  184.9808 C   0  0  0  0  0  0  0  0  0  0  0  0
  144.9105  135.4760  185.0824 C   0  0  0  0  0  0  0  0  0  0  0  0
  145.1149  135.2059  186.4947 N   0  0  0  0  0  0  0  0  0  0  0  0
  145.0897  136.4460  187.2695 C   0  0  0  0  0  0  0  0  0  0  0  0
  145.0188  136.0461  188.7301 C   0  0  0  0  0  0  0  0  0  0  0  0
  146.1035  135.2621  189.0668 O   0  0  0  0  0  0  0  0  0  0  0  0
  147.0154  135.1115  188.0488 C   0  0  0  0  0  0  0  0  0  0  0  0
  146.4023  134.5999  186.7625 C   0  0  0  0  0  0  0  0  0  0  0  0
 38 39  1  0  0  0
 39 28  1  0  0  0
 28 29  2  0  0  0
 29 30  1  0  0  0
 30 31  2  0  0  0
 31 27  1  0  0  0
 27  1  1  0  0  0
  1  2  2  0  0  0
  2  3  1  0  0  0
  3  4  2  0  0  0
  4  8  1  0  0  0
  8  9  1  0  0  0
  9 10  2  0  0  0
  9 12  1  0  0  0
 12 13  1  0  0  0
 13 14  1  0  0  0
 12 15  1  0  0  0
 15 16  2  0  0  0
 15 17  1  0  0  0
 17 19  1  0  0  0
 19 20  2  0  0  0
 20 21  1  0  0  0
 21 22  1  0  0  0
 22 23  1  0  0  0
 22 24  1  0  0  0
 24 25  2  0  0  0
 25 26  1  0  0  0
  4  5  1  0  0  0
  5  6  2  0  0  0
  6  7  1  0  0  0
 31 32  1  0  0  0
 32 33  2  0  0  0
 33 34  1  0  0  0
 34 35  2  0  0  0
 35 36  1  0  0  0
 36 37  2  0  0  0
 37 40  1  0  0  0
 40 41  1  0  0  0
 41 42  1  0  0  0
 42 43  1  0  0  0
 43 44  1  0  0  0
 44 45  1  0  0  0
 45 46  1  0  0  0
 46 47  1  0  0  0
 47 48  1  0  0  0
 48 49  1  0  0  0
 37 28  1  0  0  0
 49 44  1  0  0  0
 35 30  1  0  0  0
  6  1  1  0  0  0
 14 12  1  0  0  0
 25 19  1  0  0  0
  8 11  1  0  0  0
 17 18  1  0  0  0
M  END
> <minimizedAffinity>
-10.01658

> <CNNscore>
0.2480548173

> <CNNaffinity>
6.7186346054

> <CNN_VS>
1.6665897369

> <CNNaffinity_variance>
0.1317014098

$$$$
[H]C1=C(N([H])C(=O)C2(C(=O)N([H])c3c([H])c([H])c(Oc4c([H])c([H])nc5c([H])c(OC([H])([H])C([H])([H])C([H])([H])N6C([H])([H])C([H])([H])OC([H])([H])C6([H])[H])c(OC([H])([H])[H])c([H])c45)c(F)c3[H])C([H])([H])C2([H])[H])C(F)=C([H])C([H])(F)C1([H])[H]


 49 54  0  0  0  0  0  0  0  0999 V2000
  153.3028  137.6371  184.3249 C   0  0  0  0  0  0  0  0  0  0  0  0
  152.3138  137.2975  185.2425 C   0  0  0  0  0  0  0  0  0  0  0  0
  152.5061  137.5139  186.5829 C   0  0  0  0  0  0  0  0  0  0  0  0
  153.6861  138.0772  187.0873 C   0  0  0  0  0  0  0  0  0  0  0  0
  154.6347  138.3998  186.1705 C   0  0  0  0  0  0  0  0  0  0  0  0
  154.4610  138.1882  184.7921 C   0  0  0  0  0  0  0  0  0  0  0  0
  155.4617  138.5692  183.9271 F   0  0  0  0  0  0  0  0  0  0  0  0
  153.8009  138.3089  188.4764 N   0  0  0  0  0  0  0  0  0  0  0  0
  154.2398  137.3966  189.4312 C   0  0  0  0  0  0  0  0  0  0  0  0
  154.5884  136.2167  189.0187 O   0  0  0  0  0  0  0  0  0  0  0  0
  153.5580  139.3070  188.7586 H   0  0  0  0  0  0  0  0  0  0  0  0
  154.3537  137.6514  190.8811 C   0  0  0  0  0  0  0  0  0  0  0  0
  155.0571  138.9499  191.1950 C   0  0  0  0  0  0  0  0  0  0  0  0
  155.8192  137.6962  191.3680 C   0  0  0  0  0  0  0  0  0  0  0  0
  153.4686  137.0788  191.8902 C   0  0  0  0  0  0  0  0  0  0  0  0
  152.9105  137.9926  192.6534 O   0  0  0  0  0  0  0  0  0  0  0  0
  153.1069  135.7875  192.2069 N   0  0  0  0  0  0  0  0  0  0  0  0
  153.4839  134.9474  191.7635 H   0  0  0  0  0  0  0  0  0  0  0  0
  152.1678  135.5029  193.2724 C   0  0  0  0  0  0  0  0  0  0  0  0
  152.6030  135.0142  194.4114 C   0  0  0  0  0  0  0  0  0  0  0  0
  151.7701  134.6796  195.5730 C   0  0  0  0  0  0  0  0  0  0  0  0
  150.3030  134.9030  195.4141 C   0  0  0  0  0  0  0  0  0  0  0  0
  149.5807  133.7451  195.7208 F   0  0  0  0  0  0  0  0  0  0  0  0
  149.8904  135.4507  194.1152 C   0  0  0  0  0  0  0  0  0  0  0  0
  150.7379  135.7278  193.1296 C   0  0  0  0  0  0  0  0  0  0  0  0
  150.2677  136.2282  191.9514 F   0  0  0  0  0  0  0  0  0  0  0  0
  153.0989  137.4206  182.9980 O   0  0  0  0  0  0  0  0  0  0  0  0
  149.6259  136.0823  181.2219 C   0  0  0  0  0  0  0  0  0  0  0  0
  150.7690  136.5667  181.7867 C   0  0  0  0  0  0  0  0  0  0  0  0
  151.2420  137.8395  181.5492 C   0  0  0  0  0  0  0  0  0  0  0  0
  152.4284  138.2763  182.1605 C   0  0  0  0  0  0  0  0  0  0  0  0
  152.8505  139.5529  181.8810 C   0  0  0  0  0  0  0  0  0  0  0  0
  152.0770  140.3130  181.0209 C   0  0  0  0  0  0  0  0  0  0  0  0
  150.9507  139.8688  180.4547 N   0  0  0  0  0  0  0  0  0  0  0  0
  150.5007  138.6212  180.7014 C   0  0  0  0  0  0  0  0  0  0  0  0
  149.3338  138.1523  180.1139 C   0  0  0  0  0  0  0  0  0  0  0  0
  148.8652  136.8844  180.3527 C   0  0  0  0  0  0  0  0  0  0  0  0
  150.1071  133.9067  182.1236 C   0  0  0  0  0  0  0  0  0  0  0  0
  149.2041  134.7963  181.4995 O   0  0  0  0  0  0  0  0  0  0  0  0
  147.7304  136.3449  179.8217 O   0  0  0  0  0  0  0  0  0  0  0  0
  146.4555  136.8121  179.6583 C   0  0  0  0  0  0  0  0  0  0  0  0
  145.6196  136.8849  180.8929 C   0  0  0  0  0  0  0  0  0  0  0  0
  145.7614  138.2585  181.5670 C   0  0  0  0  0  0  0  0  0  0  0  0
  146.1725  138.0083  182.9372 N   0  0  0  0  0  0  0  0  0  0  0  0
  145.0808  138.2945  183.8674 C   0  0  0  0  0  0  0  0  0  0  0  0
  145.4981  137.7371  185.2140 C   0  0  0  0  0  0  0  0  0  0  0  0
  146.6799  138.3167  185.6286 O   0  0  0  0  0  0  0  0  0  0  0  0
  147.1373  139.3041  184.7881 C   0  0  0  0  0  0  0  0  0  0  0  0
  147.2731  138.8542  183.3490 C   0  0  0  0  0  0  0  0  0  0  0  0
 38 39  1  0  0  0
 39 28  1  0  0  0
 28 29  2  0  0  0
 29 30  1  0  0  0
 30 31  2  0  0  0
 31 27  1  0  0  0
 27  1  1  0  0  0
  1  2  2  0  0  0
  2  3  1  0  0  0
  3  4  2  0  0  0
  4  8  1  0  0  0
  8  9  1  0  0  0
  9 10  2  0  0  0
  9 12  1  0  0  0
 12 13  1  0  0  0
 13 14  1  0  0  0
 12 15  1  0  0  0
 15 16  2  0  0  0
 15 17  1  0  0  0
 17 19  1  0  0  0
 19 20  2  0  0  0
 20 21  1  0  0  0
 21 22  1  0  0  0
 22 23  1  0  0  0
 22 24  1  0  0  0
 24 25  2  0  0  0
 25 26  1  0  0  0
  4  5  1  0  0  0
  5  6  2  0  0  0
  6  7  1  0  0  0
 31 32  1  0  0  0
 32 33  2  0  0  0
 33 34  1  0  0  0
 34 35  2  0  0  0
 35 36  1  0  0  0
 36 37  2  0  0  0
 37 40  1  0  0  0
 40 41  1  0  0  0
 41 42  1  0  0  0
 42 43  1  0  0  0
 43 44  1  0  0  0
 44 45  1  0  0  0
 45 46  1  0  0  0
 46 47  1  0  0  0
 47 48  1  0  0  0
 48 49  1  0  0  0
 37 28  1  0  0  0
 49 44  1  0  0  0
 35 30  1  0  0  0
  6  1  1  0  0  0
 14 12  1  0  0  0
 25 19  1  0  0  0
  8 11  1  0  0  0
 17 18  1  0  0  0
M  END
> <minimizedAffinity>
-7.93769

> <CNNscore>
0.2393820435

> <CNNaffinity>
6.1804313660

> <CNN_VS>
1.4794843197

> <CNNaffinity_variance>
0.3549026251

$$$$
[H]C1=C(N([H])C(=O)C2(C(=O)N([H])c3c([H])c([H])c(Oc4c([H])c([H])nc5c([H])c(OC([H])([H])C([H])([H])C([H])([H])N6C([H])([H])C([H])([H])OC([H])([H])C6([H])[H])c(OC([H])([H])[H])c([H])c45)c(F)c3[H])C([H])([H])C2([H])[H])C(F)=C([H])C([H])(F)C1([H])[H]


 49 54  0  0  0  0  0  0  0  0999 V2000
  154.6366  136.7068  190.3161 C   0  0  0  0  0  0  0  0  0  0  0  0
  154.4344  138.0384  189.9678 C   0  0  0  0  0  0  0  0  0  0  0  0
  154.5362  138.4375  188.6598 C   0  0  0  0  0  0  0  0  0  0  0  0
  154.8434  137.5415  187.6267 C   0  0  0  0  0  0  0  0  0  0  0  0
  155.0354  136.2481  187.9939 C   0  0  0  0  0  0  0  0  0  0  0  0
  154.9362  135.8148  189.3270 C   0  0  0  0  0  0  0  0  0  0  0  0
  155.1185  134.4802  189.6104 F   0  0  0  0  0  0  0  0  0  0  0  0
  154.8932  138.0139  186.2961 N   0  0  0  0  0  0  0  0  0  0  0  0
  153.8042  138.2392  185.4596 C   0  0  0  0  0  0  0  0  0  0  0  0
  152.6210  138.0042  185.9378 O   0  0  0  0  0  0  0  0  0  0  0  0
  155.8798  138.2459  185.9679 H   0  0  0  0  0  0  0  0  0  0  0  0
  153.8703  138.7321  184.0694 C   0  0  0  0  0  0  0  0  0  0  0  0
  152.6137  138.4427  183.2841 C   0  0  0  0  0  0  0  0  0  0  0  0
  153.7957  137.5949  183.0265 C   0  0  0  0  0  0  0  0  0  0  0  0
  154.7357  139.8180  183.6206 C   0  0  0  0  0  0  0  0  0  0  0  0
  155.6553  140.1333  184.5060 O   0  0  0  0  0  0  0  0  0  0  0  0
  154.7810  140.5771  182.4715 N   0  0  0  0  0  0  0  0  0  0  0  0
  154.1120  140.5155  181.7014 H   0  0  0  0  0  0  0  0  0  0  0  0
  155.7870  141.6012  182.2786 C   0  0  0  0  0  0  0  0  0  0  0  0
  157.0068  141.2592  181.9311 C   0  0  0  0  0  0  0  0  0  0  0  0
  158.1227  142.1851  181.7020 C   0  0  0  0  0  0  0  0  0  0  0  0
  157.8263  143.6332  181.9085 C   0  0  0  0  0  0  0  0  0  0  0  0
  158.7351  144.2115  182.8007 F   0  0  0  0  0  0  0  0  0  0  0  0
  156.4430  143.9398  182.2957 C   0  0  0  0  0  0  0  0  0  0  0  0
  155.5036  143.0153  182.4673 C   0  0  0  0  0  0  0  0  0  0  0  0
  154.2444  143.3880  182.8349 F   0  0  0  0  0  0  0  0  0  0  0  0
  154.5297  136.3229  191.6161 O   0  0  0  0  0  0  0  0  0  0  0  0
  152.9409  132.5993  192.4020 C   0  0  0  0  0  0  0  0  0  0  0  0
  153.4292  133.8506  192.1649 C   0  0  0  0  0  0  0  0  0  0  0  0
  152.7972  134.9968  192.5970 C   0  0  0  0  0  0  0  0  0  0  0  0
  153.3517  136.2561  192.3169 C   0  0  0  0  0  0  0  0  0  0  0  0
  152.6729  137.3607  192.7701 C   0  0  0  0  0  0  0  0  0  0  0  0
  151.4963  137.1515  193.4685 C   0  0  0  0  0  0  0  0  0  0  0  0
  150.9939  135.9388  193.7202 N   0  0  0  0  0  0  0  0  0  0  0  0
  151.6280  134.8276  193.2926 C   0  0  0  0  0  0  0  0  0  0  0  0
  151.1099  133.5653  193.5474 C   0  0  0  0  0  0  0  0  0  0  0  0
  151.7420  132.4258  193.1161 C   0  0  0  0  0  0  0  0  0  0  0  0
  153.6794  131.2581  190.5490 C   0  0  0  0  0  0  0  0  0  0  0  0
  153.6215  131.4886  191.9417 O   0  0  0  0  0  0  0  0  0  0  0  0
  151.3064  131.1499  193.3239 O   0  0  0  0  0  0  0  0  0  0  0  0
  150.5187  130.5701  194.2797 C   0  0  0  0  0  0  0  0  0  0  0  0
  149.1799  130.0913  193.8255 C   0  0  0  0  0  0  0  0  0  0  0  0
  149.1452  129.9390  192.2968 C   0  0  0  0  0  0  0  0  0  0  0  0
  148.0287  130.7390  191.8249 N   0  0  0  0  0  0  0  0  0  0  0  0
  148.4792  132.0686  191.4151 C   0  0  0  0  0  0  0  0  0  0  0  0
  147.3210  132.7139  190.6800 C   0  0  0  0  0  0  0  0  0  0  0  0
  146.2126  132.7864  191.4991 O   0  0  0  0  0  0  0  0  0  0  0  0
  146.4436  132.3530  192.7833 C   0  0  0  0  0  0  0  0  0  0  0  0
  147.0318  130.9597  192.8516 C   0  0  0  0  0  0  0  0  0  0  0  0
 38 39  1  0  0  0
 39 28  1  0  0  0
 28 29  2  0  0  0
 29 30  1  0  0  0
 30 31  2  0  0  0
 31 27  1  0  0  0
 27  1  1  0  0  0
  1  2  2  0  0  0
  2  3  1  0  0  0
  3  4  2  0  0  0
  4  8  1  0  0  0
  8  9  1  0  0  0
  9 10  2  0  0  0
  9 12  1  0  0  0
 12 13  1  0  0  0
 13 14  1  0  0  0
 12 15  1  0  0  0
 15 16  2  0  0  0
 15 17  1  0  0  0
 17 19  1  0  0  0
 19 20  2  0  0  0
 20 21  1  0  0  0
 21 22  1  0  0  0
 22 23  1  0  0  0
 22 24  1  0  0  0
 24 25  2  0  0  0
 25 26  1  0  0  0
  4  5  1  0  0  0
  5  6  2  0  0  0
  6  7  1  0  0  0
 31 32  1  0  0  0
 32 33  2  0  0  0
 33 34  1  0  0  0
 34 35  2  0  0  0
 35 36  1  0  0  0
 36 37  2  0  0  0
 37 40  1  0  0  0
 40 41  1  0  0  0
 41 42  1  0  0  0
 42 43  1  0  0  0
 43 44  1  0  0  0
 44 45  1  0  0  0
 45 46  1  0  0  0
 46 47  1  0  0  0
 47 48  1  0  0  0
 48 49  1  0  0  0
 37 28  1  0  0  0
 49 44  1  0  0  0
 35 30  1  0  0  0
  6  1  1  0  0  0
 14 12  1  0  0  0
 25 19  1  0  0  0
  8 11  1  0  0  0
 17 18  1  0  0  0
M  END
> <minimizedAffinity>
-6.64033

> <CNNscore>
0.2274840921

> <CNNaffinity>
6.3188891411

> <CNN_VS>
1.4374467134

> <CNNaffinity_variance>
0.1296907663

$$$$
[H]C1=C(N([H])C(=O)C2(C(=O)N([H])c3c([H])c([H])c(Oc4c([H])c([H])nc5c([H])c(OC([H])([H])C([H])([H])C([H])([H])N6C([H])([H])C([H])([H])OC([H])([H])C6([H])[H])c(OC([H])([H])[H])c([H])c45)c(F)c3[H])C([H])([H])C2([H])[H])C(F)=C([H])C([H])(F)C1([H])[H]


 49 54  0  0  0  0  0  0  0  0999 V2000
  153.3240  137.9094  184.3036 C   0  0  0  0  0  0  0  0  0  0  0  0
  152.3431  137.6283  185.2493 C   0  0  0  0  0  0  0  0  0  0  0  0
  152.6004  137.7906  186.5863 C   0  0  0  0  0  0  0  0  0  0  0  0
  153.8410  138.2392  187.0597 C   0  0  0  0  0  0  0  0  0  0  0  0
  154.7803  138.5067  186.1159 C   0  0  0  0  0  0  0  0  0  0  0  0
  154.5405  138.3487  184.7403 C   0  0  0  0  0  0  0  0  0  0  0  0
  155.5384  138.6686  183.8478 F   0  0  0  0  0  0  0  0  0  0  0  0
  154.0242  138.4218  188.4487 N   0  0  0  0  0  0  0  0  0  0  0  0
  154.0983  137.4183  189.4099 C   0  0  0  0  0  0  0  0  0  0  0  0
  153.9988  136.1897  189.0041 O   0  0  0  0  0  0  0  0  0  0  0  0
  154.1572  139.4419  188.7257 H   0  0  0  0  0  0  0  0  0  0  0  0
  154.2887  137.6231  190.8596 C   0  0  0  0  0  0  0  0  0  0  0  0
  155.0544  138.8848  191.1782 C   0  0  0  0  0  0  0  0  0  0  0  0
  155.7758  137.5994  191.2776 C   0  0  0  0  0  0  0  0  0  0  0  0
  153.4303  137.0517  191.8922 C   0  0  0  0  0  0  0  0  0  0  0  0
  152.9706  137.9564  192.7283 O   0  0  0  0  0  0  0  0  0  0  0  0
  153.0125  135.7684  192.1702 N   0  0  0  0  0  0  0  0  0  0  0  0
  153.3141  134.9315  191.6671 H   0  0  0  0  0  0  0  0  0  0  0  0
  152.1202  135.4844  193.2754 C   0  0  0  0  0  0  0  0  0  0  0  0
  152.6001  134.9707  194.3851 C   0  0  0  0  0  0  0  0  0  0  0  0
  151.8177  134.6333  195.5804 C   0  0  0  0  0  0  0  0  0  0  0  0
  150.3491  134.8852  195.4954 C   0  0  0  0  0  0  0  0  0  0  0  0
  149.6209  133.7358  195.8197 F   0  0  0  0  0  0  0  0  0  0  0  0
  149.8851  135.4598  194.2258 C   0  0  0  0  0  0  0  0  0  0  0  0
  150.6895  135.7369  193.2047 C   0  0  0  0  0  0  0  0  0  0  0  0
  150.1729  136.2635  192.0578 F   0  0  0  0  0  0  0  0  0  0  0  0
  153.0555  137.7475  182.9805 O   0  0  0  0  0  0  0  0  0  0  0  0
  153.6112  133.9533  181.4630 C   0  0  0  0  0  0  0  0  0  0  0  0
  153.3809  135.2049  181.9540 C   0  0  0  0  0  0  0  0  0  0  0  0
  152.1327  135.7895  181.9622 C   0  0  0  0  0  0  0  0  0  0  0  0
  151.9636  137.0838  182.4801 C   0  0  0  0  0  0  0  0  0  0  0  0
  150.6968  137.6136  182.4564 C   0  0  0  0  0  0  0  0  0  0  0  0
  149.6830  136.8345  181.9264 C   0  0  0  0  0  0  0  0  0  0  0  0
  149.8755  135.6041  181.4413 N   0  0  0  0  0  0  0  0  0  0  0  0
  151.1036  135.0461  181.4445 C   0  0  0  0  0  0  0  0  0  0  0  0
  151.3113  133.7702  180.9389 C   0  0  0  0  0  0  0  0  0  0  0  0
  152.5555  133.1906  180.9325 C   0  0  0  0  0  0  0  0  0  0  0  0
  155.7776  133.7608  180.4395 C   0  0  0  0  0  0  0  0  0  0  0  0
  154.8866  133.4225  181.4826 O   0  0  0  0  0  0  0  0  0  0  0  0
  152.8481  131.9451  180.4595 O   0  0  0  0  0  0  0  0  0  0  0  0
  152.9540  131.4188  179.2018 C   0  0  0  0  0  0  0  0  0  0  0  0
  152.9177  132.3975  178.0752 C   0  0  0  0  0  0  0  0  0  0  0  0
  151.5381  132.3988  177.3984 C   0  0  0  0  0  0  0  0  0  0  0  0
  151.7666  132.1330  175.9891 N   0  0  0  0  0  0  0  0  0  0  0  0
  152.8291  132.9902  175.4646 C   0  0  0  0  0  0  0  0  0  0  0  0
  153.1898  132.4489  174.0952 C   0  0  0  0  0  0  0  0  0  0  0  0
  152.0836  132.4536  173.2701 O   0  0  0  0  0  0  0  0  0  0  0  0
  150.9687  133.0203  173.8415 C   0  0  0  0  0  0  0  0  0  0  0  0
  150.6003  132.4092  175.1767 C   0  0  0  0  0  0  0  0  0  0  0  0
 38 39  1  0  0  0
 39 28  1  0  0  0
 28 29  2  0  0  0
 29 30  1  0  0  0
 30 31  2  0  0  0
 31 27  1  0  0  0
 27  1  1  0  0  0
  1  2  2  0  0  0
  2  3  1  0  0  0
  3  4  2  0  0  0
  4  8  1  0  0  0
  8  9  1  0  0  0
  9 10  2  0  0  0
  9 12  1  0  0  0
 12 13  1  0  0  0
 13 14  1  0  0  0
 12 15  1  0  0  0
 15 16  2  0  0  0
 15 17  1  0  0  0
 17 19  1  0  0  0
 19 20  2  0  0  0
 20 21  1  0  0  0
 21 22  1  0  0  0
 22 23  1  0  0  0
 22 24  1  0  0  0
 24 25  2  0  0  0
 25 26  1  0  0  0
  4  5  1  0  0  0
  5  6  2  0  0  0
  6  7  1  0  0  0
 31 32  1  0  0  0
 32 33  2  0  0  0
 33 34  1  0  0  0
 34 35  2  0  0  0
 35 36  1  0  0  0
 36 37  2  0  0  0
 37 40  1  0  0  0
 40 41  1  0  0  0
 41 42  1  0  0  0
 42 43  1  0  0  0
 43 44  1  0  0  0
 44 45  1  0  0  0
 45 46  1  0  0  0
 46 47  1  0  0  0
 47 48  1  0  0  0
 48 49  1  0  0  0
 37 28  1  0  0  0
 49 44  1  0  0  0
 35 30  1  0  0  0
  6  1  1  0  0  0
 14 12  1  0  0  0
 25 19  1  0  0  0
  8 11  1  0  0  0
 17 18  1  0  0  0
M  END
> <minimizedAffinity>
-7.14352

> <CNNscore>
0.2103657424

> <CNNaffinity>
5.6685457230

> <CNN_VS>
1.1924678087

> <CNNaffinity_variance>
0.1406448483

$$$$
[H]C1=C(N([H])C(=O)C2(C(=O)N([H])c3c([H])c([H])c(Oc4c([H])c([H])nc5c([H])c(OC([H])([H])C([H])([H])C([H])([H])N6C([H])([H])C([H])([H])OC([H])([H])C6([H])[H])c(OC([H])([H])[H])c([H])c45)c(F)c3[H])C([H])([H])C2([H])[H])C(F)=C([H])C([H])(F)C1([H])[H]


 49 54  0  0  0  0  0  0  0  0999 V2000
  154.7616  136.6766  190.1210 C   0  0  0  0  0  0  0  0  0  0  0  0
  154.9911  138.0196  189.8402 C   0  0  0  0  0  0  0  0  0  0  0  0
  155.1077  138.4479  188.5428 C   0  0  0  0  0  0  0  0  0  0  0  0
  155.0041  137.5714  187.4541 C   0  0  0  0  0  0  0  0  0  0  0  0
  154.7796  136.2664  187.7560 C   0  0  0  0  0  0  0  0  0  0  0  0
  154.6559  135.8033  189.0770 C   0  0  0  0  0  0  0  0  0  0  0  0
  154.4013  134.4683  189.2952 F   0  0  0  0  0  0  0  0  0  0  0  0
  155.0948  138.0875  186.1419 N   0  0  0  0  0  0  0  0  0  0  0  0
  154.0345  138.5154  185.3488 C   0  0  0  0  0  0  0  0  0  0  0  0
  152.8411  138.4467  185.8537 O   0  0  0  0  0  0  0  0  0  0  0  0
  156.0973  138.1773  185.7929 H   0  0  0  0  0  0  0  0  0  0  0  0
  154.1432  139.0518  183.9775 C   0  0  0  0  0  0  0  0  0  0  0  0
  152.8444  138.9721  183.2119 C   0  0  0  0  0  0  0  0  0  0  0  0
  153.8918  137.9802  182.8935 C   0  0  0  0  0  0  0  0  0  0  0  0
  155.1431  140.0251  183.5504 C   0  0  0  0  0  0  0  0  0  0  0  0
  156.0032  140.3196  184.5005 O   0  0  0  0  0  0  0  0  0  0  0  0
  155.3636  140.6964  182.3675 N   0  0  0  0  0  0  0  0  0  0  0  0
  154.7651  140.6403  181.5411 H   0  0  0  0  0  0  0  0  0  0  0  0
  156.4739  141.6138  182.2121 C   0  0  0  0  0  0  0  0  0  0  0  0
  156.2738  142.9061  182.3367 C   0  0  0  0  0  0  0  0  0  0  0  0
  157.3001  143.9474  182.2059 C   0  0  0  0  0  0  0  0  0  0  0  0
  158.6778  143.4734  181.8824 C   0  0  0  0  0  0  0  0  0  0  0  0
  159.1830  144.1254  180.7527 F   0  0  0  0  0  0  0  0  0  0  0  0
  158.8256  142.0173  181.7581 C   0  0  0  0  0  0  0  0  0  0  0  0
  157.8215  141.1594  181.9075 C   0  0  0  0  0  0  0  0  0  0  0  0
  158.0462  139.8216  181.7677 F   0  0  0  0  0  0  0  0  0  0  0  0
  154.6445  136.2647  191.4116 O   0  0  0  0  0  0  0  0  0  0  0  0
  153.1755  132.6477  192.7409 C   0  0  0  0  0  0  0  0  0  0  0  0
  153.6238  133.8658  192.3214 C   0  0  0  0  0  0  0  0  0  0  0  0
  152.9607  135.0433  192.5928 C   0  0  0  0  0  0  0  0  0  0  0  0
  153.4746  136.2650  192.1289 C   0  0  0  0  0  0  0  0  0  0  0  0
  152.7661  137.4030  192.4277 C   0  0  0  0  0  0  0  0  0  0  0  0
  151.6020  137.2621  193.1629 C   0  0  0  0  0  0  0  0  0  0  0  0
  151.1385  136.0840  193.5915 N   0  0  0  0  0  0  0  0  0  0  0  0
  151.8026  134.9418  193.3196 C   0  0  0  0  0  0  0  0  0  0  0  0
  151.3251  133.7146  193.7584 C   0  0  0  0  0  0  0  0  0  0  0  0
  151.9880  132.5437  193.4869 C   0  0  0  0  0  0  0  0  0  0  0  0
  154.0387  131.1411  191.0788 C   0  0  0  0  0  0  0  0  0  0  0  0
  153.8859  131.5026  192.4360 O   0  0  0  0  0  0  0  0  0  0  0  0
  151.5930  131.2988  193.8802 O   0  0  0  0  0  0  0  0  0  0  0  0
  151.0889  130.7987  195.0490 C   0  0  0  0  0  0  0  0  0  0  0  0
  149.6360  130.4564  195.0443 C   0  0  0  0  0  0  0  0  0  0  0  0
  149.0984  130.3807  193.6066 C   0  0  0  0  0  0  0  0  0  0  0  0
  147.8700  129.6080  193.6627 N   0  0  0  0  0  0  0  0  0  0  0  0
  148.0938  128.3244  194.3268 C   0  0  0  0  0  0  0  0  0  0  0  0
  146.7262  127.7275  194.5940 C   0  0  0  0  0  0  0  0  0  0  0  0
  146.0312  127.5703  193.4121 O   0  0  0  0  0  0  0  0  0  0  0  0
  146.7606  127.8964  192.2932 C   0  0  0  0  0  0  0  0  0  0  0  0
  147.3565  129.2870  192.3474 C   0  0  0  0  0  0  0  0  0  0  0  0
 38 39  1  0  0  0
 39 28  1  0  0  0
 28 29  2  0  0  0
 29 30  1  0  0  0
 30 31  2  0  0  0
 31 27  1  0  0  0
 27  1  1  0  0  0
  1  2  2  0  0  0
  2  3  1  0  0  0
  3  4  2  0  0  0
  4  8  1  0  0  0
  8  9  1  0  0  0
  9 10  2  0  0  0
  9 12  1  0  0  0
 12 13  1  0  0  0
 13 14  1  0  0  0
 12 15  1  0  0  0
 15 16  2  0  0  0
 15 17  1  0  0  0
 17 19  1  0  0  0
 19 20  2  0  0  0
 20 21  1  0  0  0
 21 22  1  0  0  0
 22 23  1  0  0  0
 22 24  1  0  0  0
 24 25  2  0  0  0
 25 26  1  0  0  0
  4  5  1  0  0  0
  5  6  2  0  0  0
  6  7  1  0  0  0
 31 32  1  0  0  0
 32 33  2  0  0  0
 33 34  1  0  0  0
 34 35  2  0  0  0
 35 36  1  0  0  0
 36 37  2  0  0  0
 37 40  1  0  0  0
 40 41  1  0  0  0
 41 42  1  0  0  0
 42 43  1  0  0  0
 43 44  1  0  0  0
 44 45  1  0  0  0
 45 46  1  0  0  0
 46 47  1  0  0  0
 47 48  1  0  0  0
 48 49  1  0  0  0
 37 28  1  0  0  0
 49 44  1  0  0  0
 35 30  1  0  0  0
  6  1  1  0  0  0
 14 12  1  0  0  0
 25 19  1  0  0  0
  8 11  1  0  0  0
 17 18  1  0  0  0
M  END
> <minimizedAffinity>
-6.47440

> <CNNscore>
0.1998539865

> <CNNaffinity>
6.1623597145

> <CNN_VS>
1.2315721512

> <CNNaffinity_variance>
0.1336974204

$$$$
[H]C1=C(N([H])C(=O)C2(C(=O)N([H])c3c([H])c([H])c(Oc4c([H])c([H])nc5c([H])c(OC([H])([H])C([H])([H])C([H])([H])N6C([H])([H])C([H])([H])OC([H])([H])C6([H])[H])c(OC([H])([H])[H])c([H])c45)c(F)c3[H])C([H])([H])C2([H])[H])C(F)=C([H])C([H])(F)C1([H])[H]


 49 54  0  0  0  0  0  0  0  0999 V2000
  148.4824  138.9002  180.2275 C   0  0  0  0  0  0  0  0  0  0  0  0
  148.5924  138.9078  181.6143 C   0  0  0  0  0  0  0  0  0  0  0  0
  149.7990  139.1627  182.2140 C   0  0  0  0  0  0  0  0  0  0  0  0
  150.9609  139.4232  181.4748 C   0  0  0  0  0  0  0  0  0  0  0  0
  150.8257  139.4102  180.1235 C   0  0  0  0  0  0  0  0  0  0  0  0
  149.6004  139.1522  179.4857 C   0  0  0  0  0  0  0  0  0  0  0  0
  149.5436  139.1851  178.1108 F   0  0  0  0  0  0  0  0  0  0  0  0
  152.1620  139.7171  182.1584 N   0  0  0  0  0  0  0  0  0  0  0  0
  152.9933  138.8014  182.7961 C   0  0  0  0  0  0  0  0  0  0  0  0
  152.6482  137.5510  182.7607 O   0  0  0  0  0  0  0  0  0  0  0  0
  152.4323  140.7465  182.1117 H   0  0  0  0  0  0  0  0  0  0  0  0
  154.2460  139.1223  183.5088 C   0  0  0  0  0  0  0  0  0  0  0  0
  154.6451  138.0576  184.5020 C   0  0  0  0  0  0  0  0  0  0  0  0
  154.0415  139.2983  185.0299 C   0  0  0  0  0  0  0  0  0  0  0  0
  155.2785  140.0178  182.9973 C   0  0  0  0  0  0  0  0  0  0  0  0
  154.8868  140.6922  181.9386 O   0  0  0  0  0  0  0  0  0  0  0  0
  156.5701  140.2932  183.3905 N   0  0  0  0  0  0  0  0  0  0  0  0
  157.0637  139.8241  184.1526 H   0  0  0  0  0  0  0  0  0  0  0  0
  157.3829  141.2689  182.6937 C   0  0  0  0  0  0  0  0  0  0  0  0
  157.2055  142.5497  182.9255 C   0  0  0  0  0  0  0  0  0  0  0  0
  157.9528  143.6449  182.2956 C   0  0  0  0  0  0  0  0  0  0  0  0
  158.9833  143.2441  181.2931 C   0  0  0  0  0  0  0  0  0  0  0  0
  158.7876  143.9062  180.0767 F   0  0  0  0  0  0  0  0  0  0  0  0
  159.1255  141.7969  181.0862 C   0  0  0  0  0  0  0  0  0  0  0  0
  158.3966  140.8863  181.7234 C   0  0  0  0  0  0  0  0  0  0  0  0
  158.5896  139.5613  181.4651 F   0  0  0  0  0  0  0  0  0  0  0  0
  147.2797  138.6494  179.6447 O   0  0  0  0  0  0  0  0  0  0  0  0
  146.2395  135.2079  181.6651 C   0  0  0  0  0  0  0  0  0  0  0  0
  146.5785  136.3225  180.9556 C   0  0  0  0  0  0  0  0  0  0  0  0
  146.6272  136.3489  179.5783 C   0  0  0  0  0  0  0  0  0  0  0  0
  146.9868  137.5293  178.9080 C   0  0  0  0  0  0  0  0  0  0  0  0
  147.0217  137.4913  177.5356 C   0  0  0  0  0  0  0  0  0  0  0  0
  146.6995  136.2961  176.9163 C   0  0  0  0  0  0  0  0  0  0  0  0
  146.3599  135.1884  177.5827 N   0  0  0  0  0  0  0  0  0  0  0  0
  146.3139  135.1818  178.9308 C   0  0  0  0  0  0  0  0  0  0  0  0
  145.9656  134.0340  179.6293 C   0  0  0  0  0  0  0  0  0  0  0  0
  145.9176  134.0110  181.0009 C   0  0  0  0  0  0  0  0  0  0  0  0
  145.1346  135.9053  183.6826 C   0  0  0  0  0  0  0  0  0  0  0  0
  146.2093  135.2452  183.0458 O   0  0  0  0  0  0  0  0  0  0  0  0
  145.5838  132.9315  181.7651 O   0  0  0  0  0  0  0  0  0  0  0  0
  144.3958  132.3242  182.0652 C   0  0  0  0  0  0  0  0  0  0  0  0
  144.3743  131.5037  183.3120 C   0  0  0  0  0  0  0  0  0  0  0  0
  145.1063  132.2270  184.4533 C   0  0  0  0  0  0  0  0  0  0  0  0
  146.2095  131.3692  184.8487 N   0  0  0  0  0  0  0  0  0  0  0  0
  147.4822  131.9050  184.3673 C   0  0  0  0  0  0  0  0  0  0  0  0
  148.5767  131.1192  185.0621 C   0  0  0  0  0  0  0  0  0  0  0  0
  148.4558  129.7738  184.7794 O   0  0  0  0  0  0  0  0  0  0  0  0
  147.4543  129.4840  183.8830 C   0  0  0  0  0  0  0  0  0  0  0  0
  146.1050  130.0381  184.2883 C   0  0  0  0  0  0  0  0  0  0  0  0
 38 39  1  0  0  0
 39 28  1  0  0  0
 28 29  2  0  0  0
 29 30  1  0  0  0
 30 31  2  0  0  0
 31 27  1  0  0  0
 27  1  1  0  0  0
  1  2  2  0  0  0
  2  3  1  0  0  0
  3  4  2  0  0  0
  4  8  1  0  0  0
  8  9  1  0  0  0
  9 10  2  0  0  0
  9 12  1  0  0  0
 12 13  1  0  0  0
 13 14  1  0  0  0
 12 15  1  0  0  0
 15 16  2  0  0  0
 15 17  1  0  0  0
 17 19  1  0  0  0
 19 20  2  0  0  0
 20 21  1  0  0  0
 21 22  1  0  0  0
 22 23  1  0  0  0
 22 24  1  0  0  0
 24 25  2  0  0  0
 25 26  1  0  0  0
  4  5  1  0  0  0
  5  6  2  0  0  0
  6  7  1  0  0  0
 31 32  1  0  0  0
 32 33  2  0  0  0
 33 34  1  0  0  0
 34 35  2  0  0  0
 35 36  1  0  0  0
 36 37  2  0  0  0
 37 40  1  0  0  0
 40 41  1  0  0  0
 41 42  1  0  0  0
 42 43  1  0  0  0
 43 44  1  0  0  0
 44 45  1  0  0  0
 45 46  1  0  0  0
 46 47  1  0  0  0
 47 48  1  0  0  0
 48 49  1  0  0  0
 37 28  1  0  0  0
 49 44  1  0  0  0
 35 30  1  0  0  0
  6  1  1  0  0  0
 14 12  1  0  0  0
 25 19  1  0  0  0
  8 11  1  0  0  0
 17 18  1  0  0  0
M  END
> <minimizedAffinity>
-6.61246

> <CNNscore>
0.1991594434

> <CNNaffinity>
6.4845952988

> <CNN_VS>
1.2914683819

> <CNNaffinity_variance>
0.0670223758

$$$$
[H]C1=C(N([H])C(=O)C2(C(=O)N([H])c3c([H])c([H])c(Oc4c([H])c([H])nc5c([H])c(OC([H])([H])C([H])([H])C([H])([H])N6C([H])([H])C([H])([H])OC([H])([H])C6([H])[H])c(OC([H])([H])[H])c([H])c45)c(F)c3[H])C([H])([H])C2([H])[H])C(F)=C([H])C([H])(F)C1([H])[H]


 49 54  0  0  0  0  0  0  0  0999 V2000
  152.7589  139.5587  182.5190 C   0  0  0  0  0  0  0  0  0  0  0  0
  152.9115  140.7572  181.8295 C   0  0  0  0  0  0  0  0  0  0  0  0
  154.0704  141.4814  181.9434 C   0  0  0  0  0  0  0  0  0  0  0  0
  155.1397  141.0594  182.7451 C   0  0  0  0  0  0  0  0  0  0  0  0
  154.9649  139.8863  183.4068 C   0  0  0  0  0  0  0  0  0  0  0  0
  153.7872  139.1262  183.3058 C   0  0  0  0  0  0  0  0  0  0  0  0
  153.7018  137.9339  183.9883 F   0  0  0  0  0  0  0  0  0  0  0  0
  156.3200  141.8351  182.7850 N   0  0  0  0  0  0  0  0  0  0  0  0
  157.3212  141.8636  181.8190 C   0  0  0  0  0  0  0  0  0  0  0  0
  157.1651  141.1157  180.7701 O   0  0  0  0  0  0  0  0  0  0  0  0
  156.3760  142.4737  183.6358 H   0  0  0  0  0  0  0  0  0  0  0  0
  158.5513  142.6784  181.8737 C   0  0  0  0  0  0  0  0  0  0  0  0
  158.5226  143.8486  180.9201 C   0  0  0  0  0  0  0  0  0  0  0  0
  159.3331  142.6730  180.5412 C   0  0  0  0  0  0  0  0  0  0  0  0
  159.4479  142.7405  183.0234 C   0  0  0  0  0  0  0  0  0  0  0  0
  159.6243  143.9668  183.4641 O   0  0  0  0  0  0  0  0  0  0  0  0
  160.1454  141.7855  183.7305 N   0  0  0  0  0  0  0  0  0  0  0  0
  160.1777  140.7908  183.4980 H   0  0  0  0  0  0  0  0  0  0  0  0
  160.9651  142.1358  184.8723 C   0  0  0  0  0  0  0  0  0  0  0  0
  162.2728  142.1670  184.7507 C   0  0  0  0  0  0  0  0  0  0  0  0
  163.2236  142.5035  185.8173 C   0  0  0  0  0  0  0  0  0  0  0  0
  162.6301  142.8125  187.1514 C   0  0  0  0  0  0  0  0  0  0  0  0
  163.2016  142.0208  188.1530 F   0  0  0  0  0  0  0  0  0  0  0  0
  161.1635  142.7579  187.2118 C   0  0  0  0  0  0  0  0  0  0  0  0
  160.3943  142.4488  186.1729 C   0  0  0  0  0  0  0  0  0  0  0  0
  159.0389  142.4145  186.3191 F   0  0  0  0  0  0  0  0  0  0  0  0
  151.6061  138.8481  182.3953 O   0  0  0  0  0  0  0  0  0  0  0  0
  147.5624  138.3133  183.0033 C   0  0  0  0  0  0  0  0  0  0  0  0
  148.8913  138.4948  182.7553 C   0  0  0  0  0  0  0  0  0  0  0  0
  149.3956  138.7130  181.4911 C   0  0  0  0  0  0  0  0  0  0  0  0
  150.7759  138.8895  181.3034 C   0  0  0  0  0  0  0  0  0  0  0  0
  151.2176  139.0986  180.0199 C   0  0  0  0  0  0  0  0  0  0  0  0
  150.2721  139.1210  179.0093 C   0  0  0  0  0  0  0  0  0  0  0  0
  148.9633  138.9503  179.2201 N   0  0  0  0  0  0  0  0  0  0  0  0
  148.4871  138.7414  180.4648 C   0  0  0  0  0  0  0  0  0  0  0  0
  147.1296  138.5598  180.6904 C   0  0  0  0  0  0  0  0  0  0  0  0
  146.6305  138.3431  181.9506 C   0  0  0  0  0  0  0  0  0  0  0  0
  147.2809  139.1288  185.2469 C   0  0  0  0  0  0  0  0  0  0  0  0
  147.1190  138.0982  184.2940 O   0  0  0  0  0  0  0  0  0  0  0  0
  145.3155  138.1582  182.2622 O   0  0  0  0  0  0  0  0  0  0  0  0
  144.4234  137.1521  182.0126 C   0  0  0  0  0  0  0  0  0  0  0  0
  145.0077  135.8500  181.5751 C   0  0  0  0  0  0  0  0  0  0  0  0
  145.6078  135.0928  182.7701 C   0  0  0  0  0  0  0  0  0  0  0  0
  147.0064  134.8610  182.4550 N   0  0  0  0  0  0  0  0  0  0  0  0
  147.2092  134.7983  181.0080 C   0  0  0  0  0  0  0  0  0  0  0  0
  148.7064  134.8465  180.7752 C   0  0  0  0  0  0  0  0  0  0  0  0
  149.3268  133.7948  181.4181 O   0  0  0  0  0  0  0  0  0  0  0  0
  148.4531  132.9227  182.0235 C   0  0  0  0  0  0  0  0  0  0  0  0
  147.4903  133.5996  182.9758 C   0  0  0  0  0  0  0  0  0  0  0  0
 38 39  1  0  0  0
 39 28  1  0  0  0
 28 29  2  0  0  0
 29 30  1  0  0  0
 30 31  2  0  0  0
 31 27  1  0  0  0
 27  1  1  0  0  0
  1  2  2  0  0  0
  2  3  1  0  0  0
  3  4  2  0  0  0
  4  8  1  0  0  0
  8  9  1  0  0  0
  9 10  2  0  0  0
  9 12  1  0  0  0
 12 13  1  0  0  0
 13 14  1  0  0  0
 12 15  1  0  0  0
 15 16  2  0  0  0
 15 17  1  0  0  0
 17 19  1  0  0  0
 19 20  2  0  0  0
 20 21  1  0  0  0
 21 22  1  0  0  0
 22 23  1  0  0  0
 22 24  1  0  0  0
 24 25  2  0  0  0
 25 26  1  0  0  0
  4  5  1  0  0  0
  5  6  2  0  0  0
  6  7  1  0  0  0
 31 32  1  0  0  0
 32 33  2  0  0  0
 33 34  1  0  0  0
 34 35  2  0  0  0
 35 36  1  0  0  0
 36 37  2  0  0  0
 37 40  1  0  0  0
 40 41  1  0  0  0
 41 42  1  0  0  0
 42 43  1  0  0  0
 43 44  1  0  0  0
 44 45  1  0  0  0
 45 46  1  0  0  0
 46 47  1  0  0  0
 47 48  1  0  0  0
 48 49  1  0  0  0
 37 28  1  0  0  0
 49 44  1  0  0  0
 35 30  1  0  0  0
  6  1  1  0  0  0
 14 12  1  0  0  0
 25 19  1  0  0  0
  8 11  1  0  0  0
 17 18  1  0  0  0
M  END
> <minimizedAffinity>
-9.74450

> <CNNscore>
0.1972087324

> <CNNaffinity>
6.7046980858

> <CNN_VS>
1.3222249746

> <CNNaffinity_variance>
0.1759390533

$$$$
[H]C1=C(N([H])C(=O)C2(C(=O)N([H])c3c([H])c([H])c(Oc4c([H])c([H])nc5c([H])c(OC([H])([H])C([H])([H])C([H])([H])N6C([H])([H])C([H])([H])OC([H])([H])C6([H])[H])c(OC([H])([H])[H])c([H])c45)c(F)c3[H])C([H])([H])C2([H])[H])C(F)=C([H])C([H])(F)C1([H])[H]


 49 54  0  0  0  0  0  0  0  0999 V2000
  154.8221  136.4876  189.9202 C   0  0  0  0  0  0  0  0  0  0  0  0
  155.5141  137.6474  189.5868 C   0  0  0  0  0  0  0  0  0  0  0  0
  155.5850  138.0633  188.2820 C   0  0  0  0  0  0  0  0  0  0  0  0
  154.9759  137.3546  187.2375 C   0  0  0  0  0  0  0  0  0  0  0  0
  154.3066  136.2267  187.5903 C   0  0  0  0  0  0  0  0  0  0  0  0
  154.2194  135.7804  188.9200 C   0  0  0  0  0  0  0  0  0  0  0  0
  153.4979  134.6411  189.1957 F   0  0  0  0  0  0  0  0  0  0  0  0
  155.0554  137.8620  185.9213 N   0  0  0  0  0  0  0  0  0  0  0  0
  154.1429  138.7166  185.3102 C   0  0  0  0  0  0  0  0  0  0  0  0
  153.1181  139.0992  186.0083 O   0  0  0  0  0  0  0  0  0  0  0  0
  155.9411  137.5661  185.4085 H   0  0  0  0  0  0  0  0  0  0  0  0
  154.2374  139.2388  183.9324 C   0  0  0  0  0  0  0  0  0  0  0  0
  152.9226  139.1825  183.1924 C   0  0  0  0  0  0  0  0  0  0  0  0
  153.9407  138.1641  182.8629 C   0  0  0  0  0  0  0  0  0  0  0  0
  155.2509  140.1851  183.4777 C   0  0  0  0  0  0  0  0  0  0  0  0
  156.2322  140.3317  184.3406 O   0  0  0  0  0  0  0  0  0  0  0  0
  155.3845  140.9535  182.3418 N   0  0  0  0  0  0  0  0  0  0  0  0
  154.6938  141.0154  181.5911 H   0  0  0  0  0  0  0  0  0  0  0  0
  156.5340  141.8110  182.1375 C   0  0  0  0  0  0  0  0  0  0  0  0
  156.4198  143.1075  182.3156 C   0  0  0  0  0  0  0  0  0  0  0  0
  157.4947  144.0926  182.1455 C   0  0  0  0  0  0  0  0  0  0  0  0
  158.8167  143.5524  181.7120 C   0  0  0  0  0  0  0  0  0  0  0  0
  159.2816  144.2136  180.5704 F   0  0  0  0  0  0  0  0  0  0  0  0
  158.8692  142.0955  181.5328 C   0  0  0  0  0  0  0  0  0  0  0  0
  157.8286  141.2914  181.7255 C   0  0  0  0  0  0  0  0  0  0  0  0
  157.9635  139.9487  181.5292 F   0  0  0  0  0  0  0  0  0  0  0  0
  154.7563  136.0874  191.2181 O   0  0  0  0  0  0  0  0  0  0  0  0
  152.8825  132.8492  192.9532 C   0  0  0  0  0  0  0  0  0  0  0  0
  153.4714  133.9491  192.4019 C   0  0  0  0  0  0  0  0  0  0  0  0
  153.0476  135.2352  192.6591 C   0  0  0  0  0  0  0  0  0  0  0  0
  153.6961  136.3251  192.0563 C   0  0  0  0  0  0  0  0  0  0  0  0
  153.2247  137.5815  192.3485 C   0  0  0  0  0  0  0  0  0  0  0  0
  152.1491  137.6804  193.2140 C   0  0  0  0  0  0  0  0  0  0  0  0
  151.5529  136.6229  193.7731 N   0  0  0  0  0  0  0  0  0  0  0  0
  151.9835  135.3713  193.5128 C   0  0  0  0  0  0  0  0  0  0  0  0
  151.3667  134.2684  194.0871 C   0  0  0  0  0  0  0  0  0  0  0  0
  151.7914  132.9888  193.8293 C   0  0  0  0  0  0  0  0  0  0  0  0
  154.7391  131.4125  192.4368 C   0  0  0  0  0  0  0  0  0  0  0  0
  153.3540  131.5852  192.6553 O   0  0  0  0  0  0  0  0  0  0  0  0
  151.2471  131.8520  194.3508 O   0  0  0  0  0  0  0  0  0  0  0  0
  150.0067  131.2818  194.2704 C   0  0  0  0  0  0  0  0  0  0  0  0
  149.9452  129.8083  194.5009 C   0  0  0  0  0  0  0  0  0  0  0  0
  149.8320  129.0523  193.1678 C   0  0  0  0  0  0  0  0  0  0  0  0
  151.1553  129.0646  192.5697 N   0  0  0  0  0  0  0  0  0  0  0  0
  151.1372  128.4227  191.2557 C   0  0  0  0  0  0  0  0  0  0  0  0
  152.4666  128.7374  190.5986 C   0  0  0  0  0  0  0  0  0  0  0  0
  153.5084  128.2708  191.3742 O   0  0  0  0  0  0  0  0  0  0  0  0
  153.1014  127.5675  192.4833 C   0  0  0  0  0  0  0  0  0  0  0  0
  152.1251  128.3292  193.3542 C   0  0  0  0  0  0  0  0  0  0  0  0
 38 39  1  0  0  0
 39 28  1  0  0  0
 28 29  2  0  0  0
 29 30  1  0  0  0
 30 31  2  0  0  0
 31 27  1  0  0  0
 27  1  1  0  0  0
  1  2  2  0  0  0
  2  3  1  0  0  0
  3  4  2  0  0  0
  4  8  1  0  0  0
  8  9  1  0  0  0
  9 10  2  0  0  0
  9 12  1  0  0  0
 12 13  1  0  0  0
 13 14  1  0  0  0
 12 15  1  0  0  0
 15 16  2  0  0  0
 15 17  1  0  0  0
 17 19  1  0  0  0
 19 20  2  0  0  0
 20 21  1  0  0  0
 21 22  1  0  0  0
 22 23  1  0  0  0
 22 24  1  0  0  0
 24 25  2  0  0  0
 25 26  1  0  0  0
  4  5  1  0  0  0
  5  6  2  0  0  0
  6  7  1  0  0  0
 31 32  1  0  0  0
 32 33  2  0  0  0
 33 34  1  0  0  0
 34 35  2  0  0  0
 35 36  1  0  0  0
 36 37  2  0  0  0
 37 40  1  0  0  0
 40 41  1  0  0  0
 41 42  1  0  0  0
 42 43  1  0  0  0
 43 44  1  0  0  0
 44 45  1  0  0  0
 45 46  1  0  0  0
 46 47  1  0  0  0
 47 48  1  0  0  0
 48 49  1  0  0  0
 37 28  1  0  0  0
 49 44  1  0  0  0
 35 30  1  0  0  0
  6  1  1  0  0  0
 14 12  1  0  0  0
 25 19  1  0  0  0
  8 11  1  0  0  0
 17 18  1  0  0  0
M  END
> <minimizedAffinity>
-6.42554

> <CNNscore>
0.1857652962

> <CNNaffinity>
6.2279882431

> <CNN_VS>
1.1569440365

> <CNNaffinity_variance>
0.1071872562

$$$$
[H]C1=C(N([H])C(=O)C2(C(=O)N([H])c3c([H])c([H])c(Oc4c([H])c([H])nc5c([H])c(OC([H])([H])C([H])([H])C([H])([H])N6C([H])([H])C([H])([H])OC([H])([H])C6([H])[H])c(OC([H])([H])[H])c([H])c45)c(F)c3[H])C([H])([H])C2([H])[H])C(F)=C([H])C([H])(F)C1([H])[H]


 49 54  0  0  0  0  0  0  0  0999 V2000
  152.8829  136.8166  184.3482 C   0  0  0  0  0  0  0  0  0  0  0  0
  152.0243  137.4149  185.2648 C   0  0  0  0  0  0  0  0  0  0  0  0
  152.2501  137.2908  186.6116 C   0  0  0  0  0  0  0  0  0  0  0  0
  153.3364  136.5685  187.1240 C   0  0  0  0  0  0  0  0  0  0  0  0
  154.1590  135.9951  186.2080 C   0  0  0  0  0  0  0  0  0  0  0  0
  153.9490  136.1083  184.8231 C   0  0  0  0  0  0  0  0  0  0  0  0
  154.8464  135.5192  183.9616 F   0  0  0  0  0  0  0  0  0  0  0  0
  153.5312  136.5150  188.5224 N   0  0  0  0  0  0  0  0  0  0  0  0
  153.9202  137.5702  189.3419 C   0  0  0  0  0  0  0  0  0  0  0  0
  154.1193  138.7236  188.7817 O   0  0  0  0  0  0  0  0  0  0  0  0
  153.3012  135.5640  188.9437 H   0  0  0  0  0  0  0  0  0  0  0  0
  154.1216  137.5004  190.8029 C   0  0  0  0  0  0  0  0  0  0  0  0
  154.9921  138.6161  191.3290 C   0  0  0  0  0  0  0  0  0  0  0  0
  155.5993  137.2762  191.1937 C   0  0  0  0  0  0  0  0  0  0  0  0
  153.2128  136.8324  191.7288 C   0  0  0  0  0  0  0  0  0  0  0  0
  152.9600  135.5889  191.3839 O   0  0  0  0  0  0  0  0  0  0  0  0
  152.5668  137.2375  192.8765 N   0  0  0  0  0  0  0  0  0  0  0  0
  152.5957  138.1832  193.2629 H   0  0  0  0  0  0  0  0  0  0  0  0
  151.7177  136.3355  193.6272 C   0  0  0  0  0  0  0  0  0  0  0  0
  152.1616  135.7974  194.7404 C   0  0  0  0  0  0  0  0  0  0  0  0
  151.4152  134.8707  195.6000 C   0  0  0  0  0  0  0  0  0  0  0  0
  150.0437  134.5072  195.1370 C   0  0  0  0  0  0  0  0  0  0  0  0
  149.8862  133.1190  195.0686 F   0  0  0  0  0  0  0  0  0  0  0  0
  149.6156  135.1465  193.8858 C   0  0  0  0  0  0  0  0  0  0  0  0
  150.3761  135.9845  193.1887 C   0  0  0  0  0  0  0  0  0  0  0  0
  149.9015  136.5283  192.0316 F   0  0  0  0  0  0  0  0  0  0  0  0
  152.6502  136.9496  183.0151 O   0  0  0  0  0  0  0  0  0  0  0  0
  155.3537  140.0081  183.6019 C   0  0  0  0  0  0  0  0  0  0  0  0
  154.4343  139.0254  183.3792 C   0  0  0  0  0  0  0  0  0  0  0  0
  153.3380  139.1953  182.5612 C   0  0  0  0  0  0  0  0  0  0  0  0
  152.4264  138.1433  182.3762 C   0  0  0  0  0  0  0  0  0  0  0  0
  151.3519  138.3754  181.5531 C   0  0  0  0  0  0  0  0  0  0  0  0
  151.2477  139.6251  180.9673 C   0  0  0  0  0  0  0  0  0  0  0  0
  152.1333  140.6070  181.1624 N   0  0  0  0  0  0  0  0  0  0  0  0
  153.2025  140.4218  181.9637 C   0  0  0  0  0  0  0  0  0  0  0  0
  154.1241  141.4383  182.1736 C   0  0  0  0  0  0  0  0  0  0  0  0
  155.2151  141.2659  182.9886 C   0  0  0  0  0  0  0  0  0  0  0  0
  156.2327  139.0085  185.6034 C   0  0  0  0  0  0  0  0  0  0  0  0
  156.4320  139.7758  184.4339 O   0  0  0  0  0  0  0  0  0  0  0  0
  156.1683  142.2065  183.2478 O   0  0  0  0  0  0  0  0  0  0  0  0
  156.6935  143.2374  182.5187 C   0  0  0  0  0  0  0  0  0  0  0  0
  158.1750  143.4049  182.5911 C   0  0  0  0  0  0  0  0  0  0  0  0
  158.8690  142.0462  182.7743 C   0  0  0  0  0  0  0  0  0  0  0  0
  159.7447  142.1788  183.9253 N   0  0  0  0  0  0  0  0  0  0  0  0
  160.2186  143.5556  184.0612 C   0  0  0  0  0  0  0  0  0  0  0  0
  160.8731  143.6587  185.4248 C   0  0  0  0  0  0  0  0  0  0  0  0
  161.9107  142.7548  185.5293 O   0  0  0  0  0  0  0  0  0  0  0  0
  162.1580  142.0590  184.3695 C   0  0  0  0  0  0  0  0  0  0  0  0
  160.9347  141.3616  183.8136 C   0  0  0  0  0  0  0  0  0  0  0  0
 38 39  1  0  0  0
 39 28  1  0  0  0
 28 29  2  0  0  0
 29 30  1  0  0  0
 30 31  2  0  0  0
 31 27  1  0  0  0
 27  1  1  0  0  0
  1  2  2  0  0  0
  2  3  1  0  0  0
  3  4  2  0  0  0
  4  8  1  0  0  0
  8  9  1  0  0  0
  9 10  2  0  0  0
  9 12  1  0  0  0
 12 13  1  0  0  0
 13 14  1  0  0  0
 12 15  1  0  0  0
 15 16  2  0  0  0
 15 17  1  0  0  0
 17 19  1  0  0  0
 19 20  2  0  0  0
 20 21  1  0  0  0
 21 22  1  0  0  0
 22 23  1  0  0  0
 22 24  1  0  0  0
 24 25  2  0  0  0
 25 26  1  0  0  0
  4  5  1  0  0  0
  5  6  2  0  0  0
  6  7  1  0  0  0
 31 32  1  0  0  0
 32 33  2  0  0  0
 33 34  1  0  0  0
 34 35  2  0  0  0
 35 36  1  0  0  0
 36 37  2  0  0  0
 37 40  1  0  0  0
 40 41  1  0  0  0
 41 42  1  0  0  0
 42 43  1  0  0  0
 43 44  1  0  0  0
 44 45  1  0  0  0
 45 46  1  0  0  0
 46 47  1  0  0  0
 47 48  1  0  0  0
 48 49  1  0  0  0
 37 28  1  0  0  0
 49 44  1  0  0  0
 35 30  1  0  0  0
  6  1  1  0  0  0
 14 12  1  0  0  0
 25 19  1  0  0  0
  8 11  1  0  0  0
 17 18  1  0  0  0
M  END
> <minimizedAffinity>
-9.13917

> <CNNscore>
0.1748670191

> <CNNaffinity>
6.7087059021

> <CNN_VS>
1.1731313467

> <CNNaffinity_variance>
0.3450218439

$$$$
[H]OC([H])([H])C1(C([H])([H])N([H])S(=O)(=O)c2c([H])c([H])c(C([H])([H])[H])c(-c3c([H])nc(N([H])[H])c(-c4onc(C([H])([H])[H])c4[H])c3[H])c2[H])C([H])([H])OC1([H])[H]


 35 38  0  0  0  0  0  0  0  0999 V2000
  155.7984  139.1974  185.1166 C   0  0  0  0  0  0  0  0  0  0  0  0
  156.1938  138.4851  186.2299 C   0  0  0  0  0  0  0  0  0  0  0  0
  155.2631  137.7617  186.9776 C   0  0  0  0  0  0  0  0  0  0  0  0
  153.9430  137.7460  186.6200 C   0  0  0  0  0  0  0  0  0  0  0  0
  153.5359  138.4496  185.5159 C   0  0  0  0  0  0  0  0  0  0  0  0
  154.4815  139.1752  184.7698 C   0  0  0  0  0  0  0  0  0  0  0  0
  154.0053  139.9324  183.5968 C   0  0  0  0  0  0  0  0  0  0  0  0
  158.8515  141.0830  184.0532 C   0  0  0  0  0  0  0  0  0  0  0  0
  157.9609  140.3946  184.8457 C   0  0  0  0  0  0  0  0  0  0  0  0
  156.7679  139.9284  184.3452 C   0  0  0  0  0  0  0  0  0  0  0  0
  156.5179  140.1956  182.9917 C   0  0  0  0  0  0  0  0  0  0  0  0
  157.3997  140.8617  182.2601 N   0  0  0  0  0  0  0  0  0  0  0  0
  158.5718  141.3272  182.7253 C   0  0  0  0  0  0  0  0  0  0  0  0
  159.4800  142.0316  181.9092 N   0  0  0  0  0  0  0  0  0  0  0  0
  160.1261  141.5157  181.2952 H   0  0  0  0  0  0  0  0  0  0  0  0
  159.4940  143.0614  181.9303 H   0  0  0  0  0  0  0  0  0  0  0  0
  162.4297  143.1594  186.9905 C   0  0  0  0  0  0  0  0  0  0  0  0
  161.6838  142.5025  185.8946 C   0  0  0  0  0  0  0  0  0  0  0  0
  160.3436  142.1954  185.8100 C   0  0  0  0  0  0  0  0  0  0  0  0
  160.1260  141.5826  184.5814 C   0  0  0  0  0  0  0  0  0  0  0  0
  161.2907  141.5442  183.9958 O   0  0  0  0  0  0  0  0  0  0  0  0
  162.2175  142.0723  184.7356 N   0  0  0  0  0  0  0  0  0  0  0  0
  155.7632  136.8616  188.3849 S   0  0  0  0  0  0  0  0  0  0  0  0
  156.7726  135.8308  187.9460 O   0  0  0  0  0  0  0  0  0  0  0  0
  156.4618  137.7482  189.3781 O   0  0  0  0  0  0  0  0  0  0  0  0
  154.4521  136.0109  189.1128 N   0  0  0  0  0  0  0  0  0  0  0  0
  153.6370  136.0925  188.5099 H   0  0  0  0  0  0  0  0  0  0  0  0
  154.2942  136.3495  190.4732 C   0  0  0  0  0  0  0  0  0  0  0  0
  152.9924  136.0329  191.0955 C   0  0  0  0  0  0  0  0  0  0  0  0
  152.8069  136.8446  192.3834 C   0  0  0  0  0  0  0  0  0  0  0  0
  153.4886  135.7945  193.0387 O   0  0  0  0  0  0  0  0  0  0  0  0
  152.9223  134.9372  192.1019 C   0  0  0  0  0  0  0  0  0  0  0  0
  151.7740  136.1946  190.2112 C   0  0  0  0  0  0  0  0  0  0  0  0
  150.6022  135.9026  190.8876 O   0  0  0  0  0  0  0  0  0  0  0  0
  149.8344  136.4688  190.5836 H   0  0  0  0  0  0  0  0  0  0  0  0
 17 18  1  0  0  0
 18 19  1  0  0  0
 19 20  2  0  0  0
 20 21  1  0  0  0
 21 22  1  0  0  0
 20  8  1  0  0  0
  8  9  2  0  0  0
  9 10  1  0  0  0
 10 11  2  0  0  0
 11 12  1  0  0  0
 12 13  2  0  0  0
 13 14  1  0  0  0
 10  1  1  0  0  0
  1  2  2  0  0  0
  2  3  1  0  0  0
  3  4  2  0  0  0
  4  5  1  0  0  0
  5  6  2  0  0  0
  6  7  1  0  0  0
  3 23  1  0  0  0
 23 24  2  0  0  0
 23 25  2  0  0  0
 23 26  1  0  0  0
 26 28  1  0  0  0
 28 29  1  0  0  0
 29 33  1  0  0  0
 33 34  1  0  0  0
 29 30  1  0  0  0
 30 31  1  0  0  0
 31 32  1  0  0  0
 22 18  2  0  0  0
 13  8  1  0  0  0
  6  1  1  0  0  0
 32 29  1  0  0  0
 14 15  1  0  0  0
 14 16  1  0  0  0
 26 27  1  0  0  0
 34 35  1  0  0  0
M  END
> <minimizedAffinity>
-8.50153

> <CNNscore>
0.2512618303

> <CNNaffinity>
6.0070219040

> <CNN_VS>
1.5093352795

> <CNNaffinity_variance>
0.1376350820

$$$$
[H]OC([H])([H])C1(C([H])([H])N([H])S(=O)(=O)c2c([H])c([H])c(C([H])([H])[H])c(-c3c([H])nc(N([H])[H])c(-c4onc(C([H])([H])[H])c4[H])c3[H])c2[H])C([H])([H])OC1([H])[H]


 35 38  0  0  0  0  0  0  0  0999 V2000
  155.7551  139.1949  185.0860 C   0  0  0  0  0  0  0  0  0  0  0  0
  156.1233  138.4914  186.2142 C   0  0  0  0  0  0  0  0  0  0  0  0
  155.1699  137.7971  186.9608 C   0  0  0  0  0  0  0  0  0  0  0  0
  153.8541  137.8016  186.5874 C   0  0  0  0  0  0  0  0  0  0  0  0
  153.4739  138.4966  185.4684 C   0  0  0  0  0  0  0  0  0  0  0  0
  154.4422  139.1929  184.7235 C   0  0  0  0  0  0  0  0  0  0  0  0
  153.9948  139.9419  183.5341 C   0  0  0  0  0  0  0  0  0  0  0  0
  158.8408  141.0373  184.0412 C   0  0  0  0  0  0  0  0  0  0  0  0
  157.9265  140.3798  184.8330 C   0  0  0  0  0  0  0  0  0  0  0  0
  156.7478  139.8956  184.3160 C   0  0  0  0  0  0  0  0  0  0  0  0
  156.5376  140.1116  182.9467 C   0  0  0  0  0  0  0  0  0  0  0  0
  157.4412  140.7492  182.2164 N   0  0  0  0  0  0  0  0  0  0  0  0
  158.6001  141.2313  182.6975 C   0  0  0  0  0  0  0  0  0  0  0  0
  159.5327  141.9039  181.8822 N   0  0  0  0  0  0  0  0  0  0  0  0
  160.1956  141.3649  181.3071 H   0  0  0  0  0  0  0  0  0  0  0  0
  159.5477  142.9338  181.8647 H   0  0  0  0  0  0  0  0  0  0  0  0
  162.3398  143.1997  187.0117 C   0  0  0  0  0  0  0  0  0  0  0  0
  161.6226  142.5140  185.9143 C   0  0  0  0  0  0  0  0  0  0  0  0
  160.2863  142.1975  185.8061 C   0  0  0  0  0  0  0  0  0  0  0  0
  160.1002  141.5559  184.5870 C   0  0  0  0  0  0  0  0  0  0  0  0
  161.2782  141.5109  184.0293 O   0  0  0  0  0  0  0  0  0  0  0  0
  162.1851  142.0607  184.7779 N   0  0  0  0  0  0  0  0  0  0  0  0
  155.6356  136.9082  188.3869 S   0  0  0  0  0  0  0  0  0  0  0  0
  156.5341  137.7915  189.2155 O   0  0  0  0  0  0  0  0  0  0  0  0
  154.4417  136.5893  189.2434 O   0  0  0  0  0  0  0  0  0  0  0  0
  156.5335  135.4872  188.0035 N   0  0  0  0  0  0  0  0  0  0  0  0
  155.8979  134.6932  187.9958 H   0  0  0  0  0  0  0  0  0  0  0  0
  157.7053  135.3779  188.7816 C   0  0  0  0  0  0  0  0  0  0  0  0
  157.8539  134.1576  189.6006 C   0  0  0  0  0  0  0  0  0  0  0  0
  156.5763  133.3118  189.5320 C   0  0  0  0  0  0  0  0  0  0  0  0
  156.1043  134.0971  190.6079 O   0  0  0  0  0  0  0  0  0  0  0  0
  157.4267  134.1907  191.0271 C   0  0  0  0  0  0  0  0  0  0  0  0
  159.0563  133.2904  189.2927 C   0  0  0  0  0  0  0  0  0  0  0  0
  158.8584  131.9763  189.6799 O   0  0  0  0  0  0  0  0  0  0  0  0
  159.3099  131.3255  189.0674 H   0  0  0  0  0  0  0  0  0  0  0  0
 17 18  1  0  0  0
 18 19  1  0  0  0
 19 20  2  0  0  0
 20 21  1  0  0  0
 21 22  1  0  0  0
 20  8  1  0  0  0
  8  9  2  0  0  0
  9 10  1  0  0  0
 10 11  2  0  0  0
 11 12  1  0  0  0
 12 13  2  0  0  0
 13 14  1  0  0  0
 10  1  1  0  0  0
  1  2  2  0  0  0
  2  3  1  0  0  0
  3  4  2  0  0  0
  4  5  1  0  0  0
  5  6  2  0  0  0
  6  7  1  0  0  0
  3 23  1  0  0  0
 23 24  2  0  0  0
 23 25  2  0  0  0
 23 26  1  0  0  0
 26 28  1  0  0  0
 28 29  1  0  0  0
 29 33  1  0  0  0
 33 34  1  0  0  0
 29 30  1  0  0  0
 30 31  1  0  0  0
 31 32  1  0  0  0
 22 18  2  0  0  0
 13  8  1  0  0  0
  6  1  1  0  0  0
 32 29  1  0  0  0
 14 15  1  0  0  0
 14 16  1  0  0  0
 26 27  1  0  0  0
 34 35  1  0  0  0
M  END
> <minimizedAffinity>
-8.30525

> <CNNscore>
0.2363092154

> <CNNaffinity>
6.1825599670

> <CNN_VS>
1.4609959126

> <CNNaffinity_variance>
0.0759141296

$$$$
[H]OC([H])([H])C1(C([H])([H])N([H])S(=O)(=O)c2c([H])c([H])c(C([H])([H])[H])c(-c3c([H])nc(N([H])[H])c(-c4onc(C([H])([H])[H])c4[H])c3[H])c2[H])C([H])([H])OC1([H])[H]


 35 38  0  0  0  0  0  0  0  0999 V2000
  155.5108  140.0340  184.1367 C   0  0  0  0  0  0  0  0  0  0  0  0
  155.7247  139.2063  185.2195 C   0  0  0  0  0  0  0  0  0  0  0  0
  154.7846  138.2350  185.5676 C   0  0  0  0  0  0  0  0  0  0  0  0
  153.6348  138.0863  184.8417 C   0  0  0  0  0  0  0  0  0  0  0  0
  153.4091  138.9022  183.7632 C   0  0  0  0  0  0  0  0  0  0  0  0
  154.3624  139.8775  183.4212 C   0  0  0  0  0  0  0  0  0  0  0  0
  154.0794  140.7473  182.2639 C   0  0  0  0  0  0  0  0  0  0  0  0
  158.6554  142.0523  183.9236 C   0  0  0  0  0  0  0  0  0  0  0  0
  157.7578  141.0842  184.3136 C   0  0  0  0  0  0  0  0  0  0  0  0
  156.4925  141.0225  183.7784 C   0  0  0  0  0  0  0  0  0  0  0  0
  156.1773  141.9971  182.8210 C   0  0  0  0  0  0  0  0  0  0  0  0
  157.0682  142.9137  182.4708 N   0  0  0  0  0  0  0  0  0  0  0  0
  158.3101  142.9951  182.9785 C   0  0  0  0  0  0  0  0  0  0  0  0
  159.2253  143.9886  182.5755 N   0  0  0  0  0  0  0  0  0  0  0  0
  159.7728  143.8633  181.7122 H   0  0  0  0  0  0  0  0  0  0  0  0
  159.3431  144.8375  183.1470 H   0  0  0  0  0  0  0  0  0  0  0  0
  162.6128  142.8285  187.0024 C   0  0  0  0  0  0  0  0  0  0  0  0
  161.7335  142.4747  185.8664 C   0  0  0  0  0  0  0  0  0  0  0  0
  160.3654  142.5873  185.7511 C   0  0  0  0  0  0  0  0  0  0  0  0
  160.0068  142.1231  184.4908 C   0  0  0  0  0  0  0  0  0  0  0  0
  161.1216  141.7636  183.9175 O   0  0  0  0  0  0  0  0  0  0  0  0
  162.1443  141.9563  184.6935 N   0  0  0  0  0  0  0  0  0  0  0  0
  155.0552  137.1890  186.9364 S   0  0  0  0  0  0  0  0  0  0  0  0
  154.8025  135.7689  186.4966 O   0  0  0  0  0  0  0  0  0  0  0  0
  156.4871  137.2474  187.3911 O   0  0  0  0  0  0  0  0  0  0  0  0
  153.9684  137.5202  188.2331 N   0  0  0  0  0  0  0  0  0  0  0  0
  153.1060  137.8962  187.8464 H   0  0  0  0  0  0  0  0  0  0  0  0
  154.5903  138.2471  189.2699 C   0  0  0  0  0  0  0  0  0  0  0  0
  154.8577  137.5224  190.5290 C   0  0  0  0  0  0  0  0  0  0  0  0
  154.5401  136.0312  190.3624 C   0  0  0  0  0  0  0  0  0  0  0  0
  153.2139  136.3643  190.7188 O   0  0  0  0  0  0  0  0  0  0  0  0
  153.7552  137.3651  191.5180 C   0  0  0  0  0  0  0  0  0  0  0  0
  156.2463  137.6859  191.1102 C   0  0  0  0  0  0  0  0  0  0  0  0
  157.1239  138.2503  190.2008 O   0  0  0  0  0  0  0  0  0  0  0  0
  157.8036  138.8394  190.6408 H   0  0  0  0  0  0  0  0  0  0  0  0
 17 18  1  0  0  0
 18 19  1  0  0  0
 19 20  2  0  0  0
 20 21  1  0  0  0
 21 22  1  0  0  0
 20  8  1  0  0  0
  8  9  2  0  0  0
  9 10  1  0  0  0
 10 11  2  0  0  0
 11 12  1  0  0  0
 12 13  2  0  0  0
 13 14  1  0  0  0
 10  1  1  0  0  0
  1  2  2  0  0  0
  2  3  1  0  0  0
  3  4  2  0  0  0
  4  5  1  0  0  0
  5  6  2  0  0  0
  6  7  1  0  0  0
  3 23  1  0  0  0
 23 24  2  0  0  0
 23 25  2  0  0  0
 23 26  1  0  0  0
 26 28  1  0  0  0
 28 29  1  0  0  0
 29 33  1  0  0  0
 33 34  1  0  0  0
 29 30  1  0  0  0
 30 31  1  0  0  0
 31 32  1  0  0  0
 22 18  2  0  0  0
 13  8  1  0  0  0
  6  1  1  0  0  0
 32 29  1  0  0  0
 14 15  1  0  0  0
 14 16  1  0  0  0
 26 27  1  0  0  0
 34 35  1  0  0  0
M  END
> <minimizedAffinity>
-8.96804

> <CNNscore>
0.2331614941

> <CNNaffinity>
6.4134492874

> <CNN_VS>
1.4953694344

> <CNNaffinity_variance>
0.0590634272

$$$$
[H]OC([H])([H])C1(C([H])([H])N([H])S(=O)(=O)c2c([H])c([H])c(C([H])([H])[H])c(-c3c([H])nc(N([H])[H])c(-c4onc(C([H])([H])[H])c4[H])c3[H])c2[H])C([H])([H])OC1([H])[H]


 35 38  0  0  0  0  0  0  0  0999 V2000
  155.6392  140.3997  183.4521 C   0  0  0  0  0  0  0  0  0  0  0  0
  154.5857  140.3429  182.5633 C   0  0  0  0  0  0  0  0  0  0  0  0
  153.5956  139.3680  182.6968 C   0  0  0  0  0  0  0  0  0  0  0  0
  153.6521  138.4519  183.7109 C   0  0  0  0  0  0  0  0  0  0  0  0
  154.6935  138.4965  184.6015 C   0  0  0  0  0  0  0  0  0  0  0  0
  155.6857  139.4824  184.4579 C   0  0  0  0  0  0  0  0  0  0  0  0
  156.7992  139.4910  185.4254 C   0  0  0  0  0  0  0  0  0  0  0  0
  158.8070  142.3722  183.7389 C   0  0  0  0  0  0  0  0  0  0  0  0
  157.8818  141.3684  183.9164 C   0  0  0  0  0  0  0  0  0  0  0  0
  156.6468  141.4170  183.3136 C   0  0  0  0  0  0  0  0  0  0  0  0
  156.3915  142.5413  182.5155 C   0  0  0  0  0  0  0  0  0  0  0  0
  157.3073  143.4878  182.3685 N   0  0  0  0  0  0  0  0  0  0  0  0
  158.5207  143.4635  182.9462 C   0  0  0  0  0  0  0  0  0  0  0  0
  159.4642  144.4943  182.7611 N   0  0  0  0  0  0  0  0  0  0  0  0
  160.0565  144.5037  181.9185 H   0  0  0  0  0  0  0  0  0  0  0  0
  159.5580  145.2353  183.4704 H   0  0  0  0  0  0  0  0  0  0  0  0
  162.6421  142.8019  187.0328 C   0  0  0  0  0  0  0  0  0  0  0  0
  161.7990  142.5261  185.8487 C   0  0  0  0  0  0  0  0  0  0  0  0
  160.4541  142.7563  185.6597 C   0  0  0  0  0  0  0  0  0  0  0  0
  160.1263  142.3258  184.3793 C   0  0  0  0  0  0  0  0  0  0  0  0
  161.2358  141.8719  183.8656 O   0  0  0  0  0  0  0  0  0  0  0  0
  162.2273  141.9751  184.6971 N   0  0  0  0  0  0  0  0  0  0  0  0
  152.2642  139.2963  181.5730 S   0  0  0  0  0  0  0  0  0  0  0  0
  151.9007  140.7085  181.1884 O   0  0  0  0  0  0  0  0  0  0  0  0
  152.6610  138.5961  180.3030 O   0  0  0  0  0  0  0  0  0  0  0  0
  150.8595  138.5830  182.2732 N   0  0  0  0  0  0  0  0  0  0  0  0
  151.0963  138.2428  183.2020 H   0  0  0  0  0  0  0  0  0  0  0  0
  150.2289  137.6823  181.3892 C   0  0  0  0  0  0  0  0  0  0  0  0
  149.0628  138.1881  180.6367 C   0  0  0  0  0  0  0  0  0  0  0  0
  148.5120  139.4571  181.2988 C   0  0  0  0  0  0  0  0  0  0  0  0
  147.7408  138.5935  182.1089 O   0  0  0  0  0  0  0  0  0  0  0  0
  147.7005  137.7262  181.0229 C   0  0  0  0  0  0  0  0  0  0  0  0
  149.2800  138.4373  179.1591 C   0  0  0  0  0  0  0  0  0  0  0  0
  150.1719  139.4719  178.9352 O   0  0  0  0  0  0  0  0  0  0  0  0
  150.7280  139.3262  178.1154 H   0  0  0  0  0  0  0  0  0  0  0  0
 17 18  1  0  0  0
 18 19  1  0  0  0
 19 20  2  0  0  0
 20 21  1  0  0  0
 21 22  1  0  0  0
 20  8  1  0  0  0
  8  9  2  0  0  0
  9 10  1  0  0  0
 10 11  2  0  0  0
 11 12  1  0  0  0
 12 13  2  0  0  0
 13 14  1  0  0  0
 10  1  1  0  0  0
  1  2  2  0  0  0
  2  3  1  0  0  0
  3  4  2  0  0  0
  4  5  1  0  0  0
  5  6  2  0  0  0
  6  7  1  0  0  0
  3 23  1  0  0  0
 23 24  2  0  0  0
 23 25  2  0  0  0
 23 26  1  0  0  0
 26 28  1  0  0  0
 28 29  1  0  0  0
 29 33  1  0  0  0
 33 34  1  0  0  0
 29 30  1  0  0  0
 30 31  1  0  0  0
 31 32  1  0  0  0
 22 18  2  0  0  0
 13  8  1  0  0  0
  6  1  1  0  0  0
 32 29  1  0  0  0
 14 15  1  0  0  0
 14 16  1  0  0  0
 26 27  1  0  0  0
 34 35  1  0  0  0
M  END
> <minimizedAffinity>
-8.78694

> <CNNscore>
0.2299038917

> <CNNaffinity>
6.1213254929

> <CNN_VS>
1.4073165655

> <CNNaffinity_variance>
0.1407065541

$$$$
[H]OC([H])([H])C1(C([H])([H])N([H])S(=O)(=O)c2c([H])c([H])c(C([H])([H])[H])c(-c3c([H])nc(N([H])[H])c(-c4onc(C([H])([H])[H])c4[H])c3[H])c2[H])C([H])([H])OC1([H])[H]


 35 38  0  0  0  0  0  0  0  0999 V2000
  155.4786  140.1007  184.0156 C   0  0  0  0  0  0  0  0  0  0  0  0
  155.6695  139.2619  185.0942 C   0  0  0  0  0  0  0  0  0  0  0  0
  154.7182  138.2929  185.4173 C   0  0  0  0  0  0  0  0  0  0  0  0
  153.5801  138.1575  184.6708 C   0  0  0  0  0  0  0  0  0  0  0  0
  153.3772  138.9845  183.5962 C   0  0  0  0  0  0  0  0  0  0  0  0
  154.3417  139.9574  183.2794 C   0  0  0  0  0  0  0  0  0  0  0  0
  154.0832  140.8393  182.1255 C   0  0  0  0  0  0  0  0  0  0  0  0
  158.6407  142.0976  183.8678 C   0  0  0  0  0  0  0  0  0  0  0  0
  157.7313  141.1308  184.2333 C   0  0  0  0  0  0  0  0  0  0  0  0
  156.4718  141.0868  183.6831 C   0  0  0  0  0  0  0  0  0  0  0  0
  156.1748  142.0780  182.7368 C   0  0  0  0  0  0  0  0  0  0  0  0
  157.0765  142.9926  182.4104 N   0  0  0  0  0  0  0  0  0  0  0  0
  158.3132  143.0569  182.9331 C   0  0  0  0  0  0  0  0  0  0  0  0
  159.2403  144.0492  182.5552 N   0  0  0  0  0  0  0  0  0  0  0  0
  159.7967  143.9325  181.6964 H   0  0  0  0  0  0  0  0  0  0  0  0
  159.3581  144.8886  183.1406 H   0  0  0  0  0  0  0  0  0  0  0  0
  162.5710  142.8149  186.9952 C   0  0  0  0  0  0  0  0  0  0  0  0
  161.7007  142.4753  185.8479 C   0  0  0  0  0  0  0  0  0  0  0  0
  160.3356  142.6058  185.7168 C   0  0  0  0  0  0  0  0  0  0  0  0
  159.9860  142.1495  184.4512 C   0  0  0  0  0  0  0  0  0  0  0  0
  161.1028  141.7771  183.8901 O   0  0  0  0  0  0  0  0  0  0  0  0
  162.1187  141.9546  184.6786 N   0  0  0  0  0  0  0  0  0  0  0  0
  154.9597  137.2330  186.7808 S   0  0  0  0  0  0  0  0  0  0  0  0
  154.7888  135.8124  186.3045 O   0  0  0  0  0  0  0  0  0  0  0  0
  156.3624  137.3401  187.3116 O   0  0  0  0  0  0  0  0  0  0  0  0
  153.7941  137.4957  188.0236 N   0  0  0  0  0  0  0  0  0  0  0  0
  153.9887  138.3896  188.4681 H   0  0  0  0  0  0  0  0  0  0  0  0
  153.6513  136.3684  188.8596 C   0  0  0  0  0  0  0  0  0  0  0  0
  152.2773  135.8814  189.0986 C   0  0  0  0  0  0  0  0  0  0  0  0
  152.1119  134.4615  188.5430 C   0  0  0  0  0  0  0  0  0  0  0  0
  151.7873  135.0758  187.3126 O   0  0  0  0  0  0  0  0  0  0  0  0
  151.2389  136.1144  188.0567 C   0  0  0  0  0  0  0  0  0  0  0  0
  151.7939  135.9271  190.5328 C   0  0  0  0  0  0  0  0  0  0  0  0
  150.4236  135.7530  190.6219 O   0  0  0  0  0  0  0  0  0  0  0  0
  150.1544  135.2594  191.4505 H   0  0  0  0  0  0  0  0  0  0  0  0
 17 18  1  0  0  0
 18 19  1  0  0  0
 19 20  2  0  0  0
 20 21  1  0  0  0
 21 22  1  0  0  0
 20  8  1  0  0  0
  8  9  2  0  0  0
  9 10  1  0  0  0
 10 11  2  0  0  0
 11 12  1  0  0  0
 12 13  2  0  0  0
 13 14  1  0  0  0
 10  1  1  0  0  0
  1  2  2  0  0  0
  2  3  1  0  0  0
  3  4  2  0  0  0
  4  5  1  0  0  0
  5  6  2  0  0  0
  6  7  1  0  0  0
  3 23  1  0  0  0
 23 24  2  0  0  0
 23 25  2  0  0  0
 23 26  1  0  0  0
 26 28  1  0  0  0
 28 29  1  0  0  0
 29 33  1  0  0  0
 33 34  1  0  0  0
 29 30  1  0  0  0
 30 31  1  0  0  0
 31 32  1  0  0  0
 22 18  2  0  0  0
 13  8  1  0  0  0
  6  1  1  0  0  0
 32 29  1  0  0  0
 14 15  1  0  0  0
 14 16  1  0  0  0
 26 27  1  0  0  0
 34 35  1  0  0  0
M  END
> <minimizedAffinity>
-8.01170

> <CNNscore>
0.2161081880

> <CNNaffinity>
6.1308698654

> <CNN_VS>
1.3249311447

> <CNNaffinity_variance>
0.1140553355

$$$$
[H]OC([H])([H])C1(C([H])([H])N([H])S(=O)(=O)c2c([H])c([H])c(C([H])([H])[H])c(-c3c([H])nc(N([H])[H])c(-c4onc(C([H])([H])[H])c4[H])c3[H])c2[H])C([H])([H])OC1([H])[H]


 35 38  0  0  0  0  0  0  0  0999 V2000
  153.4440  139.6726  183.0387 C   0  0  0  0  0  0  0  0  0  0  0  0
  153.4974  138.9463  184.2104 C   0  0  0  0  0  0  0  0  0  0  0  0
  152.6725  137.8356  184.3957 C   0  0  0  0  0  0  0  0  0  0  0  0
  151.7968  137.4474  183.4193 C   0  0  0  0  0  0  0  0  0  0  0  0
  151.7329  138.1601  182.2498 C   0  0  0  0  0  0  0  0  0  0  0  0
  152.5681  139.2775  182.0734 C   0  0  0  0  0  0  0  0  0  0  0  0
  152.4618  140.0292  180.8086 C   0  0  0  0  0  0  0  0  0  0  0  0
  156.4538  141.8766  182.7364 C   0  0  0  0  0  0  0  0  0  0  0  0
  155.6802  140.7547  182.9317 C   0  0  0  0  0  0  0  0  0  0  0  0
  154.3083  140.8073  182.8525 C   0  0  0  0  0  0  0  0  0  0  0  0
  153.7527  142.0619  182.5640 C   0  0  0  0  0  0  0  0  0  0  0  0
  154.5300  143.1198  182.3823 N   0  0  0  0  0  0  0  0  0  0  0  0
  155.8720  143.0944  182.4541 C   0  0  0  0  0  0  0  0  0  0  0  0
  156.6592  144.2464  182.2533 N   0  0  0  0  0  0  0  0  0  0  0  0
  156.8886  144.5519  181.2969 H   0  0  0  0  0  0  0  0  0  0  0  0
  157.0026  144.7791  183.0654 H   0  0  0  0  0  0  0  0  0  0  0  0
  161.2383  141.7881  184.4225 C   0  0  0  0  0  0  0  0  0  0  0  0
  160.0167  141.7894  183.5878 C   0  0  0  0  0  0  0  0  0  0  0  0
  158.6954  141.8586  183.9712 C   0  0  0  0  0  0  0  0  0  0  0  0
  157.9178  141.8267  182.8194 C   0  0  0  0  0  0  0  0  0  0  0  0
  158.7606  141.7431  181.8277 O   0  0  0  0  0  0  0  0  0  0  0  0
  159.9902  141.7195  182.2433 N   0  0  0  0  0  0  0  0  0  0  0  0
  152.7402  136.9178  185.8769 S   0  0  0  0  0  0  0  0  0  0  0  0
  153.8393  135.8941  185.7426 O   0  0  0  0  0  0  0  0  0  0  0  0
  153.1106  137.7924  187.0425 O   0  0  0  0  0  0  0  0  0  0  0  0
  151.2771  136.0561  186.1757 N   0  0  0  0  0  0  0  0  0  0  0  0
  151.0367  135.5250  185.3423 H   0  0  0  0  0  0  0  0  0  0  0  0
  150.2804  136.8858  186.7312 C   0  0  0  0  0  0  0  0  0  0  0  0
  148.8913  136.6542  186.2855 C   0  0  0  0  0  0  0  0  0  0  0  0
  148.3571  137.8873  185.5464 C   0  0  0  0  0  0  0  0  0  0  0  0
  147.9744  138.3736  186.8168 O   0  0  0  0  0  0  0  0  0  0  0  0
  147.7710  137.0482  187.1845 C   0  0  0  0  0  0  0  0  0  0  0  0
  148.6583  135.4160  185.4457 C   0  0  0  0  0  0  0  0  0  0  0  0
  148.8076  134.2551  186.1846 O   0  0  0  0  0  0  0  0  0  0  0  0
  148.1871  133.5288  185.8844 H   0  0  0  0  0  0  0  0  0  0  0  0
 17 18  1  0  0  0
 18 19  1  0  0  0
 19 20  2  0  0  0
 20 21  1  0  0  0
 21 22  1  0  0  0
 20  8  1  0  0  0
  8  9  2  0  0  0
  9 10  1  0  0  0
 10 11  2  0  0  0
 11 12  1  0  0  0
 12 13  2  0  0  0
 13 14  1  0  0  0
 10  1  1  0  0  0
  1  2  2  0  0  0
  2  3  1  0  0  0
  3  4  2  0  0  0
  4  5  1  0  0  0
  5  6  2  0  0  0
  6  7  1  0  0  0
  3 23  1  0  0  0
 23 24  2  0  0  0
 23 25  2  0  0  0
 23 26  1  0  0  0
 26 28  1  0  0  0
 28 29  1  0  0  0
 29 33  1  0  0  0
 33 34  1  0  0  0
 29 30  1  0  0  0
 30 31  1  0  0  0
 31 32  1  0  0  0
 22 18  2  0  0  0
 13  8  1  0  0  0
  6  1  1  0  0  0
 32 29  1  0  0  0
 14 15  1  0  0  0
 14 16  1  0  0  0
 26 27  1  0  0  0
 34 35  1  0  0  0
M  END
> <minimizedAffinity>
-7.13571

> <CNNscore>
0.2100062966

> <CNNaffinity>
5.8632402420

> <CNN_VS>
1.2313174009

> <CNNaffinity_variance>
0.0991631821

$$$$
[H]OC([H])([H])C1(C([H])([H])N([H])S(=O)(=O)c2c([H])c([H])c(C([H])([H])[H])c(-c3c([H])nc(N([H])[H])c(-c4onc(C([H])([H])[H])c4[H])c3[H])c2[H])C([H])([H])OC1([H])[H]


 35 38  0  0  0  0  0  0  0  0999 V2000
  153.8555  139.5665  183.7105 C   0  0  0  0  0  0  0  0  0  0  0  0
  153.9360  139.0009  184.9662 C   0  0  0  0  0  0  0  0  0  0  0  0
  153.1372  137.9076  185.3052 C   0  0  0  0  0  0  0  0  0  0  0  0
  152.2606  137.3775  184.3989 C   0  0  0  0  0  0  0  0  0  0  0  0
  152.1700  137.9296  183.1472 C   0  0  0  0  0  0  0  0  0  0  0  0
  152.9790  139.0310  182.8160 C   0  0  0  0  0  0  0  0  0  0  0  0
  152.8441  139.6085  181.4653 C   0  0  0  0  0  0  0  0  0  0  0  0
  156.8098  141.7935  183.1444 C   0  0  0  0  0  0  0  0  0  0  0  0
  156.0621  140.6929  183.4977 C   0  0  0  0  0  0  0  0  0  0  0  0
  154.6932  140.6844  183.3669 C   0  0  0  0  0  0  0  0  0  0  0  0
  154.1128  141.8545  182.8571 C   0  0  0  0  0  0  0  0  0  0  0  0
  154.8656  142.8943  182.5280 N   0  0  0  0  0  0  0  0  0  0  0  0
  156.2042  142.9275  182.6459 C   0  0  0  0  0  0  0  0  0  0  0  0
  156.9649  144.0573  182.2827 N   0  0  0  0  0  0  0  0  0  0  0  0
  157.2211  144.2091  181.2968 H   0  0  0  0  0  0  0  0  0  0  0  0
  157.2623  144.7277  183.0061 H   0  0  0  0  0  0  0  0  0  0  0  0
  161.5293  142.1997  184.9623 C   0  0  0  0  0  0  0  0  0  0  0  0
  160.3398  141.9939  184.1068 C   0  0  0  0  0  0  0  0  0  0  0  0
  159.0039  142.0961  184.4268 C   0  0  0  0  0  0  0  0  0  0  0  0
  158.2706  141.8084  183.2814 C   0  0  0  0  0  0  0  0  0  0  0  0
  159.1514  141.5545  182.3539 O   0  0  0  0  0  0  0  0  0  0  0  0
  160.3649  141.6544  182.8040 N   0  0  0  0  0  0  0  0  0  0  0  0
  153.2391  137.1931  186.8926 S   0  0  0  0  0  0  0  0  0  0  0  0
  151.8778  136.6513  187.2496 O   0  0  0  0  0  0  0  0  0  0  0  0
  154.1815  136.0216  186.9026 O   0  0  0  0  0  0  0  0  0  0  0  0
  153.6584  138.3493  188.1008 N   0  0  0  0  0  0  0  0  0  0  0  0
  153.5917  139.2804  187.6967 H   0  0  0  0  0  0  0  0  0  0  0  0
  154.8569  138.0093  188.7628 C   0  0  0  0  0  0  0  0  0  0  0  0
  154.7473  137.5976  190.1772 C   0  0  0  0  0  0  0  0  0  0  0  0
  155.1205  138.7634  191.1012 C   0  0  0  0  0  0  0  0  0  0  0  0
  156.4567  138.3222  190.9722 O   0  0  0  0  0  0  0  0  0  0  0  0
  155.9459  137.0341  190.8586 C   0  0  0  0  0  0  0  0  0  0  0  0
  153.4145  137.0176  190.6012 C   0  0  0  0  0  0  0  0  0  0  0  0
  153.1094  135.8609  189.9049 O   0  0  0  0  0  0  0  0  0  0  0  0
  152.6009  135.2025  190.4622 H   0  0  0  0  0  0  0  0  0  0  0  0
 17 18  1  0  0  0
 18 19  1  0  0  0
 19 20  2  0  0  0
 20 21  1  0  0  0
 21 22  1  0  0  0
 20  8  1  0  0  0
  8  9  2  0  0  0
  9 10  1  0  0  0
 10 11  2  0  0  0
 11 12  1  0  0  0
 12 13  2  0  0  0
 13 14  1  0  0  0
 10  1  1  0  0  0
  1  2  2  0  0  0
  2  3  1  0  0  0
  3  4  2  0  0  0
  4  5  1  0  0  0
  5  6  2  0  0  0
  6  7  1  0  0  0
  3 23  1  0  0  0
 23 24  2  0  0  0
 23 25  2  0  0  0
 23 26  1  0  0  0
 26 28  1  0  0  0
 28 29  1  0  0  0
 29 33  1  0  0  0
 33 34  1  0  0  0
 29 30  1  0  0  0
 30 31  1  0  0  0
 31 32  1  0  0  0
 22 18  2  0  0  0
 13  8  1  0  0  0
  6  1  1  0  0  0
 32 29  1  0  0  0
 14 15  1  0  0  0
 14 16  1  0  0  0
 26 27  1  0  0  0
 34 35  1  0  0  0
M  END
> <minimizedAffinity>
-7.87587

> <CNNscore>
0.1790691465

> <CNNaffinity>
6.2072691917

> <CNN_VS>
1.1115304232

> <CNNaffinity_variance>
0.0324192457

$$$$
[H]OC([H])([H])C1(C([H])([H])N([H])S(=O)(=O)c2c([H])c([H])c(C([H])([H])[H])c(-c3c([H])nc(N([H])[H])c(-c4onc(C([H])([H])[H])c4[H])c3[H])c2[H])C([H])([H])OC1([H])[H]


 35 38  0  0  0  0  0  0  0  0999 V2000
  155.1916  141.9364  182.2436 C   0  0  0  0  0  0  0  0  0  0  0  0
  156.4394  141.7251  181.6945 C   0  0  0  0  0  0  0  0  0  0  0  0
  157.3019  142.7969  181.4579 C   0  0  0  0  0  0  0  0  0  0  0  0
  156.9256  144.0752  181.7661 C   0  0  0  0  0  0  0  0  0  0  0  0
  155.6883  144.3000  182.3123 C   0  0  0  0  0  0  0  0  0  0  0  0
  154.8270  143.2133  182.5463 C   0  0  0  0  0  0  0  0  0  0  0  0
  153.4978  143.4941  183.1212 C   0  0  0  0  0  0  0  0  0  0  0  0
  152.3516  139.5030  182.0990 C   0  0  0  0  0  0  0  0  0  0  0  0
  153.1442  140.5920  181.8146 C   0  0  0  0  0  0  0  0  0  0  0  0
  154.3160  140.8234  182.4962 C   0  0  0  0  0  0  0  0  0  0  0  0
  154.6491  139.8906  183.4886 C   0  0  0  0  0  0  0  0  0  0  0  0
  153.8606  138.8541  183.7341 N   0  0  0  0  0  0  0  0  0  0  0  0
  152.7115  138.6060  183.0824 C   0  0  0  0  0  0  0  0  0  0  0  0
  151.9038  137.4892  183.3778 N   0  0  0  0  0  0  0  0  0  0  0  0
  152.1303  136.5695  182.9732 H   0  0  0  0  0  0  0  0  0  0  0  0
  151.0885  137.5974  183.9981 H   0  0  0  0  0  0  0  0  0  0  0  0
  148.9203  138.5543  178.4839 C   0  0  0  0  0  0  0  0  0  0  0  0
  149.6087  138.8321  179.7637 C   0  0  0  0  0  0  0  0  0  0  0  0
  150.9505  139.0194  180.0125 C   0  0  0  0  0  0  0  0  0  0  0  0
  151.1006  139.2508  181.3750 C   0  0  0  0  0  0  0  0  0  0  0  0
  149.8976  139.1970  181.8759 O   0  0  0  0  0  0  0  0  0  0  0  0
  149.0077  138.9548  180.9624 N   0  0  0  0  0  0  0  0  0  0  0  0
  158.8791  142.5295  180.7637 S   0  0  0  0  0  0  0  0  0  0  0  0
  158.7800  141.3617  179.8147 O   0  0  0  0  0  0  0  0  0  0  0  0
  159.3201  143.7102  179.9440 O   0  0  0  0  0  0  0  0  0  0  0  0
  160.0534  142.1165  181.9565 N   0  0  0  0  0  0  0  0  0  0  0  0
  160.2352  141.1173  181.9014 H   0  0  0  0  0  0  0  0  0  0  0  0
  159.7317  142.6527  183.2211 C   0  0  0  0  0  0  0  0  0  0  0  0
  160.0641  141.8296  184.4018 C   0  0  0  0  0  0  0  0  0  0  0  0
  159.6428  140.3731  184.1707 C   0  0  0  0  0  0  0  0  0  0  0  0
  158.3759  140.7533  184.6678 O   0  0  0  0  0  0  0  0  0  0  0  0
  159.0453  141.6656  185.4758 C   0  0  0  0  0  0  0  0  0  0  0  0
  161.5057  141.8763  184.8624 C   0  0  0  0  0  0  0  0  0  0  0  0
  162.3647  141.3233  183.9285 O   0  0  0  0  0  0  0  0  0  0  0  0
  163.2548  141.7815  183.9096 H   0  0  0  0  0  0  0  0  0  0  0  0
 17 18  1  0  0  0
 18 19  1  0  0  0
 19 20  2  0  0  0
 20 21  1  0  0  0
 21 22  1  0  0  0
 20  8  1  0  0  0
  8  9  2  0  0  0
  9 10  1  0  0  0
 10 11  2  0  0  0
 11 12  1  0  0  0
 12 13  2  0  0  0
 13 14  1  0  0  0
 10  1  1  0  0  0
  1  2  2  0  0  0
  2  3  1  0  0  0
  3  4  2  0  0  0
  4  5  1  0  0  0
  5  6  2  0  0  0
  6  7  1  0  0  0
  3 23  1  0  0  0
 23 24  2  0  0  0
 23 25  2  0  0  0
 23 26  1  0  0  0
 26 28  1  0  0  0
 28 29  1  0  0  0
 29 33  1  0  0  0
 33 34  1  0  0  0
 29 30  1  0  0  0
 30 31  1  0  0  0
 31 32  1  0  0  0
 22 18  2  0  0  0
 13  8  1  0  0  0
  6  1  1  0  0  0
 32 29  1  0  0  0
 14 15  1  0  0  0
 14 16  1  0  0  0
 26 27  1  0  0  0
 34 35  1  0  0  0
M  END
> <minimizedAffinity>
-9.24440

> <CNNscore>
0.1677256227

> <CNNaffinity>
5.9819369316

> <CNN_VS>
1.0033241510

> <CNNaffinity_variance>
0.4176921844

$$$$
[H]OC([H])([H])C1(C([H])([H])N([H])S(=O)(=O)c2c([H])c([H])c(C([H])([H])[H])c(-c3c([H])nc(N([H])[H])c(-c4onc(C([H])([H])[H])c4[H])c3[H])c2[H])C([H])([H])OC1([H])[H]


 35 38  0  0  0  0  0  0  0  0999 V2000
  154.3827  139.2203  183.9037 C   0  0  0  0  0  0  0  0  0  0  0  0
  153.2682  138.6242  183.3509 C   0  0  0  0  0  0  0  0  0  0  0  0
  152.8328  137.3768  183.8013 C   0  0  0  0  0  0  0  0  0  0  0  0
  153.5032  136.7233  184.7984 C   0  0  0  0  0  0  0  0  0  0  0  0
  154.6127  137.3038  185.3569 C   0  0  0  0  0  0  0  0  0  0  0  0
  155.0428  138.5606  184.8957 C   0  0  0  0  0  0  0  0  0  0  0  0
  156.2488  139.1482  185.5093 C   0  0  0  0  0  0  0  0  0  0  0  0
  156.1401  141.9704  182.0715 C   0  0  0  0  0  0  0  0  0  0  0  0
  155.7746  140.7063  182.4762 C   0  0  0  0  0  0  0  0  0  0  0  0
  154.8147  140.5123  183.4417 C   0  0  0  0  0  0  0  0  0  0  0  0
  154.2380  141.6703  183.9825 C   0  0  0  0  0  0  0  0  0  0  0  0
  154.6159  142.8708  183.5675 N   0  0  0  0  0  0  0  0  0  0  0  0
  155.5507  143.0868  182.6261 C   0  0  0  0  0  0  0  0  0  0  0  0
  155.9212  144.3834  182.2156 N   0  0  0  0  0  0  0  0  0  0  0  0
  155.3516  144.8843  181.5189 H   0  0  0  0  0  0  0  0  0  0  0  0
  156.7616  144.8256  182.6146 H   0  0  0  0  0  0  0  0  0  0  0  0
  159.9734  143.8442  179.3261 C   0  0  0  0  0  0  0  0  0  0  0  0
  158.8549  143.0296  179.8501 C   0  0  0  0  0  0  0  0  0  0  0  0
  158.0898  143.2182  180.9800 C   0  0  0  0  0  0  0  0  0  0  0  0
  157.1634  142.1837  181.0418 C   0  0  0  0  0  0  0  0  0  0  0  0
  157.3931  141.4421  179.9940 O   0  0  0  0  0  0  0  0  0  0  0  0
  158.3721  141.9090  179.2807 N   0  0  0  0  0  0  0  0  0  0  0  0
  151.4241  136.6236  183.1021 S   0  0  0  0  0  0  0  0  0  0  0  0
  151.5542  135.1319  183.2813 O   0  0  0  0  0  0  0  0  0  0  0  0
  150.1719  137.0335  183.8262 O   0  0  0  0  0  0  0  0  0  0  0  0
  151.2993  136.9227  181.4088 N   0  0  0  0  0  0  0  0  0  0  0  0
  151.9489  137.6651  181.1611 H   0  0  0  0  0  0  0  0  0  0  0  0
  149.9577  137.0644  180.9958 C   0  0  0  0  0  0  0  0  0  0  0  0
  149.5856  138.3425  180.3555 C   0  0  0  0  0  0  0  0  0  0  0  0
  150.7690  139.3176  180.3864 C   0  0  0  0  0  0  0  0  0  0  0  0
  150.3020  139.7056  181.6623 O   0  0  0  0  0  0  0  0  0  0  0  0
  149.0201  139.4328  181.1981 C   0  0  0  0  0  0  0  0  0  0  0  0
  149.0397  138.2480  178.9463 C   0  0  0  0  0  0  0  0  0  0  0  0
  147.6567  138.1921  178.9307 O   0  0  0  0  0  0  0  0  0  0  0  0
  147.2648  138.6516  178.1321 H   0  0  0  0  0  0  0  0  0  0  0  0
 17 18  1  0  0  0
 18 19  1  0  0  0
 19 20  2  0  0  0
 20 21  1  0  0  0
 21 22  1  0  0  0
 20  8  1  0  0  0
  8  9  2  0  0  0
  9 10  1  0  0  0
 10 11  2  0  0  0
 11 12  1  0  0  0
 12 13  2  0  0  0
 13 14  1  0  0  0
 10  1  1  0  0  0
  1  2  2  0  0  0
  2  3  1  0  0  0
  3  4  2  0  0  0
  4  5  1  0  0  0
  5  6  2  0  0  0
  6  7  1  0  0  0
  3 23  1  0  0  0
 23 24  2  0  0  0
 23 25  2  0  0  0
 23 26  1  0  0  0
 26 28  1  0  0  0
 28 29  1  0  0  0
 29 33  1  0  0  0
 33 34  1  0  0  0
 29 30  1  0  0  0
 30 31  1  0  0  0
 31 32  1  0  0  0
 22 18  2  0  0  0
 13  8  1  0  0  0
  6  1  1  0  0  0
 32 29  1  0  0  0
 14 15  1  0  0  0
 14 16  1  0  0  0
 26 27  1  0  0  0
 34 35  1  0  0  0
M  END
> <minimizedAffinity>
-7.10910

> <CNNscore>
0.1546385586

> <CNNaffinity>
5.8709187508

> <CNN_VS>
0.9078704119

> <CNNaffinity_variance>
0.1980412006

$$$$
[H]ON([H])C(=O)c1c([H])nc(N([H])C2(c3c([H])c([H])c(F)c([H])c3[H])C([H])([H])C2([H])[H])nc1[H]


 24 26  0  0  0  0  0  0  0  0999 V2000
  151.3791  138.9149  181.6186 C   0  0  0  0  0  0  0  0  0  0  0  0
  152.1525  138.5486  182.7327 C   0  0  0  0  0  0  0  0  0  0  0  0
  153.3119  139.1678  182.8805 N   0  0  0  0  0  0  0  0  0  0  0  0
  153.8095  140.1056  182.0673 C   0  0  0  0  0  0  0  0  0  0  0  0
  153.0977  140.4738  180.9987 N   0  0  0  0  0  0  0  0  0  0  0  0
  151.8987  139.8804  180.7845 C   0  0  0  0  0  0  0  0  0  0  0  0
  147.7084  138.2856  181.0966 O   0  0  0  0  0  0  0  0  0  0  0  0
  148.8506  138.9500  181.2989 N   0  0  0  0  0  0  0  0  0  0  0  0
  150.0920  138.2726  181.3984 C   0  0  0  0  0  0  0  0  0  0  0  0
  150.0861  137.0051  181.2879 O   0  0  0  0  0  0  0  0  0  0  0  0
  147.1227  138.3740  181.8553 H   0  0  0  0  0  0  0  0  0  0  0  0
  148.7952  139.9935  181.3906 H   0  0  0  0  0  0  0  0  0  0  0  0
  155.0643  140.6817  182.3845 N   0  0  0  0  0  0  0  0  0  0  0  0
  155.9124  140.0615  182.5379 H   0  0  0  0  0  0  0  0  0  0  0  0
  155.2759  142.1091  182.5262 C   0  0  0  0  0  0  0  0  0  0  0  0
  155.2755  142.6005  184.0132 C   0  0  0  0  0  0  0  0  0  0  0  0
  154.2409  143.0028  183.0261 C   0  0  0  0  0  0  0  0  0  0  0  0
  156.5170  142.5730  181.8291 C   0  0  0  0  0  0  0  0  0  0  0  0
  157.1690  141.6391  181.0549 C   0  0  0  0  0  0  0  0  0  0  0  0
  158.3270  141.9397  180.3751 C   0  0  0  0  0  0  0  0  0  0  0  0
  158.8586  143.2094  180.4638 C   0  0  0  0  0  0  0  0  0  0  0  0
  160.0078  143.5042  179.7915 F   0  0  0  0  0  0  0  0  0  0  0  0
  158.2126  144.1503  181.2370 C   0  0  0  0  0  0  0  0  0  0  0  0
  157.0336  143.8369  181.9269 C   0  0  0  0  0  0  0  0  0  0  0  0
  7  8  1  0  0  0
  8  9  1  0  0  0
  9 10  2  0  0  0
  9  1  1  0  0  0
  1  2  2  0  0  0
  2  3  1  0  0  0
  3  4  2  0  0  0
  4 13  1  0  0  0
 13 15  1  0  0  0
 15 16  1  0  0  0
 16 17  1  0  0  0
 15 18  1  0  0  0
 18 19  2  0  0  0
 19 20  1  0  0  0
 20 21  2  0  0  0
 21 22  1  0  0  0
 21 23  1  0  0  0
 23 24  2  0  0  0
  4  5  1  0  0  0
  5  6  2  0  0  0
  6  1  1  0  0  0
 17 15  1  0  0  0
 24 18  1  0  0  0
  7 11  1  0  0  0
  8 12  1  0  0  0
 13 14  1  0  0  0
M  END
> <minimizedAffinity>
-6.74110

> <CNNscore>
0.5519042015

> <CNNaffinity>
5.4479131699

> <CNN_VS>
3.0067262650

> <CNNaffinity_variance>
0.0677069575

$$$$
[H]ON([H])C(=O)c1c([H])nc(N([H])C2(c3c([H])c([H])c(F)c([H])c3[H])C([H])([H])C2([H])[H])nc1[H]


 24 26  0  0  0  0  0  0  0  0999 V2000
  154.5190  138.9076  184.3054 C   0  0  0  0  0  0  0  0  0  0  0  0
  154.4197  140.0130  183.4441 C   0  0  0  0  0  0  0  0  0  0  0  0
  155.4343  140.8616  183.4474 N   0  0  0  0  0  0  0  0  0  0  0  0
  156.5390  140.7606  184.1943 C   0  0  0  0  0  0  0  0  0  0  0  0
  156.6615  139.7210  185.0239 N   0  0  0  0  0  0  0  0  0  0  0  0
  155.6590  138.8108  185.0728 C   0  0  0  0  0  0  0  0  0  0  0  0
  151.9985  136.2772  183.3725 O   0  0  0  0  0  0  0  0  0  0  0  0
  153.0033  137.1505  183.2510 N   0  0  0  0  0  0  0  0  0  0  0  0
  153.4375  137.9350  184.3491 C   0  0  0  0  0  0  0  0  0  0  0  0
  152.8385  137.7811  185.4611 O   0  0  0  0  0  0  0  0  0  0  0  0
  151.2478  136.5427  182.8317 H   0  0  0  0  0  0  0  0  0  0  0  0
  153.4554  137.2418  182.3089 H   0  0  0  0  0  0  0  0  0  0  0  0
  157.5412  141.7528  184.0600 N   0  0  0  0  0  0  0  0  0  0  0  0
  157.3100  142.7727  184.2435 H   0  0  0  0  0  0  0  0  0  0  0  0
  158.9068  141.4621  183.6687 C   0  0  0  0  0  0  0  0  0  0  0  0
  159.2859  142.0124  182.2523 C   0  0  0  0  0  0  0  0  0  0  0  0
  159.2259  140.5624  182.5693 C   0  0  0  0  0  0  0  0  0  0  0  0
  159.9020  141.9257  184.6866 C   0  0  0  0  0  0  0  0  0  0  0  0
  161.2216  141.9326  184.2927 C   0  0  0  0  0  0  0  0  0  0  0  0
  162.2312  142.3250  185.1414 C   0  0  0  0  0  0  0  0  0  0  0  0
  161.9243  142.7255  186.4252 C   0  0  0  0  0  0  0  0  0  0  0  0
  162.9266  143.1113  187.2654 F   0  0  0  0  0  0  0  0  0  0  0  0
  160.6059  142.7213  186.8278 C   0  0  0  0  0  0  0  0  0  0  0  0
  159.5828  142.3200  185.9580 C   0  0  0  0  0  0  0  0  0  0  0  0
  7  8  1  0  0  0
  8  9  1  0  0  0
  9 10  2  0  0  0
  9  1  1  0  0  0
  1  2  2  0  0  0
  2  3  1  0  0  0
  3  4  2  0  0  0
  4 13  1  0  0  0
 13 15  1  0  0  0
 15 16  1  0  0  0
 16 17  1  0  0  0
 15 18  1  0  0  0
 18 19  2  0  0  0
 19 20  1  0  0  0
 20 21  2  0  0  0
 21 22  1  0  0  0
 21 23  1  0  0  0
 23 24  2  0  0  0
  4  5  1  0  0  0
  5  6  2  0  0  0
  6  1  1  0  0  0
 17 15  1  0  0  0
 24 18  1  0  0  0
  7 11  1  0  0  0
  8 12  1  0  0  0
 13 14  1  0  0  0
M  END
> <minimizedAffinity>
-7.66598

> <CNNscore>
0.5365290642

> <CNNaffinity>
5.7470555305

> <CNN_VS>
3.0834622383

> <CNNaffinity_variance>
0.2866304517

$$$$
[H]ON([H])C(=O)c1c([H])nc(N([H])C2(c3c([H])c([H])c(F)c([H])c3[H])C([H])([H])C2([H])[H])nc1[H]


 24 26  0  0  0  0  0  0  0  0999 V2000
  151.1302  139.0489  180.8262 C   0  0  0  0  0  0  0  0  0  0  0  0
  152.0178  139.8519  180.0907 C   0  0  0  0  0  0  0  0  0  0  0  0
  153.1099  140.2576  180.7170 N   0  0  0  0  0  0  0  0  0  0  0  0
  153.4410  139.9727  181.9809 C   0  0  0  0  0  0  0  0  0  0  0  0
  152.6162  139.2123  182.7060 N   0  0  0  0  0  0  0  0  0  0  0  0
  151.4770  138.7607  182.1280 C   0  0  0  0  0  0  0  0  0  0  0  0
  148.4058  138.3192  178.3389 O   0  0  0  0  0  0  0  0  0  0  0  0
  149.5482  138.7954  178.8440 N   0  0  0  0  0  0  0  0  0  0  0  0
  149.9102  138.5677  180.1956 C   0  0  0  0  0  0  0  0  0  0  0  0
  149.1103  137.8914  180.9177 O   0  0  0  0  0  0  0  0  0  0  0  0
  147.8154  139.0382  178.0918 H   0  0  0  0  0  0  0  0  0  0  0  0
  150.1657  139.3532  178.2054 H   0  0  0  0  0  0  0  0  0  0  0  0
  154.6629  140.4757  182.4916 N   0  0  0  0  0  0  0  0  0  0  0  0
  155.3789  139.8130  182.9107 H   0  0  0  0  0  0  0  0  0  0  0  0
  155.0122  141.8830  182.4877 C   0  0  0  0  0  0  0  0  0  0  0  0
  154.9644  142.5469  183.9053 C   0  0  0  0  0  0  0  0  0  0  0  0
  154.0451  142.9252  182.8015 C   0  0  0  0  0  0  0  0  0  0  0  0
  156.3384  142.1390  181.8418 C   0  0  0  0  0  0  0  0  0  0  0  0
  156.7211  143.4574  181.7323 C   0  0  0  0  0  0  0  0  0  0  0  0
  157.9114  143.8222  181.1463 C   0  0  0  0  0  0  0  0  0  0  0  0
  158.7535  142.8481  180.6516 C   0  0  0  0  0  0  0  0  0  0  0  0
  159.9314  143.2122  180.0689 F   0  0  0  0  0  0  0  0  0  0  0  0
  158.3780  141.5259  180.7567 C   0  0  0  0  0  0  0  0  0  0  0  0
  157.1639  141.1616  181.3545 C   0  0  0  0  0  0  0  0  0  0  0  0
  7  8  1  0  0  0
  8  9  1  0  0  0
  9 10  2  0  0  0
  9  1  1  0  0  0
  1  2  2  0  0  0
  2  3  1  0  0  0
  3  4  2  0  0  0
  4 13  1  0  0  0
 13 15  1  0  0  0
 15 16  1  0  0  0
 16 17  1  0  0  0
 15 18  1  0  0  0
 18 19  2  0  0  0
 19 20  1  0  0  0
 20 21  2  0  0  0
 21 22  1  0  0  0
 21 23  1  0  0  0
 23 24  2  0  0  0
  4  5  1  0  0  0
  5  6  2  0  0  0
  6  1  1  0  0  0
 17 15  1  0  0  0
 24 18  1  0  0  0
  7 11  1  0  0  0
  8 12  1  0  0  0
 13 14  1  0  0  0
M  END
> <minimizedAffinity>
-7.01203

> <CNNscore>
0.5207277536

> <CNNaffinity>
5.3523149490

> <CNN_VS>
2.7870988846

> <CNNaffinity_variance>
0.0900457725

$$$$
[H]ON([H])C(=O)c1c([H])nc(N([H])C2(c3c([H])c([H])c(F)c([H])c3[H])C([H])([H])C2([H])[H])nc1[H]


 24 26  0  0  0  0  0  0  0  0999 V2000
  161.0860  142.4161  185.8441 C   0  0  0  0  0  0  0  0  0  0  0  0
  161.7164  142.1524  184.6166 C   0  0  0  0  0  0  0  0  0  0  0  0
  160.9479  141.7021  183.6387 N   0  0  0  0  0  0  0  0  0  0  0  0
  159.6320  141.4768  183.7157 C   0  0  0  0  0  0  0  0  0  0  0  0
  159.0048  141.7169  184.8703 N   0  0  0  0  0  0  0  0  0  0  0  0
  159.7307  142.1802  185.9164 C   0  0  0  0  0  0  0  0  0  0  0  0
  163.3776  142.6513  188.8165 O   0  0  0  0  0  0  0  0  0  0  0  0
  162.6825  142.1156  187.8080 N   0  0  0  0  0  0  0  0  0  0  0  0
  161.8743  142.9149  186.9609 C   0  0  0  0  0  0  0  0  0  0  0  0
  161.8308  144.1656  187.1905 O   0  0  0  0  0  0  0  0  0  0  0  0
  163.0525  142.3306  189.6639 H   0  0  0  0  0  0  0  0  0  0  0  0
  162.7493  141.0779  187.6701 H   0  0  0  0  0  0  0  0  0  0  0  0
  158.9557  141.0093  182.5620 N   0  0  0  0  0  0  0  0  0  0  0  0
  158.8615  139.9666  182.3849 H   0  0  0  0  0  0  0  0  0  0  0  0
  158.3689  141.8872  181.5684 C   0  0  0  0  0  0  0  0  0  0  0  0
  158.4157  141.3102  180.1131 C   0  0  0  0  0  0  0  0  0  0  0  0
  159.1632  142.5249  180.5281 C   0  0  0  0  0  0  0  0  0  0  0  0
  156.9706  142.2908  181.9194 C   0  0  0  0  0  0  0  0  0  0  0  0
  156.7192  143.6438  181.9707 C   0  0  0  0  0  0  0  0  0  0  0  0
  155.4774  144.1404  182.2946 C   0  0  0  0  0  0  0  0  0  0  0  0
  154.4475  143.2673  182.5771 C   0  0  0  0  0  0  0  0  0  0  0  0
  153.2185  143.7617  182.9005 F   0  0  0  0  0  0  0  0  0  0  0  0
  154.6906  141.9113  182.5284 C   0  0  0  0  0  0  0  0  0  0  0  0
  155.9581  141.4127  182.1981 C   0  0  0  0  0  0  0  0  0  0  0  0
  7  8  1  0  0  0
  8  9  1  0  0  0
  9 10  2  0  0  0
  9  1  1  0  0  0
  1  2  2  0  0  0
  2  3  1  0  0  0
  3  4  2  0  0  0
  4 13  1  0  0  0
 13 15  1  0  0  0
 15 16  1  0  0  0
 16 17  1  0  0  0
 15 18  1  0  0  0
 18 19  2  0  0  0
 19 20  1  0  0  0
 20 21  2  0  0  0
 21 22  1  0  0  0
 21 23  1  0  0  0
 23 24  2  0  0  0
  4  5  1  0  0  0
  5  6  2  0  0  0
  6  1  1  0  0  0
 17 15  1  0  0  0
 24 18  1  0  0  0
  7 11  1  0  0  0
  8 12  1  0  0  0
 13 14  1  0  0  0
M  END
> <minimizedAffinity>
-8.18465

> <CNNscore>
0.4822789431

> <CNNaffinity>
6.0401129723

> <CNN_VS>
2.9130194187

> <CNNaffinity_variance>
0.1628694236

$$$$
[H]ON([H])C(=O)c1c([H])nc(N([H])C2(c3c([H])c([H])c(F)c([H])c3[H])C([H])([H])C2([H])[H])nc1[H]


 24 26  0  0  0  0  0  0  0  0999 V2000
  160.6637  141.9007  185.1016 C   0  0  0  0  0  0  0  0  0  0  0  0
  160.5415  141.3211  183.8277 C   0  0  0  0  0  0  0  0  0  0  0  0
  159.3138  141.0690  183.4050 N   0  0  0  0  0  0  0  0  0  0  0  0
  158.1858  141.3156  184.0798 C   0  0  0  0  0  0  0  0  0  0  0  0
  158.2700  141.8650  185.2943 N   0  0  0  0  0  0  0  0  0  0  0  0
  159.4977  142.1504  185.7914 C   0  0  0  0  0  0  0  0  0  0  0  0
  163.5035  142.9202  187.3462 O   0  0  0  0  0  0  0  0  0  0  0  0
  162.2563  142.6611  186.9405 N   0  0  0  0  0  0  0  0  0  0  0  0
  161.9868  142.2048  185.6256 C   0  0  0  0  0  0  0  0  0  0  0  0
  162.9741  142.0475  184.8387 O   0  0  0  0  0  0  0  0  0  0  0  0
  163.6122  143.8568  187.5399 H   0  0  0  0  0  0  0  0  0  0  0  0
  161.4802  142.8163  187.6288 H   0  0  0  0  0  0  0  0  0  0  0  0
  156.9474  140.9990  183.4689 N   0  0  0  0  0  0  0  0  0  0  0  0
  156.4161  140.1273  183.7609 H   0  0  0  0  0  0  0  0  0  0  0  0
  156.3379  141.8078  182.4313 C   0  0  0  0  0  0  0  0  0  0  0  0
  155.2731  142.8228  182.9689 C   0  0  0  0  0  0  0  0  0  0  0  0
  154.9312  141.6860  182.0760 C   0  0  0  0  0  0  0  0  0  0  0  0
  157.3539  142.5203  181.5937 C   0  0  0  0  0  0  0  0  0  0  0  0
  157.7516  141.8821  180.4400 C   0  0  0  0  0  0  0  0  0  0  0  0
  158.6888  142.4284  179.5935 C   0  0  0  0  0  0  0  0  0  0  0  0
  159.2521  143.6500  179.8988 C   0  0  0  0  0  0  0  0  0  0  0  0
  160.1826  144.1882  179.0598 F   0  0  0  0  0  0  0  0  0  0  0  0
  158.8600  144.2956  181.0519 C   0  0  0  0  0  0  0  0  0  0  0  0
  157.9051  143.7329  181.9097 C   0  0  0  0  0  0  0  0  0  0  0  0
  7  8  1  0  0  0
  8  9  1  0  0  0
  9 10  2  0  0  0
  9  1  1  0  0  0
  1  2  2  0  0  0
  2  3  1  0  0  0
  3  4  2  0  0  0
  4 13  1  0  0  0
 13 15  1  0  0  0
 15 16  1  0  0  0
 16 17  1  0  0  0
 15 18  1  0  0  0
 18 19  2  0  0  0
 19 20  1  0  0  0
 20 21  2  0  0  0
 21 22  1  0  0  0
 21 23  1  0  0  0
 23 24  2  0  0  0
  4  5  1  0  0  0
  5  6  2  0  0  0
  6  1  1  0  0  0
 17 15  1  0  0  0
 24 18  1  0  0  0
  7 11  1  0  0  0
  8 12  1  0  0  0
 13 14  1  0  0  0
M  END
> <minimizedAffinity>
-8.60357

> <CNNscore>
0.4280308187

> <CNNaffinity>
6.1787505150

> <CNN_VS>
2.6446957588

> <CNNaffinity_variance>
0.1163554415

$$$$
[H]ON([H])C(=O)c1c([H])nc(N([H])C2(c3c([H])c([H])c(F)c([H])c3[H])C([H])([H])C2([H])[H])nc1[H]


 24 26  0  0  0  0  0  0  0  0999 V2000
  153.4282  138.2920  184.1647 C   0  0  0  0  0  0  0  0  0  0  0  0
  153.3287  138.8068  182.8614 C   0  0  0  0  0  0  0  0  0  0  0  0
  154.2040  139.7388  182.5224 N   0  0  0  0  0  0  0  0  0  0  0  0
  155.1688  140.2312  183.3067 C   0  0  0  0  0  0  0  0  0  0  0  0
  155.2874  139.7623  184.5518 N   0  0  0  0  0  0  0  0  0  0  0  0
  154.4233  138.8050  184.9675 C   0  0  0  0  0  0  0  0  0  0  0  0
  151.8610  135.3619  185.9256 O   0  0  0  0  0  0  0  0  0  0  0  0
  152.7731  136.2762  185.5802 N   0  0  0  0  0  0  0  0  0  0  0  0
  152.4962  137.2630  184.6008 C   0  0  0  0  0  0  0  0  0  0  0  0
  151.3457  137.2525  184.0576 O   0  0  0  0  0  0  0  0  0  0  0  0
  152.1527  134.4783  185.6792 H   0  0  0  0  0  0  0  0  0  0  0  0
  153.7076  136.2325  186.0547 H   0  0  0  0  0  0  0  0  0  0  0  0
  156.0361  141.2178  182.7764 N   0  0  0  0  0  0  0  0  0  0  0  0
  155.6367  142.0797  182.3018 H   0  0  0  0  0  0  0  0  0  0  0  0
  157.4820  141.1251  182.8326 C   0  0  0  0  0  0  0  0  0  0  0  0
  158.0233  139.6599  182.7179 C   0  0  0  0  0  0  0  0  0  0  0  0
  158.1779  140.4879  183.9415 C   0  0  0  0  0  0  0  0  0  0  0  0
  158.1489  142.0030  181.8197 C   0  0  0  0  0  0  0  0  0  0  0  0
  158.5983  143.2243  182.2701 C   0  0  0  0  0  0  0  0  0  0  0  0
  159.2159  144.1252  181.4331 C   0  0  0  0  0  0  0  0  0  0  0  0
  159.3959  143.8061  180.1032 C   0  0  0  0  0  0  0  0  0  0  0  0
  160.0057  144.7014  179.2750 F   0  0  0  0  0  0  0  0  0  0  0  0
  158.9487  142.5856  179.6439 C   0  0  0  0  0  0  0  0  0  0  0  0
  158.3202  141.6732  180.5022 C   0  0  0  0  0  0  0  0  0  0  0  0
  7  8  1  0  0  0
  8  9  1  0  0  0
  9 10  2  0  0  0
  9  1  1  0  0  0
  1  2  2  0  0  0
  2  3  1  0  0  0
  3  4  2  0  0  0
  4 13  1  0  0  0
 13 15  1  0  0  0
 15 16  1  0  0  0
 16 17  1  0  0  0
 15 18  1  0  0  0
 18 19  2  0  0  0
 19 20  1  0  0  0
 20 21  2  0  0  0
 21 22  1  0  0  0
 21 23  1  0  0  0
 23 24  2  0  0  0
  4  5  1  0  0  0
  5  6  2  0  0  0
  6  1  1  0  0  0
 17 15  1  0  0  0
 24 18  1  0  0  0
  7 11  1  0  0  0
  8 12  1  0  0  0
 13 14  1  0  0  0
M  END
> <minimizedAffinity>
-6.52799

> <CNNscore>
0.4156854153

> <CNNaffinity>
5.4408879280

> <CNN_VS>
2.2616977692

> <CNNaffinity_variance>
0.4980385303

$$$$
[H]ON([H])C(=O)c1c([H])nc(N([H])C2(c3c([H])c([H])c(F)c([H])c3[H])C([H])([H])C2([H])[H])nc1[H]


 24 26  0  0  0  0  0  0  0  0999 V2000
  153.6034  140.3809  182.2441 C   0  0  0  0  0  0  0  0  0  0  0  0
  154.2370  139.5902  183.2172 C   0  0  0  0  0  0  0  0  0  0  0  0
  155.2412  140.1472  183.8735 N   0  0  0  0  0  0  0  0  0  0  0  0
  155.7036  141.3889  183.6929 C   0  0  0  0  0  0  0  0  0  0  0  0
  155.1223  142.1643  182.7736 N   0  0  0  0  0  0  0  0  0  0  0  0
  154.0860  141.6583  182.0624 C   0  0  0  0  0  0  0  0  0  0  0  0
  151.3199  139.3182  179.4515 O   0  0  0  0  0  0  0  0  0  0  0  0
  152.3781  139.8474  180.0737 N   0  0  0  0  0  0  0  0  0  0  0  0
  152.4903  139.8285  181.4868 C   0  0  0  0  0  0  0  0  0  0  0  0
  151.5477  139.2884  182.1491 O   0  0  0  0  0  0  0  0  0  0  0  0
  150.8144  139.9999  178.9973 H   0  0  0  0  0  0  0  0  0  0  0  0
  153.1215  140.2868  179.4781 H   0  0  0  0  0  0  0  0  0  0  0  0
  156.7805  141.8352  184.4980 N   0  0  0  0  0  0  0  0  0  0  0  0
  156.5893  142.3353  185.4150 H   0  0  0  0  0  0  0  0  0  0  0  0
  158.1741  141.6563  184.1401 C   0  0  0  0  0  0  0  0  0  0  0  0
  158.7336  140.2338  184.4814 C   0  0  0  0  0  0  0  0  0  0  0  0
  159.2167  141.4745  185.1400 C   0  0  0  0  0  0  0  0  0  0  0  0
  158.4402  141.9852  182.7039 C   0  0  0  0  0  0  0  0  0  0  0  0
  158.7199  143.3034  182.4201 C   0  0  0  0  0  0  0  0  0  0  0  0
  158.9690  143.7333  181.1369 C   0  0  0  0  0  0  0  0  0  0  0  0
  158.9410  142.8268  180.0975 C   0  0  0  0  0  0  0  0  0  0  0  0
  159.1854  143.2556  178.8264 F   0  0  0  0  0  0  0  0  0  0  0  0
  158.6615  141.5052  180.3728 C   0  0  0  0  0  0  0  0  0  0  0  0
  158.4084  141.0745  181.6823 C   0  0  0  0  0  0  0  0  0  0  0  0
  7  8  1  0  0  0
  8  9  1  0  0  0
  9 10  2  0  0  0
  9  1  1  0  0  0
  1  2  2  0  0  0
  2  3  1  0  0  0
  3  4  2  0  0  0
  4 13  1  0  0  0
 13 15  1  0  0  0
 15 16  1  0  0  0
 16 17  1  0  0  0
 15 18  1  0  0  0
 18 19  2  0  0  0
 19 20  1  0  0  0
 20 21  2  0  0  0
 21 22  1  0  0  0
 21 23  1  0  0  0
 23 24  2  0  0  0
  4  5  1  0  0  0
  5  6  2  0  0  0
  6  1  1  0  0  0
 17 15  1  0  0  0
 24 18  1  0  0  0
  7 11  1  0  0  0
  8 12  1  0  0  0
 13 14  1  0  0  0
M  END
> <minimizedAffinity>
-7.73924

> <CNNscore>
0.4045884609

> <CNNaffinity>
5.8219413757

> <CNN_VS>
2.3554902077

> <CNNaffinity_variance>
0.2156579942

$$$$
[H]ON([H])C(=O)c1c([H])nc(N([H])C2(c3c([H])c([H])c(F)c([H])c3[H])C([H])([H])C2([H])[H])nc1[H]


 24 26  0  0  0  0  0  0  0  0999 V2000
  154.4151  140.4125  182.9483 C   0  0  0  0  0  0  0  0  0  0  0  0
  154.7018  141.7859  182.8755 C   0  0  0  0  0  0  0  0  0  0  0  0
  155.8334  142.1867  183.4310 N   0  0  0  0  0  0  0  0  0  0  0  0
  156.7224  141.4044  184.0522 C   0  0  0  0  0  0  0  0  0  0  0  0
  156.4767  140.0943  184.1385 N   0  0  0  0  0  0  0  0  0  0  0  0
  155.3347  139.6130  183.5910 C   0  0  0  0  0  0  0  0  0  0  0  0
  151.3701  139.9779  180.7848 O   0  0  0  0  0  0  0  0  0  0  0  0
  152.4969  140.5064  181.2726 N   0  0  0  0  0  0  0  0  0  0  0  0
  153.1865  139.9055  182.3557 C   0  0  0  0  0  0  0  0  0  0  0  0
  152.6979  138.8408  182.8520 O   0  0  0  0  0  0  0  0  0  0  0  0
  150.6244  140.5688  180.9306 H   0  0  0  0  0  0  0  0  0  0  0  0
  152.8498  141.3895  180.8301 H   0  0  0  0  0  0  0  0  0  0  0  0
  157.8970  141.9974  184.5772 N   0  0  0  0  0  0  0  0  0  0  0  0
  157.8977  142.4007  185.5595 H   0  0  0  0  0  0  0  0  0  0  0  0
  159.1396  142.1014  183.8372 C   0  0  0  0  0  0  0  0  0  0  0  0
  159.1231  143.2121  182.7331 C   0  0  0  0  0  0  0  0  0  0  0  0
  159.2339  141.7633  182.4242 C   0  0  0  0  0  0  0  0  0  0  0  0
  160.3239  142.2832  184.7351 C   0  0  0  0  0  0  0  0  0  0  0  0
  160.0552  142.6492  186.0352 C   0  0  0  0  0  0  0  0  0  0  0  0
  161.0586  142.8592  186.9530 C   0  0  0  0  0  0  0  0  0  0  0  0
  162.3746  142.7008  186.5714 C   0  0  0  0  0  0  0  0  0  0  0  0
  163.3674  142.9121  187.4819 F   0  0  0  0  0  0  0  0  0  0  0  0
  162.6525  142.3349  185.2716 C   0  0  0  0  0  0  0  0  0  0  0  0
  161.6253  142.1230  184.3420 C   0  0  0  0  0  0  0  0  0  0  0  0
  7  8  1  0  0  0
  8  9  1  0  0  0
  9 10  2  0  0  0
  9  1  1  0  0  0
  1  2  2  0  0  0
  2  3  1  0  0  0
  3  4  2  0  0  0
  4 13  1  0  0  0
 13 15  1  0  0  0
 15 16  1  0  0  0
 16 17  1  0  0  0
 15 18  1  0  0  0
 18 19  2  0  0  0
 19 20  1  0  0  0
 20 21  2  0  0  0
 21 22  1  0  0  0
 21 23  1  0  0  0
 23 24  2  0  0  0
  4  5  1  0  0  0
  5  6  2  0  0  0
  6  1  1  0  0  0
 17 15  1  0  0  0
 24 18  1  0  0  0
  7 11  1  0  0  0
  8 12  1  0  0  0
 13 14  1  0  0  0
M  END
> <minimizedAffinity>
-8.10133

> <CNNscore>
0.3947933614

> <CNNaffinity>
5.9623174667

> <CNN_VS>
2.3538832664

> <CNNaffinity_variance>
0.4753506184

$$$$
[H]ON([H])C(=O)c1c([H])nc(N([H])C2(c3c([H])c([H])c(F)c([H])c3[H])C([H])([H])C2([H])[H])nc1[H]


 24 26  0  0  0  0  0  0  0  0999 V2000
  155.1014  140.3986  183.4265 C   0  0  0  0  0  0  0  0  0  0  0  0
  155.3564  141.7749  183.5471 C   0  0  0  0  0  0  0  0  0  0  0  0
  156.5083  142.1195  184.0984 N   0  0  0  0  0  0  0  0  0  0  0  0
  157.4453  141.2782  184.5484 C   0  0  0  0  0  0  0  0  0  0  0  0
  157.2308  139.9636  184.4487 N   0  0  0  0  0  0  0  0  0  0  0  0
  156.0704  139.5380  183.8937 C   0  0  0  0  0  0  0  0  0  0  0  0
  152.1269  140.0182  181.1573 O   0  0  0  0  0  0  0  0  0  0  0  0
  153.2816  140.4838  181.6440 N   0  0  0  0  0  0  0  0  0  0  0  0
  153.8527  139.9519  182.8275 C   0  0  0  0  0  0  0  0  0  0  0  0
  153.2295  139.0115  183.4157 O   0  0  0  0  0  0  0  0  0  0  0  0
  151.4441  140.6959  181.1902 H   0  0  0  0  0  0  0  0  0  0  0  0
  153.7478  141.2655  181.1226 H   0  0  0  0  0  0  0  0  0  0  0  0
  158.6348  141.8185  185.0964 N   0  0  0  0  0  0  0  0  0  0  0  0
  158.8197  141.7516  186.1399 H   0  0  0  0  0  0  0  0  0  0  0  0
  159.6490  142.4860  184.3039 C   0  0  0  0  0  0  0  0  0  0  0  0
  161.0991  141.9524  184.5593 C   0  0  0  0  0  0  0  0  0  0  0  0
  160.6711  143.3329  184.9023 C   0  0  0  0  0  0  0  0  0  0  0  0
  159.3382  142.4570  182.8396 C   0  0  0  0  0  0  0  0  0  0  0  0
  159.0287  143.6653  182.2560 C   0  0  0  0  0  0  0  0  0  0  0  0
  158.7123  143.7675  180.9207 C   0  0  0  0  0  0  0  0  0  0  0  0
  158.7025  142.6340  180.1347 C   0  0  0  0  0  0  0  0  0  0  0  0
  158.3859  142.7372  178.8123 F   0  0  0  0  0  0  0  0  0  0  0  0
  159.0108  141.4202  180.7109 C   0  0  0  0  0  0  0  0  0  0  0  0
  159.3317  141.3237  182.0718 C   0  0  0  0  0  0  0  0  0  0  0  0
  7  8  1  0  0  0
  8  9  1  0  0  0
  9 10  2  0  0  0
  9  1  1  0  0  0
  1  2  2  0  0  0
  2  3  1  0  0  0
  3  4  2  0  0  0
  4 13  1  0  0  0
 13 15  1  0  0  0
 15 16  1  0  0  0
 16 17  1  0  0  0
 15 18  1  0  0  0
 18 19  2  0  0  0
 19 20  1  0  0  0
 20 21  2  0  0  0
 21 22  1  0  0  0
 21 23  1  0  0  0
 23 24  2  0  0  0
  4  5  1  0  0  0
  5  6  2  0  0  0
  6  1  1  0  0  0
 17 15  1  0  0  0
 24 18  1  0  0  0
  7 11  1  0  0  0
  8 12  1  0  0  0
 13 14  1  0  0  0
M  END
> <minimizedAffinity>
-7.77690

> <CNNscore>
0.3746708930

> <CNNaffinity>
6.0367193222

> <CNN_VS>
2.2617831230

> <CNNaffinity_variance>
0.3309317827

$$$$
[H]c1c([H])c([H])c2c(c1[H])Sc1c([H])c([H])c(c([H])c1[H])C(=Nc1c([H])c([H])c3c(c1[H])C([H])([H])C([H])([H])C([H])([H])C3([H])[H])C(=O)C2([H])[H]


 28 32  0  0  0  0  0  0  0  0999 V2000
  151.4498  137.1864  186.6373 O   0  0  0  0  0  0  0  0  0  0  0  0
  152.5607  137.1762  187.6451 C   0  0  0  0  0  0  0  0  0  0  0  0
  152.0683  136.4651  188.8707 C   0  0  0  0  0  0  0  0  0  0  0  0
  152.4504  136.0193  190.2510 C   0  0  0  0  0  0  0  0  0  0  0  0
  151.1340  135.3798  190.5793 C   0  0  0  0  0  0  0  0  0  0  0  0
  150.9284  134.7301  191.9156 C   0  0  0  0  0  0  0  0  0  0  0  0
  152.0393  134.7199  192.9234 C   0  0  0  0  0  0  0  0  0  0  0  0
  153.3558  135.3594  192.5951 C   0  0  0  0  0  0  0  0  0  0  0  0
  153.5613  136.0092  191.2588 C   0  0  0  0  0  0  0  0  0  0  0  0
  154.9766  136.4384  191.5093 S   0  0  0  0  0  0  0  0  0  0  0  0
  156.1557  137.1432  190.9067 C   0  0  0  0  0  0  0  0  0  0  0  0
  156.6481  137.8543  189.6812 C   0  0  0  0  0  0  0  0  0  0  0  0
  156.2660  138.3001  188.3009 C   0  0  0  0  0  0  0  0  0  0  0  0
  155.1551  138.3103  187.2930 C   0  0  0  0  0  0  0  0  0  0  0  0
  154.6626  137.5992  188.5185 C   0  0  0  0  0  0  0  0  0  0  0  0
  155.0448  137.1534  189.8988 C   0  0  0  0  0  0  0  0  0  0  0  0
  153.7398  137.8810  187.0426 C   0  0  0  0  0  0  0  0  0  0  0  0
  153.3575  138.3268  185.6622 N   0  0  0  0  0  0  0  0  0  0  0  0
  154.3476  139.0660  184.8118 C   0  0  0  0  0  0  0  0  0  0  0  0
  153.8691  139.9291  183.6820 C   0  0  0  0  0  0  0  0  0  0  0  0
  154.8592  140.6683  182.8316 C   0  0  0  0  0  0  0  0  0  0  0  0
  156.3278  140.5444  183.1109 C   0  0  0  0  0  0  0  0  0  0  0  0
  157.3179  141.2836  182.2604 C   0  0  0  0  0  0  0  0  0  0  0  0
  158.7865  141.1598  182.5396 C   0  0  0  0  0  0  0  0  0  0  0  0
  159.2650  140.2967  183.6693 C   0  0  0  0  0  0  0  0  0  0  0  0
  158.2748  139.5575  184.5197 C   0  0  0  0  0  0  0  0  0  0  0  0
  156.8063  139.6814  184.2405 C   0  0  0  0  0  0  0  0  0  0  0  0
  155.8162  138.9421  185.0910 C   0  0  0  0  0  0  0  0  0  0  0  0
  1  2  2  0  0  0
  2  3  1  0  0  0
  3  4  1  0  0  0
  4  5  2  0  0  0
  5  6  1  0  0  0
  6  7  2  0  0  0
  7  8  1  0  0  0
  8  9  2  0  0  0
  9 10  1  0  0  0
 10 11  1  0  0  0
 11 12  2  0  0  0
 12 13  1  0  0  0
 13 14  2  0  0  0
 14 15  1  0  0  0
 15 16  2  0  0  0
 14 17  1  0  0  0
 17 18  2  0  0  0
 18 19  1  0  0  0
 19 20  2  0  0  0
 20 21  1  0  0  0
 21 22  2  0  0  0
 22 23  1  0  0  0
 23 24  1  0  0  0
 24 25  1  0  0  0
 25 26  1  0  0  0
 26 27  1  0  0  0
 27 28  2  0  0  0
 17  2  1  0  0  0
 28 19  1  0  0  0
  9  4  1  0  0  0
 16 11  1  0  0  0
 27 22  1  0  0  0
M  END
> <minimizedAffinity>
-8.88435

> <CNNscore>
0.4621433020

> <CNNaffinity>
5.9351940155

> <CNN_VS>
2.7429101467

> <CNNaffinity_variance>
0.0760677606

$$$$
[H]c1c([H])c([H])c2c(c1[H])Sc1c([H])c([H])c(c([H])c1[H])C(=Nc1c([H])c([H])c3c(c1[H])C([H])([H])C([H])([H])C([H])([H])C3([H])[H])C(=O)C2([H])[H]


 28 32  0  0  0  0  0  0  0  0999 V2000
  152.3029  136.9756  184.8203 O   0  0  0  0  0  0  0  0  0  0  0  0
  151.7031  137.3965  183.5115 C   0  0  0  0  0  0  0  0  0  0  0  0
  150.4649  136.5806  183.2853 C   0  0  0  0  0  0  0  0  0  0  0  0
  149.3290  136.3364  182.3366 C   0  0  0  0  0  0  0  0  0  0  0  0
  148.6702  135.2646  183.1534 C   0  0  0  0  0  0  0  0  0  0  0  0
  147.4116  134.6136  182.6613 C   0  0  0  0  0  0  0  0  0  0  0  0
  146.8118  135.0345  181.3524 C   0  0  0  0  0  0  0  0  0  0  0  0
  147.4706  136.1063  180.5357 C   0  0  0  0  0  0  0  0  0  0  0  0
  148.7292  136.7572  181.0277 C   0  0  0  0  0  0  0  0  0  0  0  0
  148.8947  137.6823  179.8586 S   0  0  0  0  0  0  0  0  0  0  0  0
  149.7621  138.7584  179.2758 C   0  0  0  0  0  0  0  0  0  0  0  0
  151.0004  139.5743  179.5020 C   0  0  0  0  0  0  0  0  0  0  0  0
  152.1363  139.8185  180.4507 C   0  0  0  0  0  0  0  0  0  0  0  0
  152.7361  139.3976  181.7596 C   0  0  0  0  0  0  0  0  0  0  0  0
  151.4979  138.5817  181.5334 C   0  0  0  0  0  0  0  0  0  0  0  0
  150.3619  138.3375  180.5847 C   0  0  0  0  0  0  0  0  0  0  0  0
  152.5706  138.4725  182.9286 C   0  0  0  0  0  0  0  0  0  0  0  0
  153.7066  138.7167  183.8774 N   0  0  0  0  0  0  0  0  0  0  0  0
  154.7448  139.7498  183.5541 C   0  0  0  0  0  0  0  0  0  0  0  0
  154.5715  140.6388  182.3583 C   0  0  0  0  0  0  0  0  0  0  0  0
  155.6097  141.6719  182.0350 C   0  0  0  0  0  0  0  0  0  0  0  0
  156.8214  141.8162  182.9076 C   0  0  0  0  0  0  0  0  0  0  0  0
  157.8597  142.8494  182.5843 C   0  0  0  0  0  0  0  0  0  0  0  0
  159.0713  142.9937  183.4567 C   0  0  0  0  0  0  0  0  0  0  0  0
  159.2446  142.1048  184.6525 C   0  0  0  0  0  0  0  0  0  0  0  0
  158.2063  141.0716  184.9757 C   0  0  0  0  0  0  0  0  0  0  0  0
  156.9947  140.9273  184.1033 C   0  0  0  0  0  0  0  0  0  0  0  0
  155.9564  139.8941  184.4266 C   0  0  0  0  0  0  0  0  0  0  0  0
  1  2  2  0  0  0
  2  3  1  0  0  0
  3  4  1  0  0  0
  4  5  2  0  0  0
  5  6  1  0  0  0
  6  7  2  0  0  0
  7  8  1  0  0  0
  8  9  2  0  0  0
  9 10  1  0  0  0
 10 11  1  0  0  0
 11 12  2  0  0  0
 12 13  1  0  0  0
 13 14  2  0  0  0
 14 15  1  0  0  0
 15 16  2  0  0  0
 14 17  1  0  0  0
 17 18  2  0  0  0
 18 19  1  0  0  0
 19 20  2  0  0  0
 20 21  1  0  0  0
 21 22  2  0  0  0
 22 23  1  0  0  0
 23 24  1  0  0  0
 24 25  1  0  0  0
 25 26  1  0  0  0
 26 27  1  0  0  0
 27 28  2  0  0  0
 17  2  1  0  0  0
 28 19  1  0  0  0
  9  4  1  0  0  0
 16 11  1  0  0  0
 27 22  1  0  0  0
M  END
> <minimizedAffinity>
-8.66287

> <CNNscore>
0.4363669753

> <CNNaffinity>
5.9922924042

> <CNN_VS>
2.6148386002

> <CNNaffinity_variance>
0.0839096755

$$$$
[H]c1c([H])c([H])c2c(c1[H])Sc1c([H])c([H])c(c([H])c1[H])C(=Nc1c([H])c([H])c3c(c1[H])C([H])([H])C([H])([H])C([H])([H])C3([H])[H])C(=O)C2([H])[H]


 28 32  0  0  0  0  0  0  0  0999 V2000
  153.1708  137.6477  184.7912 O   0  0  0  0  0  0  0  0  0  0  0  0
  152.4052  137.9113  183.5285 C   0  0  0  0  0  0  0  0  0  0  0  0
  151.3037  136.8975  183.4339 C   0  0  0  0  0  0  0  0  0  0  0  0
  150.1498  136.4339  182.5951 C   0  0  0  0  0  0  0  0  0  0  0  0
  149.7450  135.3047  183.4957 C   0  0  0  0  0  0  0  0  0  0  0  0
  148.5747  134.4393  183.1336 C   0  0  0  0  0  0  0  0  0  0  0  0
  147.8091  134.7029  181.8709 C   0  0  0  0  0  0  0  0  0  0  0  0
  148.2140  135.8320  180.9703 C   0  0  0  0  0  0  0  0  0  0  0  0
  149.3843  136.6975  181.3324 C   0  0  0  0  0  0  0  0  0  0  0  0
  149.2996  137.5878  180.1281 S   0  0  0  0  0  0  0  0  0  0  0  0
  149.9279  138.7645  179.4422 C   0  0  0  0  0  0  0  0  0  0  0  0
  151.0294  139.7783  179.5368 C   0  0  0  0  0  0  0  0  0  0  0  0
  152.1833  140.2420  180.3756 C   0  0  0  0  0  0  0  0  0  0  0  0
  152.9489  139.9783  181.6383 C   0  0  0  0  0  0  0  0  0  0  0  0
  151.8474  138.9645  181.5438 C   0  0  0  0  0  0  0  0  0  0  0  0
  150.6934  138.5009  180.7049 C   0  0  0  0  0  0  0  0  0  0  0  0
  153.0336  139.0881  182.8426 C   0  0  0  0  0  0  0  0  0  0  0  0
  154.1875  139.5517  183.6815 N   0  0  0  0  0  0  0  0  0  0  0  0
  155.0119  140.7245  183.2403 C   0  0  0  0  0  0  0  0  0  0  0  0
  154.5618  142.1198  183.5581 C   0  0  0  0  0  0  0  0  0  0  0  0
  155.3862  143.2926  183.1170 C   0  0  0  0  0  0  0  0  0  0  0  0
  156.6608  143.0703  182.3579 C   0  0  0  0  0  0  0  0  0  0  0  0
  157.4853  144.2432  181.9167 C   0  0  0  0  0  0  0  0  0  0  0  0
  158.7598  144.0210  181.1577 C   0  0  0  0  0  0  0  0  0  0  0  0
  159.2099  142.6259  180.8398 C   0  0  0  0  0  0  0  0  0  0  0  0
  158.3855  141.4530  181.2811 C   0  0  0  0  0  0  0  0  0  0  0  0
  157.1109  141.6752  182.0401 C   0  0  0  0  0  0  0  0  0  0  0  0
  156.2865  140.5023  182.4813 C   0  0  0  0  0  0  0  0  0  0  0  0
  1  2  2  0  0  0
  2  3  1  0  0  0
  3  4  1  0  0  0
  4  5  2  0  0  0
  5  6  1  0  0  0
  6  7  2  0  0  0
  7  8  1  0  0  0
  8  9  2  0  0  0
  9 10  1  0  0  0
 10 11  1  0  0  0
 11 12  2  0  0  0
 12 13  1  0  0  0
 13 14  2  0  0  0
 14 15  1  0  0  0
 15 16  2  0  0  0
 14 17  1  0  0  0
 17 18  2  0  0  0
 18 19  1  0  0  0
 19 20  2  0  0  0
 20 21  1  0  0  0
 21 22  2  0  0  0
 22 23  1  0  0  0
 23 24  1  0  0  0
 24 25  1  0  0  0
 25 26  1  0  0  0
 26 27  1  0  0  0
 27 28  2  0  0  0
 17  2  1  0  0  0
 28 19  1  0  0  0
  9  4  1  0  0  0
 16 11  1  0  0  0
 27 22  1  0  0  0
M  END
> <minimizedAffinity>
-9.26441

> <CNNscore>
0.4267754257

> <CNNaffinity>
6.1858892441

> <CNN_VS>
2.6399855614

> <CNNaffinity_variance>
0.0910785869

$$$$
[H]c1c([H])c([H])c2c(c1[H])Sc1c([H])c([H])c(c([H])c1[H])C(=Nc1c([H])c([H])c3c(c1[H])C([H])([H])C([H])([H])C([H])([H])C3([H])[H])C(=O)C2([H])[H]


 28 32  0  0  0  0  0  0  0  0999 V2000
  150.6695  134.0842  187.0912 O   0  0  0  0  0  0  0  0  0  0  0  0
  151.8059  134.8789  187.6631 C   0  0  0  0  0  0  0  0  0  0  0  0
  151.4217  135.3063  189.0486 C   0  0  0  0  0  0  0  0  0  0  0  0
  151.8865  136.0616  190.2584 C   0  0  0  0  0  0  0  0  0  0  0  0
  150.6486  135.8298  191.0731 C   0  0  0  0  0  0  0  0  0  0  0  0
  150.5471  136.3927  192.4598 C   0  0  0  0  0  0  0  0  0  0  0  0
  151.6835  137.1875  193.0316 C   0  0  0  0  0  0  0  0  0  0  0  0
  152.9214  137.4193  192.2169 C   0  0  0  0  0  0  0  0  0  0  0  0
  153.0229  136.8563  190.8302 C   0  0  0  0  0  0  0  0  0  0  0  0
  154.3967  137.3869  190.5458 S   0  0  0  0  0  0  0  0  0  0  0  0
  155.4834  137.4507  189.5137 C   0  0  0  0  0  0  0  0  0  0  0  0
  155.8677  137.0233  188.1281 C   0  0  0  0  0  0  0  0  0  0  0  0
  155.4029  136.2679  186.9184 C   0  0  0  0  0  0  0  0  0  0  0  0
  154.2665  135.4732  186.3465 C   0  0  0  0  0  0  0  0  0  0  0  0
  153.8822  135.9006  187.7321 C   0  0  0  0  0  0  0  0  0  0  0  0
  154.3470  136.6560  188.9418 C   0  0  0  0  0  0  0  0  0  0  0  0
  152.8926  134.9427  186.6310 C   0  0  0  0  0  0  0  0  0  0  0  0
  152.4277  134.1873  185.4212 N   0  0  0  0  0  0  0  0  0  0  0  0
  153.3155  134.0803  184.2170 C   0  0  0  0  0  0  0  0  0  0  0  0
  152.9599  134.8102  182.9556 C   0  0  0  0  0  0  0  0  0  0  0  0
  153.8477  134.7031  181.7514 C   0  0  0  0  0  0  0  0  0  0  0  0
  155.0913  133.8662  181.8085 C   0  0  0  0  0  0  0  0  0  0  0  0
  155.9791  133.7591  180.6042 C   0  0  0  0  0  0  0  0  0  0  0  0
  157.2226  132.9222  180.6612 C   0  0  0  0  0  0  0  0  0  0  0  0
  157.5783  132.1924  181.9225 C   0  0  0  0  0  0  0  0  0  0  0  0
  156.6904  132.2994  183.1268 C   0  0  0  0  0  0  0  0  0  0  0  0
  155.4469  133.1363  183.0698 C   0  0  0  0  0  0  0  0  0  0  0  0
  154.5590  133.2434  184.2740 C   0  0  0  0  0  0  0  0  0  0  0  0
  1  2  2  0  0  0
  2  3  1  0  0  0
  3  4  1  0  0  0
  4  5  2  0  0  0
  5  6  1  0  0  0
  6  7  2  0  0  0
  7  8  1  0  0  0
  8  9  2  0  0  0
  9 10  1  0  0  0
 10 11  1  0  0  0
 11 12  2  0  0  0
 12 13  1  0  0  0
 13 14  2  0  0  0
 14 15  1  0  0  0
 15 16  2  0  0  0
 14 17  1  0  0  0
 17 18  2  0  0  0
 18 19  1  0  0  0
 19 20  2  0  0  0
 20 21  1  0  0  0
 21 22  2  0  0  0
 22 23  1  0  0  0
 23 24  1  0  0  0
 24 25  1  0  0  0
 25 26  1  0  0  0
 26 27  1  0  0  0
 27 28  2  0  0  0
 17  2  1  0  0  0
 28 19  1  0  0  0
  9  4  1  0  0  0
 16 11  1  0  0  0
 27 22  1  0  0  0
M  END
> <minimizedAffinity>
-7.01100

> <CNNscore>
0.4167406857

> <CNNaffinity>
5.4617519379

> <CNN_VS>
2.2761342525

> <CNNaffinity_variance>
0.1339365840

$$$$
[H]c1c([H])c([H])c2c(c1[H])Sc1c([H])c([H])c(c([H])c1[H])C(=Nc1c([H])c([H])c3c(c1[H])C([H])([H])C([H])([H])C([H])([H])C3([H])[H])C(=O)C2([H])[H]


 28 32  0  0  0  0  0  0  0  0999 V2000
  153.6908  134.9328  187.2279 O   0  0  0  0  0  0  0  0  0  0  0  0
  152.2530  135.2737  187.4859 C   0  0  0  0  0  0  0  0  0  0  0  0
  151.8077  134.5159  188.7014 C   0  0  0  0  0  0  0  0  0  0  0  0
  150.6440  134.2582  189.6121 C   0  0  0  0  0  0  0  0  0  0  0  0
  151.3621  133.3018  190.5174 C   0  0  0  0  0  0  0  0  0  0  0  0
  150.6424  132.6863  191.6806 C   0  0  0  0  0  0  0  0  0  0  0  0
  149.2046  133.0272  191.9385 C   0  0  0  0  0  0  0  0  0  0  0  0
  148.4865  133.9836  191.0332 C   0  0  0  0  0  0  0  0  0  0  0  0
  149.2062  134.5991  189.8700 C   0  0  0  0  0  0  0  0  0  0  0  0
  148.0436  135.4083  189.3766 S   0  0  0  0  0  0  0  0  0  0  0  0
  147.6001  136.3768  188.3205 C   0  0  0  0  0  0  0  0  0  0  0  0
  148.0453  137.1346  187.1049 C   0  0  0  0  0  0  0  0  0  0  0  0
  149.2091  137.3923  186.1943 C   0  0  0  0  0  0  0  0  0  0  0  0
  150.6469  137.0514  185.9364 C   0  0  0  0  0  0  0  0  0  0  0  0
  150.2017  136.2936  187.1519 C   0  0  0  0  0  0  0  0  0  0  0  0
  149.0379  136.0359  188.0626 C   0  0  0  0  0  0  0  0  0  0  0  0
  151.8095  136.2422  186.4297 C   0  0  0  0  0  0  0  0  0  0  0  0
  152.9733  136.4998  185.5190 N   0  0  0  0  0  0  0  0  0  0  0  0
  152.8240  137.4380  184.3583 C   0  0  0  0  0  0  0  0  0  0  0  0
  153.6726  138.6723  184.2774 C   0  0  0  0  0  0  0  0  0  0  0  0
  153.5232  139.6105  183.1167 C   0  0  0  0  0  0  0  0  0  0  0  0
  152.5252  139.3145  182.0367 C   0  0  0  0  0  0  0  0  0  0  0  0
  152.3758  140.2527  180.8759 C   0  0  0  0  0  0  0  0  0  0  0  0
  151.3778  139.9567  179.7959 C   0  0  0  0  0  0  0  0  0  0  0  0
  150.5292  138.7225  179.8767 C   0  0  0  0  0  0  0  0  0  0  0  0
  150.6786  137.7842  181.0375 C   0  0  0  0  0  0  0  0  0  0  0  0
  151.6766  138.0802  182.1175 C   0  0  0  0  0  0  0  0  0  0  0  0
  151.8260  137.1420  183.2783 C   0  0  0  0  0  0  0  0  0  0  0  0
  1  2  2  0  0  0
  2  3  1  0  0  0
  3  4  1  0  0  0
  4  5  2  0  0  0
  5  6  1  0  0  0
  6  7  2  0  0  0
  7  8  1  0  0  0
  8  9  2  0  0  0
  9 10  1  0  0  0
 10 11  1  0  0  0
 11 12  2  0  0  0
 12 13  1  0  0  0
 13 14  2  0  0  0
 14 15  1  0  0  0
 15 16  2  0  0  0
 14 17  1  0  0  0
 17 18  2  0  0  0
 18 19  1  0  0  0
 19 20  2  0  0  0
 20 21  1  0  0  0
 21 22  2  0  0  0
 22 23  1  0  0  0
 23 24  1  0  0  0
 24 25  1  0  0  0
 25 26  1  0  0  0
 26 27  1  0  0  0
 27 28  2  0  0  0
 17  2  1  0  0  0
 28 19  1  0  0  0
  9  4  1  0  0  0
 16 11  1  0  0  0
 27 22  1  0  0  0
M  END
> <minimizedAffinity>
-6.57367

> <CNNscore>
0.3214623928

> <CNNaffinity>
5.5090093613

> <CNN_VS>
1.7709393501

> <CNNaffinity_variance>
0.3820831478

$$$$
[H]c1c([H])c([H])c2c(c1[H])Sc1c([H])c([H])c(c([H])c1[H])C(=Nc1c([H])c([H])c3c(c1[H])C([H])([H])C([H])([H])C([H])([H])C3([H])[H])C(=O)C2([H])[H]


 28 32  0  0  0  0  0  0  0  0999 V2000
  151.1286  136.8544  185.4820 O   0  0  0  0  0  0  0  0  0  0  0  0
  151.7452  136.9525  186.8459 C   0  0  0  0  0  0  0  0  0  0  0  0
  150.8938  136.1650  187.7973 C   0  0  0  0  0  0  0  0  0  0  0  0
  150.7486  135.7390  189.2282 C   0  0  0  0  0  0  0  0  0  0  0  0
  149.4915  134.9453  189.0287 C   0  0  0  0  0  0  0  0  0  0  0  0
  148.8511  134.2498  190.1931 C   0  0  0  0  0  0  0  0  0  0  0  0
  149.4677  134.3478  191.5570 C   0  0  0  0  0  0  0  0  0  0  0  0
  150.7248  135.1414  191.7565 C   0  0  0  0  0  0  0  0  0  0  0  0
  151.3653  135.8370  190.5921 C   0  0  0  0  0  0  0  0  0  0  0  0
  152.5081  136.4217  191.3680 S   0  0  0  0  0  0  0  0  0  0  0  0
  153.7406  137.2698  191.2596 C   0  0  0  0  0  0  0  0  0  0  0  0
  154.5920  138.0572  190.3082 C   0  0  0  0  0  0  0  0  0  0  0  0
  154.7372  138.4833  188.8773 C   0  0  0  0  0  0  0  0  0  0  0  0
  154.1206  138.3853  187.5135 C   0  0  0  0  0  0  0  0  0  0  0  0
  153.2691  137.5978  188.4648 C   0  0  0  0  0  0  0  0  0  0  0  0
  153.1240  137.1717  189.8957 C   0  0  0  0  0  0  0  0  0  0  0  0
  152.9777  137.8005  186.7376 C   0  0  0  0  0  0  0  0  0  0  0  0
  153.1228  138.2266  185.3066 N   0  0  0  0  0  0  0  0  0  0  0  0
  154.2768  139.0919  184.8951 C   0  0  0  0  0  0  0  0  0  0  0  0
  155.6759  138.7073  185.2757 C   0  0  0  0  0  0  0  0  0  0  0  0
  156.8299  139.5726  184.8642 C   0  0  0  0  0  0  0  0  0  0  0  0
  156.5849  140.8227  184.0721 C   0  0  0  0  0  0  0  0  0  0  0  0
  157.7390  141.6880  183.6606 C   0  0  0  0  0  0  0  0  0  0  0  0
  157.4940  142.9381  182.8685 C   0  0  0  0  0  0  0  0  0  0  0  0
  156.0950  143.3227  182.4879 C   0  0  0  0  0  0  0  0  0  0  0  0
  154.9410  142.4574  182.8994 C   0  0  0  0  0  0  0  0  0  0  0  0
  155.1859  141.2073  183.6915 C   0  0  0  0  0  0  0  0  0  0  0  0
  154.0319  140.3419  184.1030 C   0  0  0  0  0  0  0  0  0  0  0  0
  1  2  2  0  0  0
  2  3  1  0  0  0
  3  4  1  0  0  0
  4  5  2  0  0  0
  5  6  1  0  0  0
  6  7  2  0  0  0
  7  8  1  0  0  0
  8  9  2  0  0  0
  9 10  1  0  0  0
 10 11  1  0  0  0
 11 12  2  0  0  0
 12 13  1  0  0  0
 13 14  2  0  0  0
 14 15  1  0  0  0
 15 16  2  0  0  0
 14 17  1  0  0  0
 17 18  2  0  0  0
 18 19  1  0  0  0
 19 20  2  0  0  0
 20 21  1  0  0  0
 21 22  2  0  0  0
 22 23  1  0  0  0
 23 24  1  0  0  0
 24 25  1  0  0  0
 25 26  1  0  0  0
 26 27  1  0  0  0
 27 28  2  0  0  0
 17  2  1  0  0  0
 28 19  1  0  0  0
  9  4  1  0  0  0
 16 11  1  0  0  0
 27 22  1  0  0  0
M  END
> <minimizedAffinity>
-8.81014

> <CNNscore>
0.3116447031

> <CNNaffinity>
5.7141447067

> <CNN_VS>
1.7807829380

> <CNNaffinity_variance>
0.0912590027

$$$$
[H]c1c([H])c([H])c2c(c1[H])Sc1c([H])c([H])c(c([H])c1[H])C(=Nc1c([H])c([H])c3c(c1[H])C([H])([H])C([H])([H])C([H])([H])C3([H])[H])C(=O)C2([H])[H]


 28 32  0  0  0  0  0  0  0  0999 V2000
  155.1633  139.8578  183.9212 O   0  0  0  0  0  0  0  0  0  0  0  0
  153.9133  139.0287  183.9067 C   0  0  0  0  0  0  0  0  0  0  0  0
  153.1869  139.3075  182.6243 C   0  0  0  0  0  0  0  0  0  0  0  0
  151.9655  138.9675  181.8228 C   0  0  0  0  0  0  0  0  0  0  0  0
  152.2807  139.8693  180.6664 C   0  0  0  0  0  0  0  0  0  0  0  0
  151.3460  139.9420  179.4955 C   0  0  0  0  0  0  0  0  0  0  0  0
  150.0961  139.1129  179.4810 C   0  0  0  0  0  0  0  0  0  0  0  0
  149.7808  138.2110  180.6374 C   0  0  0  0  0  0  0  0  0  0  0  0
  150.7155  138.1383  181.8083 C   0  0  0  0  0  0  0  0  0  0  0  0
  149.9146  137.1368  182.5864 S   0  0  0  0  0  0  0  0  0  0  0  0
  149.8684  136.3454  183.8598 C   0  0  0  0  0  0  0  0  0  0  0  0
  150.5949  136.0666  185.1422 C   0  0  0  0  0  0  0  0  0  0  0  0
  151.8163  136.4066  185.9438 C   0  0  0  0  0  0  0  0  0  0  0  0
  153.0663  137.2358  185.9583 C   0  0  0  0  0  0  0  0  0  0  0  0
  152.3399  137.5147  184.6759 C   0  0  0  0  0  0  0  0  0  0  0  0
  151.1184  137.1746  183.8743 C   0  0  0  0  0  0  0  0  0  0  0  0
  153.8672  138.2373  185.1802 C   0  0  0  0  0  0  0  0  0  0  0  0
  155.0887  138.5774  185.9817 N   0  0  0  0  0  0  0  0  0  0  0  0
  155.3138  137.9312  187.3165 C   0  0  0  0  0  0  0  0  0  0  0  0
  154.5921  138.4420  188.5284 C   0  0  0  0  0  0  0  0  0  0  0  0
  154.8172  137.7958  189.8631 C   0  0  0  0  0  0  0  0  0  0  0  0
  155.7639  136.6387  189.9861 C   0  0  0  0  0  0  0  0  0  0  0  0
  155.9889  135.9924  191.3209 C   0  0  0  0  0  0  0  0  0  0  0  0
  156.9355  134.8354  191.4440 C   0  0  0  0  0  0  0  0  0  0  0  0
  157.6571  134.3246  190.2322 C   0  0  0  0  0  0  0  0  0  0  0  0
  157.4321  134.9709  188.8974 C   0  0  0  0  0  0  0  0  0  0  0  0
  156.4854  136.1279  188.7743 C   0  0  0  0  0  0  0  0  0  0  0  0
  156.2604  136.7742  187.4395 C   0  0  0  0  0  0  0  0  0  0  0  0
  1  2  2  0  0  0
  2  3  1  0  0  0
  3  4  1  0  0  0
  4  5  2  0  0  0
  5  6  1  0  0  0
  6  7  2  0  0  0
  7  8  1  0  0  0
  8  9  2  0  0  0
  9 10  1  0  0  0
 10 11  1  0  0  0
 11 12  2  0  0  0
 12 13  1  0  0  0
 13 14  2  0  0  0
 14 15  1  0  0  0
 15 16  2  0  0  0
 14 17  1  0  0  0
 17 18  2  0  0  0
 18 19  1  0  0  0
 19 20  2  0  0  0
 20 21  1  0  0  0
 21 22  2  0  0  0
 22 23  1  0  0  0
 23 24  1  0  0  0
 24 25  1  0  0  0
 25 26  1  0  0  0
 26 27  1  0  0  0
 27 28  2  0  0  0
 17  2  1  0  0  0
 28 19  1  0  0  0
  9  4  1  0  0  0
 16 11  1  0  0  0
 27 22  1  0  0  0
M  END
> <minimizedAffinity>
-8.77544

> <CNNscore>
0.2908467948

> <CNNaffinity>
5.3732810020

> <CNN_VS>
1.5628015995

> <CNNaffinity_variance>
0.1204196215

$$$$
[H]c1c([H])c([H])c2c(c1[H])Sc1c([H])c([H])c(c([H])c1[H])C(=Nc1c([H])c([H])c3c(c1[H])C([H])([H])C([H])([H])C([H])([H])C3([H])[H])C(=O)C2([H])[H]


 28 32  0  0  0  0  0  0  0  0999 V2000
  154.8592  137.9085  185.2772 O   0  0  0  0  0  0  0  0  0  0  0  0
  153.9612  137.1878  186.2385 C   0  0  0  0  0  0  0  0  0  0  0  0
  154.2920  137.6586  187.6238 C   0  0  0  0  0  0  0  0  0  0  0  0
  153.9414  137.5042  189.0741 C   0  0  0  0  0  0  0  0  0  0  0  0
  154.9444  138.4961  189.5843 C   0  0  0  0  0  0  0  0  0  0  0  0
  155.0492  138.7672  191.0558 C   0  0  0  0  0  0  0  0  0  0  0  0
  154.1512  138.0465  192.0171 C   0  0  0  0  0  0  0  0  0  0  0  0
  153.1483  137.0547  191.5069 C   0  0  0  0  0  0  0  0  0  0  0  0
  153.0434  136.7835  190.0354 C   0  0  0  0  0  0  0  0  0  0  0  0
  151.9409  135.7719  190.1406 S   0  0  0  0  0  0  0  0  0  0  0  0
  151.0551  134.8556  189.3495 C   0  0  0  0  0  0  0  0  0  0  0  0
  150.7243  134.3848  187.9642 C   0  0  0  0  0  0  0  0  0  0  0  0
  151.0749  134.5392  186.5140 C   0  0  0  0  0  0  0  0  0  0  0  0
  151.9729  135.2599  185.5526 C   0  0  0  0  0  0  0  0  0  0  0  0
  152.3037  135.7307  186.9379 C   0  0  0  0  0  0  0  0  0  0  0  0
  151.9531  135.5763  188.3882 C   0  0  0  0  0  0  0  0  0  0  0  0
  153.0753  136.2715  185.4475 C   0  0  0  0  0  0  0  0  0  0  0  0
  153.4259  136.4260  183.9971 N   0  0  0  0  0  0  0  0  0  0  0  0
  152.6960  135.6255  182.9598 C   0  0  0  0  0  0  0  0  0  0  0  0
  153.2738  134.3318  182.4669 C   0  0  0  0  0  0  0  0  0  0  0  0
  152.5439  133.5313  181.4295 C   0  0  0  0  0  0  0  0  0  0  0  0
  151.2360  134.0243  180.8849 C   0  0  0  0  0  0  0  0  0  0  0  0
  150.5060  133.2238  179.8475 C   0  0  0  0  0  0  0  0  0  0  0  0
  149.1982  133.7167  179.3029 C   0  0  0  0  0  0  0  0  0  0  0  0
  148.6204  135.0102  179.7957 C   0  0  0  0  0  0  0  0  0  0  0  0
  149.3504  135.8108  180.8331 C   0  0  0  0  0  0  0  0  0  0  0  0
  150.6582  135.3179  181.3777 C   0  0  0  0  0  0  0  0  0  0  0  0
  151.3882  136.1184  182.4152 C   0  0  0  0  0  0  0  0  0  0  0  0
  1  2  2  0  0  0
  2  3  1  0  0  0
  3  4  1  0  0  0
  4  5  2  0  0  0
  5  6  1  0  0  0
  6  7  2  0  0  0
  7  8  1  0  0  0
  8  9  2  0  0  0
  9 10  1  0  0  0
 10 11  1  0  0  0
 11 12  2  0  0  0
 12 13  1  0  0  0
 13 14  2  0  0  0
 14 15  1  0  0  0
 15 16  2  0  0  0
 14 17  1  0  0  0
 17 18  2  0  0  0
 18 19  1  0  0  0
 19 20  2  0  0  0
 20 21  1  0  0  0
 21 22  2  0  0  0
 22 23  1  0  0  0
 23 24  1  0  0  0
 24 25  1  0  0  0
 25 26  1  0  0  0
 26 27  1  0  0  0
 27 28  2  0  0  0
 17  2  1  0  0  0
 28 19  1  0  0  0
  9  4  1  0  0  0
 16 11  1  0  0  0
 27 22  1  0  0  0
M  END
> <minimizedAffinity>
-5.76998

> <CNNscore>
0.2889058292

> <CNNaffinity>
5.3996229172

> <CNN_VS>
1.5599825382

> <CNNaffinity_variance>
0.5123263597

$$$$
[H]c1c([H])c([H])c2c(c1[H])Sc1c([H])c([H])c(c([H])c1[H])C(=Nc1c([H])c([H])c3c(c1[H])C([H])([H])C([H])([H])C([H])([H])C3([H])[H])C(=O)C2([H])[H]


 28 32  0  0  0  0  0  0  0  0999 V2000
  153.7554  138.0849  185.2230 O   0  0  0  0  0  0  0  0  0  0  0  0
  154.3134  136.9021  185.9575 C   0  0  0  0  0  0  0  0  0  0  0  0
  154.7227  137.3576  187.3269 C   0  0  0  0  0  0  0  0  0  0  0  0
  155.3205  136.9081  188.6271 C   0  0  0  0  0  0  0  0  0  0  0  0
  155.2572  138.2472  189.3000 C   0  0  0  0  0  0  0  0  0  0  0  0
  155.7518  138.4034  190.7074 C   0  0  0  0  0  0  0  0  0  0  0  0
  156.3099  137.2206  191.4419 C   0  0  0  0  0  0  0  0  0  0  0  0
  156.3732  135.8815  190.7690 C   0  0  0  0  0  0  0  0  0  0  0  0
  155.8785  135.7253  189.3616 C   0  0  0  0  0  0  0  0  0  0  0  0
  156.1836  134.2609  189.2498 S   0  0  0  0  0  0  0  0  0  0  0  0
  156.1192  133.0742  188.3345 C   0  0  0  0  0  0  0  0  0  0  0  0
  155.7099  132.6187  186.9652 C   0  0  0  0  0  0  0  0  0  0  0  0
  155.1120  133.0682  185.6650 C   0  0  0  0  0  0  0  0  0  0  0  0
  154.5540  134.2510  184.9305 C   0  0  0  0  0  0  0  0  0  0  0  0
  154.9633  134.7066  186.2997 C   0  0  0  0  0  0  0  0  0  0  0  0
  155.5612  134.2571  187.6000 C   0  0  0  0  0  0  0  0  0  0  0  0
  154.2490  135.7154  185.0422 C   0  0  0  0  0  0  0  0  0  0  0  0
  153.6511  136.1649  183.7420 N   0  0  0  0  0  0  0  0  0  0  0  0
  153.4618  135.1827  182.6243 C   0  0  0  0  0  0  0  0  0  0  0  0
  154.6545  134.5387  181.9816 C   0  0  0  0  0  0  0  0  0  0  0  0
  154.4651  133.5565  180.8639 C   0  0  0  0  0  0  0  0  0  0  0  0
  153.0831  133.2182  180.3888 C   0  0  0  0  0  0  0  0  0  0  0  0
  152.8937  132.2359  179.2711 C   0  0  0  0  0  0  0  0  0  0  0  0
  151.5118  131.8976  178.7960 C   0  0  0  0  0  0  0  0  0  0  0  0
  150.3192  132.5415  179.4386 C   0  0  0  0  0  0  0  0  0  0  0  0
  150.5085  133.5238  180.5563 C   0  0  0  0  0  0  0  0  0  0  0  0
  151.8905  133.8621  181.0314 C   0  0  0  0  0  0  0  0  0  0  0  0
  152.0798  134.8444  182.1492 C   0  0  0  0  0  0  0  0  0  0  0  0
  1  2  2  0  0  0
  2  3  1  0  0  0
  3  4  1  0  0  0
  4  5  2  0  0  0
  5  6  1  0  0  0
  6  7  2  0  0  0
  7  8  1  0  0  0
  8  9  2  0  0  0
  9 10  1  0  0  0
 10 11  1  0  0  0
 11 12  2  0  0  0
 12 13  1  0  0  0
 13 14  2  0  0  0
 14 15  1  0  0  0
 15 16  2  0  0  0
 14 17  1  0  0  0
 17 18  2  0  0  0
 18 19  1  0  0  0
 19 20  2  0  0  0
 20 21  1  0  0  0
 21 22  2  0  0  0
 22 23  1  0  0  0
 23 24  1  0  0  0
 24 25  1  0  0  0
 25 26  1  0  0  0
 26 27  1  0  0  0
 27 28  2  0  0  0
 17  2  1  0  0  0
 28 19  1  0  0  0
  9  4  1  0  0  0
 16 11  1  0  0  0
 27 22  1  0  0  0
M  END
> <minimizedAffinity>
-5.92429

> <CNNscore>
0.2780211270

> <CNNaffinity>
5.2972731590

> <CNN_VS>
1.4727538824

> <CNNaffinity_variance>
0.2314028740

$$$$
[H]c1nc([H])c([H])c(C2(C(=O)N([H])[H])C([H])([H])C([H])([H])N(C([H])([H])C([H])([H])C3(c4c([H])c([H])c(Cl)c(Cl)c4[H])C([H])([H])N(C(=O)c4c([H])c(OC([H])([H])[H])c(OC([H])([H])[H])c(OC([H])([H])[H])c4[H])C([H])([H])C3([H])[H])C([H])([H])C2([H])[H])c1[H]


 46 50  0  0  0  0  0  0  0  0999 V2000
  155.5861  140.2964  184.0634 C   0  0  0  0  0  0  0  0  0  0  0  0
  154.5993  140.7779  183.3443 O   0  0  0  0  0  0  0  0  0  0  0  0
  155.1752  139.3363  184.9938 N   0  0  0  0  0  0  0  0  0  0  0  0
  153.7528  138.9563  185.1360 C   0  0  0  0  0  0  0  0  0  0  0  0
  153.6667  138.3949  186.5276 C   0  0  0  0  0  0  0  0  0  0  0  0
  154.9848  137.6200  186.6350 C   0  0  0  0  0  0  0  0  0  0  0  0
  155.9343  138.5487  185.9220 C   0  0  0  0  0  0  0  0  0  0  0  0
  155.3031  137.3949  188.0578 C   0  0  0  0  0  0  0  0  0  0  0  0
  156.1649  136.3293  188.3239 C   0  0  0  0  0  0  0  0  0  0  0  0
  156.5448  136.0217  189.6086 C   0  0  0  0  0  0  0  0  0  0  0  0
  156.0833  136.7601  190.6828 C   0  0  0  0  0  0  0  0  0  0  0  0
  156.5853  136.3464  192.3086 Cl  0  0  0  0  0  0  0  0  0  0  0  0
  155.2417  137.7986  190.4062 C   0  0  0  0  0  0  0  0  0  0  0  0
  154.6351  138.7567  191.7448 Cl  0  0  0  0  0  0  0  0  0  0  0  0
  154.8355  138.1390  189.1098 C   0  0  0  0  0  0  0  0  0  0  0  0
  159.0570  141.4473  184.7411 C   0  0  0  0  0  0  0  0  0  0  0  0
  157.7668  140.9838  184.8788 C   0  0  0  0  0  0  0  0  0  0  0  0
  156.8986  140.8210  183.7836 C   0  0  0  0  0  0  0  0  0  0  0  0
  157.3743  141.1392  182.5505 C   0  0  0  0  0  0  0  0  0  0  0  0
  158.6854  141.6157  182.3615 C   0  0  0  0  0  0  0  0  0  0  0  0
  159.4867  141.7555  183.4643 C   0  0  0  0  0  0  0  0  0  0  0  0
  159.6516  142.7097  186.6949 C   0  0  0  0  0  0  0  0  0  0  0  0
  159.8908  141.5989  185.8413 O   0  0  0  0  0  0  0  0  0  0  0  0
  159.1935  141.9446  181.1186 O   0  0  0  0  0  0  0  0  0  0  0  0
  158.3270  141.8479  180.0031 C   0  0  0  0  0  0  0  0  0  0  0  0
  160.7828  142.2194  183.3221 O   0  0  0  0  0  0  0  0  0  0  0  0
  161.8948  141.4355  183.7066 C   0  0  0  0  0  0  0  0  0  0  0  0
  154.7356  136.3158  185.9157 C   0  0  0  0  0  0  0  0  0  0  0  0
  153.5181  135.5812  186.3650 C   0  0  0  0  0  0  0  0  0  0  0  0
  152.8569  135.0340  185.1769 N   0  0  0  0  0  0  0  0  0  0  0  0
  151.6620  135.7920  184.8363 C   0  0  0  0  0  0  0  0  0  0  0  0
  150.9971  134.9767  183.7231 C   0  0  0  0  0  0  0  0  0  0  0  0
  151.8636  135.2519  182.4821 C   0  0  0  0  0  0  0  0  0  0  0  0
  153.2199  135.7313  182.8358 C   0  0  0  0  0  0  0  0  0  0  0  0
  153.7732  135.0199  184.0464 C   0  0  0  0  0  0  0  0  0  0  0  0
  151.0747  136.1940  181.6484 C   0  0  0  0  0  0  0  0  0  0  0  0
  151.6403  137.4522  181.4371 C   0  0  0  0  0  0  0  0  0  0  0  0
  150.9442  138.3935  180.6791 C   0  0  0  0  0  0  0  0  0  0  0  0
  149.7548  138.0869  180.1667 N   0  0  0  0  0  0  0  0  0  0  0  0
  149.1857  136.8855  180.3521 C   0  0  0  0  0  0  0  0  0  0  0  0
  149.8480  135.9311  181.0975 C   0  0  0  0  0  0  0  0  0  0  0  0
  151.9785  133.9713  181.7389 C   0  0  0  0  0  0  0  0  0  0  0  0
  152.9363  133.7283  180.7112 N   0  0  0  0  0  0  0  0  0  0  0  0
  151.1925  133.0106  182.0103 O   0  0  0  0  0  0  0  0  0  0  0  0
  152.5665  133.7141  179.7349 H   0  0  0  0  0  0  0  0  0  0  0  0
  153.9500  133.5716  180.8922 H   0  0  0  0  0  0  0  0  0  0  0  0
 22 23  1  0  0  0
 23 16  1  0  0  0
 16 17  2  0  0  0
 17 18  1  0  0  0
 18 19  2  0  0  0
 19 20  1  0  0  0
 20 24  1  0  0  0
 24 25  1  0  0  0
 20 21  2  0  0  0
 21 26  1  0  0  0
 26 27  1  0  0  0
 18  1  1  0  0  0
  1  2  2  0  0  0
  1  3  1  0  0  0
  3  4  1  0  0  0
  4  5  1  0  0  0
  5  6  1  0  0  0
  6 28  1  0  0  0
 28 29  1  0  0  0
 29 30  1  0  0  0
 30 31  1  0  0  0
 31 32  1  0  0  0
 32 33  1  0  0  0
 33 34  1  0  0  0
 34 35  1  0  0  0
 33 42  1  0  0  0
 42 43  1  0  0  0
 42 44  2  0  0  0
 33 36  1  0  0  0
 36 37  2  0  0  0
 37 38  1  0  0  0
 38 39  2  0  0  0
 39 40  1  0  0  0
 40 41  2  0  0  0
  6  7  1  0  0  0
  6  8  1  0  0  0
  8  9  2  0  0  0
  9 10  1  0  0  0
 10 11  2  0  0  0
 11 12  1  0  0  0
 11 13  1  0  0  0
 13 14  1  0  0  0
 13 15  2  0  0  0
 21 16  1  0  0  0
  7  3  1  0  0  0
 15  8  1  0  0  0
 35 30  1  0  0  0
 41 36  1  0  0  0
 43 45  1  0  0  0
 43 46  1  0  0  0
M  END
> <minimizedAffinity>
-7.69277

> <CNNscore>
0.5443046689

> <CNNaffinity>
7.4207801819

> <CNN_VS>
4.0391654968

> <CNNaffinity_variance>
0.0574063174

$$$$
[H]c1nc([H])c([H])c(C2(C(=O)N([H])[H])C([H])([H])C([H])([H])N(C([H])([H])C([H])([H])C3(c4c([H])c([H])c(Cl)c(Cl)c4[H])C([H])([H])N(C(=O)c4c([H])c(OC([H])([H])[H])c(OC([H])([H])[H])c(OC([H])([H])[H])c4[H])C([H])([H])C3([H])[H])C([H])([H])C2([H])[H])c1[H]


 46 50  0  0  0  0  0  0  0  0999 V2000
  155.0145  140.2370  183.9231 C   0  0  0  0  0  0  0  0  0  0  0  0
  153.9556  140.5480  183.2125 O   0  0  0  0  0  0  0  0  0  0  0  0
  154.7731  139.2300  184.8634 N   0  0  0  0  0  0  0  0  0  0  0  0
  153.4321  138.6270  185.0237 C   0  0  0  0  0  0  0  0  0  0  0  0
  153.4518  138.0692  186.4193 C   0  0  0  0  0  0  0  0  0  0  0  0
  154.8785  137.5175  186.5161 C   0  0  0  0  0  0  0  0  0  0  0  0
  155.6586  138.5818  185.7873 C   0  0  0  0  0  0  0  0  0  0  0  0
  155.2435  137.3569  187.9365 C   0  0  0  0  0  0  0  0  0  0  0  0
  156.0745  136.2740  188.2291 C   0  0  0  0  0  0  0  0  0  0  0  0
  156.4925  136.0213  189.5140 C   0  0  0  0  0  0  0  0  0  0  0  0
  156.1012  136.8343  190.5620 C   0  0  0  0  0  0  0  0  0  0  0  0
  156.6504  136.4892  192.1886 Cl  0  0  0  0  0  0  0  0  0  0  0  0
  155.2889  137.8887  190.2596 C   0  0  0  0  0  0  0  0  0  0  0  0
  154.7713  138.9408  191.5646 Cl  0  0  0  0  0  0  0  0  0  0  0  0
  154.8455  138.1746  188.9622 C   0  0  0  0  0  0  0  0  0  0  0  0
  157.4108  142.2828  181.9476 C   0  0  0  0  0  0  0  0  0  0  0  0
  156.3218  141.5383  182.3450 C   0  0  0  0  0  0  0  0  0  0  0  0
  156.2223  140.9641  183.6257 C   0  0  0  0  0  0  0  0  0  0  0  0
  157.2536  141.1665  184.4881 C   0  0  0  0  0  0  0  0  0  0  0  0
  158.3860  141.9205  184.1263 C   0  0  0  0  0  0  0  0  0  0  0  0
  158.4295  142.4554  182.8655 C   0  0  0  0  0  0  0  0  0  0  0  0
  158.0132  142.0244  179.6379 C   0  0  0  0  0  0  0  0  0  0  0  0
  157.4815  142.8364  180.6759 O   0  0  0  0  0  0  0  0  0  0  0  0
  159.4467  142.1422  184.9847 O   0  0  0  0  0  0  0  0  0  0  0  0
  159.2299  141.9423  186.3695 C   0  0  0  0  0  0  0  0  0  0  0  0
  159.5240  143.2044  182.4703 O   0  0  0  0  0  0  0  0  0  0  0  0
  159.5363  144.6134  182.5863 C   0  0  0  0  0  0  0  0  0  0  0  0
  154.8354  136.1850  185.8069 C   0  0  0  0  0  0  0  0  0  0  0  0
  153.7042  135.3018  186.2121 C   0  0  0  0  0  0  0  0  0  0  0  0
  153.1243  134.7244  184.9962 N   0  0  0  0  0  0  0  0  0  0  0  0
  151.7970  135.2605  184.7332 C   0  0  0  0  0  0  0  0  0  0  0  0
  151.2670  134.4146  183.5715 C   0  0  0  0  0  0  0  0  0  0  0  0
  152.0273  134.9401  182.3417 C   0  0  0  0  0  0  0  0  0  0  0  0
  153.2771  135.6452  182.7098 C   0  0  0  0  0  0  0  0  0  0  0  0
  153.9921  134.9685  183.8537 C   0  0  0  0  0  0  0  0  0  0  0  0
  151.0484  135.7701  181.5948 C   0  0  0  0  0  0  0  0  0  0  0  0
  151.3497  137.1283  181.4836 C   0  0  0  0  0  0  0  0  0  0  0  0
  150.4637  137.9699  180.8114 C   0  0  0  0  0  0  0  0  0  0  0  0
  149.3461  137.4751  180.2849 N   0  0  0  0  0  0  0  0  0  0  0  0
  149.0295  136.1738  180.3749 C   0  0  0  0  0  0  0  0  0  0  0  0
  149.8847  135.3137  181.0338 C   0  0  0  0  0  0  0  0  0  0  0  0
  152.3623  133.7626  181.5012 C   0  0  0  0  0  0  0  0  0  0  0  0
  151.8046  132.4639  181.6883 N   0  0  0  0  0  0  0  0  0  0  0  0
  153.1920  133.8834  180.5464 O   0  0  0  0  0  0  0  0  0  0  0  0
  152.4393  131.7493  182.1084 H   0  0  0  0  0  0  0  0  0  0  0  0
  150.8266  132.2134  181.4322 H   0  0  0  0  0  0  0  0  0  0  0  0
 22 23  1  0  0  0
 23 16  1  0  0  0
 16 17  2  0  0  0
 17 18  1  0  0  0
 18 19  2  0  0  0
 19 20  1  0  0  0
 20 24  1  0  0  0
 24 25  1  0  0  0
 20 21  2  0  0  0
 21 26  1  0  0  0
 26 27  1  0  0  0
 18  1  1  0  0  0
  1  2  2  0  0  0
  1  3  1  0  0  0
  3  4  1  0  0  0
  4  5  1  0  0  0
  5  6  1  0  0  0
  6 28  1  0  0  0
 28 29  1  0  0  0
 29 30  1  0  0  0
 30 31  1  0  0  0
 31 32  1  0  0  0
 32 33  1  0  0  0
 33 34  1  0  0  0
 34 35  1  0  0  0
 33 42  1  0  0  0
 42 43  1  0  0  0
 42 44  2  0  0  0
 33 36  1  0  0  0
 36 37  2  0  0  0
 37 38  1  0  0  0
 38 39  2  0  0  0
 39 40  1  0  0  0
 40 41  2  0  0  0
  6  7  1  0  0  0
  6  8  1  0  0  0
  8  9  2  0  0  0
  9 10  1  0  0  0
 10 11  2  0  0  0
 11 12  1  0  0  0
 11 13  1  0  0  0
 13 14  1  0  0  0
 13 15  2  0  0  0
 21 16  1  0  0  0
  7  3  1  0  0  0
 15  8  1  0  0  0
 35 30  1  0  0  0
 41 36  1  0  0  0
 43 45  1  0  0  0
 43 46  1  0  0  0
M  END
> <minimizedAffinity>
-7.87904

> <CNNscore>
0.5390702486

> <CNNaffinity>
7.3460474014

> <CNN_VS>
3.9600355625

> <CNNaffinity_variance>
0.1064502597

$$$$
[H]c1nc([H])c([H])c(C2(C(=O)N([H])[H])C([H])([H])C([H])([H])N(C([H])([H])C([H])([H])C3(c4c([H])c([H])c(Cl)c(Cl)c4[H])C([H])([H])N(C(=O)c4c([H])c(OC([H])([H])[H])c(OC([H])([H])[H])c(OC([H])([H])[H])c4[H])C([H])([H])C3([H])[H])C([H])([H])C2([H])[H])c1[H]


 46 50  0  0  0  0  0  0  0  0999 V2000
  155.8589  140.4382  184.0816 C   0  0  0  0  0  0  0  0  0  0  0  0
  154.9731  141.0022  183.2942 O   0  0  0  0  0  0  0  0  0  0  0  0
  155.3067  139.4807  184.9388 N   0  0  0  0  0  0  0  0  0  0  0  0
  153.8567  139.1891  184.9409 C   0  0  0  0  0  0  0  0  0  0  0  0
  153.6099  138.5955  186.2995 C   0  0  0  0  0  0  0  0  0  0  0  0
  154.8626  137.7348  186.4976 C   0  0  0  0  0  0  0  0  0  0  0  0
  155.9284  138.6202  185.9037 C   0  0  0  0  0  0  0  0  0  0  0  0
  155.0357  137.4497  187.9346 C   0  0  0  0  0  0  0  0  0  0  0  0
  155.5286  136.1810  188.2449 C   0  0  0  0  0  0  0  0  0  0  0  0
  155.7421  135.7965  189.5472 C   0  0  0  0  0  0  0  0  0  0  0  0
  155.4737  136.6571  190.5959 C   0  0  0  0  0  0  0  0  0  0  0  0
  155.7568  136.1409  192.2451 Cl  0  0  0  0  0  0  0  0  0  0  0  0
  154.9925  137.8938  190.2762 C   0  0  0  0  0  0  0  0  0  0  0  0
  154.6393  139.0117  191.5813 Cl  0  0  0  0  0  0  0  0  0  0  0  0
  154.7643  138.3172  188.9608 C   0  0  0  0  0  0  0  0  0  0  0  0
  158.9765  141.4992  182.3537 C   0  0  0  0  0  0  0  0  0  0  0  0
  157.7031  141.0491  182.6261 C   0  0  0  0  0  0  0  0  0  0  0  0
  157.2212  140.8850  183.9378 C   0  0  0  0  0  0  0  0  0  0  0  0
  158.0632  141.1901  184.9606 C   0  0  0  0  0  0  0  0  0  0  0  0
  159.3723  141.6538  184.7304 C   0  0  0  0  0  0  0  0  0  0  0  0
  159.7887  141.7936  183.4324 C   0  0  0  0  0  0  0  0  0  0  0  0
  158.7520  142.5984  180.2310 C   0  0  0  0  0  0  0  0  0  0  0  0
  159.4249  141.6501  181.0480 O   0  0  0  0  0  0  0  0  0  0  0  0
  160.2472  141.9722  185.7523 O   0  0  0  0  0  0  0  0  0  0  0  0
  159.7031  142.4962  186.9497 C   0  0  0  0  0  0  0  0  0  0  0  0
  161.0678  142.2479  183.1624 O   0  0  0  0  0  0  0  0  0  0  0  0
  162.2070  141.6239  183.7206 C   0  0  0  0  0  0  0  0  0  0  0  0
  154.6002  136.4700  185.7153 C   0  0  0  0  0  0  0  0  0  0  0  0
  153.2149  136.3487  185.1768 C   0  0  0  0  0  0  0  0  0  0  0  0
  152.5403  135.2703  185.9050 N   0  0  0  0  0  0  0  0  0  0  0  0
  153.4981  134.3687  186.5280 C   0  0  0  0  0  0  0  0  0  0  0  0
  152.6449  133.2121  187.0575 C   0  0  0  0  0  0  0  0  0  0  0  0
  151.9550  133.7898  188.3053 C   0  0  0  0  0  0  0  0  0  0  0  0
  151.9175  135.2708  188.2947 C   0  0  0  0  0  0  0  0  0  0  0  0
  151.6480  135.8196  186.9148 C   0  0  0  0  0  0  0  0  0  0  0  0
  152.6720  133.1997  189.4641 C   0  0  0  0  0  0  0  0  0  0  0  0
  152.7785  134.0056  190.5985 C   0  0  0  0  0  0  0  0  0  0  0  0
  153.4564  133.5212  191.7170 C   0  0  0  0  0  0  0  0  0  0  0  0
  153.9922  132.3032  191.6942 N   0  0  0  0  0  0  0  0  0  0  0  0
  153.9057  131.5050  190.6186 C   0  0  0  0  0  0  0  0  0  0  0  0
  153.2417  131.9540  189.4949 C   0  0  0  0  0  0  0  0  0  0  0  0
  150.5648  133.2679  188.3149 C   0  0  0  0  0  0  0  0  0  0  0  0
  149.9227  132.6865  187.1824 N   0  0  0  0  0  0  0  0  0  0  0  0
  149.8758  133.3250  189.3810 O   0  0  0  0  0  0  0  0  0  0  0  0
  149.1950  133.2732  186.7175 H   0  0  0  0  0  0  0  0  0  0  0  0
  150.1454  131.7368  186.8171 H   0  0  0  0  0  0  0  0  0  0  0  0
 22 23  1  0  0  0
 23 16  1  0  0  0
 16 17  2  0  0  0
 17 18  1  0  0  0
 18 19  2  0  0  0
 19 20  1  0  0  0
 20 24  1  0  0  0
 24 25  1  0  0  0
 20 21  2  0  0  0
 21 26  1  0  0  0
 26 27  1  0  0  0
 18  1  1  0  0  0
  1  2  2  0  0  0
  1  3  1  0  0  0
  3  4  1  0  0  0
  4  5  1  0  0  0
  5  6  1  0  0  0
  6 28  1  0  0  0
 28 29  1  0  0  0
 29 30  1  0  0  0
 30 31  1  0  0  0
 31 32  1  0  0  0
 32 33  1  0  0  0
 33 34  1  0  0  0
 34 35  1  0  0  0
 33 42  1  0  0  0
 42 43  1  0  0  0
 42 44  2  0  0  0
 33 36  1  0  0  0
 36 37  2  0  0  0
 37 38  1  0  0  0
 38 39  2  0  0  0
 39 40  1  0  0  0
 40 41  2  0  0  0
  6  7  1  0  0  0
  6  8  1  0  0  0
  8  9  2  0  0  0
  9 10  1  0  0  0
 10 11  2  0  0  0
 11 12  1  0  0  0
 11 13  1  0  0  0
 13 14  1  0  0  0
 13 15  2  0  0  0
 21 16  1  0  0  0
  7  3  1  0  0  0
 15  8  1  0  0  0
 35 30  1  0  0  0
 41 36  1  0  0  0
 43 45  1  0  0  0
 43 46  1  0  0  0
M  END
> <minimizedAffinity>
-6.35592

> <CNNscore>
0.5008829832

> <CNNaffinity>
7.4316434860

> <CNN_VS>
3.7223837376

> <CNNaffinity_variance>
0.1780609787

$$$$
[H]c1nc([H])c([H])c(C2(C(=O)N([H])[H])C([H])([H])C([H])([H])N(C([H])([H])C([H])([H])C3(c4c([H])c([H])c(Cl)c(Cl)c4[H])C([H])([H])N(C(=O)c4c([H])c(OC([H])([H])[H])c(OC([H])([H])[H])c(OC([H])([H])[H])c4[H])C([H])([H])C3([H])[H])C([H])([H])C2([H])[H])c1[H]


 46 50  0  0  0  0  0  0  0  0999 V2000
  155.6515  140.1299  184.3200 C   0  0  0  0  0  0  0  0  0  0  0  0
  154.7083  140.6760  183.5885 O   0  0  0  0  0  0  0  0  0  0  0  0
  155.1690  139.1767  185.2228 N   0  0  0  0  0  0  0  0  0  0  0  0
  153.7257  138.8706  185.3263 C   0  0  0  0  0  0  0  0  0  0  0  0
  153.5779  138.2899  186.7048 C   0  0  0  0  0  0  0  0  0  0  0  0
  154.8504  137.4442  186.8266 C   0  0  0  0  0  0  0  0  0  0  0  0
  155.8638  138.3335  186.1524 C   0  0  0  0  0  0  0  0  0  0  0  0
  155.1235  137.1772  188.2515 C   0  0  0  0  0  0  0  0  0  0  0  0
  156.3701  136.6159  188.5340 C   0  0  0  0  0  0  0  0  0  0  0  0
  156.7478  136.3277  189.8239 C   0  0  0  0  0  0  0  0  0  0  0  0
  155.9017  136.5849  190.8870 C   0  0  0  0  0  0  0  0  0  0  0  0
  156.4101  136.2090  192.5200 Cl  0  0  0  0  0  0  0  0  0  0  0  0
  154.6867  137.1339  190.5944 C   0  0  0  0  0  0  0  0  0  0  0  0
  153.5865  137.4724  191.9184 Cl  0  0  0  0  0  0  0  0  0  0  0  0
  154.2711  137.4400  189.2924 C   0  0  0  0  0  0  0  0  0  0  0  0
  158.6634  141.1141  182.3731 C   0  0  0  0  0  0  0  0  0  0  0  0
  157.4137  140.6631  182.7378 C   0  0  0  0  0  0  0  0  0  0  0  0
  156.9959  140.5888  184.0793 C   0  0  0  0  0  0  0  0  0  0  0  0
  157.8774  140.9842  185.0359 C   0  0  0  0  0  0  0  0  0  0  0  0
  159.1644  141.4525  184.7105 C   0  0  0  0  0  0  0  0  0  0  0  0
  159.5178  141.5024  183.3875 C   0  0  0  0  0  0  0  0  0  0  0  0
  158.5773  142.2749  180.2732 C   0  0  0  0  0  0  0  0  0  0  0  0
  159.0482  141.1750  181.0401 O   0  0  0  0  0  0  0  0  0  0  0  0
  160.0783  141.8617  185.6636 O   0  0  0  0  0  0  0  0  0  0  0  0
  159.5773  142.4353  186.8571 C   0  0  0  0  0  0  0  0  0  0  0  0
  160.7733  141.9579  183.0246 O   0  0  0  0  0  0  0  0  0  0  0  0
  161.9449  141.4716  183.6487 C   0  0  0  0  0  0  0  0  0  0  0  0
  154.5493  136.1681  186.0774 C   0  0  0  0  0  0  0  0  0  0  0  0
  153.1927  135.6036  186.3316 C   0  0  0  0  0  0  0  0  0  0  0  0
  152.5757  135.3099  185.0350 N   0  0  0  0  0  0  0  0  0  0  0  0
  153.5396  135.4193  183.9500 C   0  0  0  0  0  0  0  0  0  0  0  0
  152.6980  135.2883  182.6770 C   0  0  0  0  0  0  0  0  0  0  0  0
  152.3601  133.7896  182.5982 C   0  0  0  0  0  0  0  0  0  0  0  0
  152.4845  133.1132  183.9103 C   0  0  0  0  0  0  0  0  0  0  0  0
  151.9871  133.9790  185.0420 C   0  0  0  0  0  0  0  0  0  0  0  0
  153.2396  133.2399  181.5355 C   0  0  0  0  0  0  0  0  0  0  0  0
  154.0305  134.1638  180.8509 C   0  0  0  0  0  0  0  0  0  0  0  0
  154.8664  133.7187  179.8270 C   0  0  0  0  0  0  0  0  0  0  0  0
  154.9032  132.4259  179.5130 N   0  0  0  0  0  0  0  0  0  0  0  0
  154.1550  131.5140  180.1535 C   0  0  0  0  0  0  0  0  0  0  0  0
  153.3169  131.9212  181.1718 C   0  0  0  0  0  0  0  0  0  0  0  0
  150.9555  133.6843  182.1276 C   0  0  0  0  0  0  0  0  0  0  0  0
  150.4046  134.4744  181.0765 N   0  0  0  0  0  0  0  0  0  0  0  0
  150.1681  132.8482  182.6712 O   0  0  0  0  0  0  0  0  0  0  0  0
  149.7505  135.2337  181.3692 H   0  0  0  0  0  0  0  0  0  0  0  0
  150.6232  134.3276  180.0688 H   0  0  0  0  0  0  0  0  0  0  0  0
 22 23  1  0  0  0
 23 16  1  0  0  0
 16 17  2  0  0  0
 17 18  1  0  0  0
 18 19  2  0  0  0
 19 20  1  0  0  0
 20 24  1  0  0  0
 24 25  1  0  0  0
 20 21  2  0  0  0
 21 26  1  0  0  0
 26 27  1  0  0  0
 18  1  1  0  0  0
  1  2  2  0  0  0
  1  3  1  0  0  0
  3  4  1  0  0  0
  4  5  1  0  0  0
  5  6  1  0  0  0
  6 28  1  0  0  0
 28 29  1  0  0  0
 29 30  1  0  0  0
 30 31  1  0  0  0
 31 32  1  0  0  0
 32 33  1  0  0  0
 33 34  1  0  0  0
 34 35  1  0  0  0
 33 42  1  0  0  0
 42 43  1  0  0  0
 42 44  2  0  0  0
 33 36  1  0  0  0
 36 37  2  0  0  0
 37 38  1  0  0  0
 38 39  2  0  0  0
 39 40  1  0  0  0
 40 41  2  0  0  0
  6  7  1  0  0  0
  6  8  1  0  0  0
  8  9  2  0  0  0
  9 10  1  0  0  0
 10 11  2  0  0  0
 11 12  1  0  0  0
 11 13  1  0  0  0
 13 14  1  0  0  0
 13 15  2  0  0  0
 21 16  1  0  0  0
  7  3  1  0  0  0
 15  8  1  0  0  0
 35 30  1  0  0  0
 41 36  1  0  0  0
 43 45  1  0  0  0
 43 46  1  0  0  0
M  END
> <minimizedAffinity>
-7.01499

> <CNNscore>
0.4247738123

> <CNNaffinity>
7.2121825218

> <CNN_VS>
3.0635461807

> <CNNaffinity_variance>
0.0951274633

$$$$
[H]c1nc([H])c([H])c(C2(C(=O)N([H])[H])C([H])([H])C([H])([H])N(C([H])([H])C([H])([H])C3(c4c([H])c([H])c(Cl)c(Cl)c4[H])C([H])([H])N(C(=O)c4c([H])c(OC([H])([H])[H])c(OC([H])([H])[H])c(OC([H])([H])[H])c4[H])C([H])([H])C3([H])[H])C([H])([H])C2([H])[H])c1[H]


 46 50  0  0  0  0  0  0  0  0999 V2000
  155.6561  140.5893  184.0297 C   0  0  0  0  0  0  0  0  0  0  0  0
  154.7594  141.0435  183.1855 O   0  0  0  0  0  0  0  0  0  0  0  0
  155.1895  139.5302  184.8152 N   0  0  0  0  0  0  0  0  0  0  0  0
  153.8045  139.0266  184.6906 C   0  0  0  0  0  0  0  0  0  0  0  0
  153.5449  138.3544  186.0096 C   0  0  0  0  0  0  0  0  0  0  0  0
  154.8938  137.6827  186.2898 C   0  0  0  0  0  0  0  0  0  0  0  0
  155.8567  138.7374  185.8073 C   0  0  0  0  0  0  0  0  0  0  0  0
  154.9952  137.3749  187.7290 C   0  0  0  0  0  0  0  0  0  0  0  0
  156.2782  137.0854  188.1970 C   0  0  0  0  0  0  0  0  0  0  0  0
  156.5062  136.7907  189.5202 C   0  0  0  0  0  0  0  0  0  0  0  0
  155.4680  136.7708  190.4335 C   0  0  0  0  0  0  0  0  0  0  0  0
  155.7881  136.3936  192.1132 Cl  0  0  0  0  0  0  0  0  0  0  0  0
  154.2198  137.0561  189.9603 C   0  0  0  0  0  0  0  0  0  0  0  0
  152.8781  137.0387  191.0905 Cl  0  0  0  0  0  0  0  0  0  0  0  0
  153.9532  137.3607  188.6196 C   0  0  0  0  0  0  0  0  0  0  0  0
  158.4024  142.7647  182.7823 C   0  0  0  0  0  0  0  0  0  0  0  0
  157.2220  142.0650  182.9057 C   0  0  0  0  0  0  0  0  0  0  0  0
  156.9423  141.2384  184.0095 C   0  0  0  0  0  0  0  0  0  0  0  0
  157.8891  141.1431  184.9805 C   0  0  0  0  0  0  0  0  0  0  0  0
  159.1095  141.8399  184.8974 C   0  0  0  0  0  0  0  0  0  0  0  0
  159.3284  142.6296  183.7992 C   0  0  0  0  0  0  0  0  0  0  0  0
  158.5095  142.9846  180.3938 C   0  0  0  0  0  0  0  0  0  0  0  0
  158.6510  143.5721  181.6801 O   0  0  0  0  0  0  0  0  0  0  0  0
  160.0873  141.7613  185.8714 O   0  0  0  0  0  0  0  0  0  0  0  0
  159.9516  142.5873  187.0133 C   0  0  0  0  0  0  0  0  0  0  0  0
  160.5145  143.3327  183.6794 O   0  0  0  0  0  0  0  0  0  0  0  0
  160.5946  144.7072  184.0007 C   0  0  0  0  0  0  0  0  0  0  0  0
  154.8872  136.4220  185.4585 C   0  0  0  0  0  0  0  0  0  0  0  0
  153.5762  135.7126  185.4162 C   0  0  0  0  0  0  0  0  0  0  0  0
  153.5772  134.8317  184.2448 N   0  0  0  0  0  0  0  0  0  0  0  0
  154.7029  135.1152  183.3668 C   0  0  0  0  0  0  0  0  0  0  0  0
  154.4379  134.2659  182.1199 C   0  0  0  0  0  0  0  0  0  0  0  0
  154.7814  132.8317  182.5577 C   0  0  0  0  0  0  0  0  0  0  0  0
  154.7468  132.6673  184.0296 C   0  0  0  0  0  0  0  0  0  0  0  0
  153.6105  133.4367  184.6578 C   0  0  0  0  0  0  0  0  0  0  0  0
  156.0951  132.5306  181.9345 C   0  0  0  0  0  0  0  0  0  0  0  0
  157.0188  131.8597  182.7372 C   0  0  0  0  0  0  0  0  0  0  0  0
  158.2801  131.5622  182.2216 C   0  0  0  0  0  0  0  0  0  0  0  0
  158.5908  131.9176  180.9773 N   0  0  0  0  0  0  0  0  0  0  0  0
  157.7238  132.5629  180.1814 C   0  0  0  0  0  0  0  0  0  0  0  0
  156.4670  132.8726  180.6609 C   0  0  0  0  0  0  0  0  0  0  0  0
  153.7690  131.9352  181.9440 C   0  0  0  0  0  0  0  0  0  0  0  0
  152.5795  131.5058  182.6022 N   0  0  0  0  0  0  0  0  0  0  0  0
  153.9398  131.5062  180.7602 O   0  0  0  0  0  0  0  0  0  0  0  0
  152.5688  130.5136  182.9271 H   0  0  0  0  0  0  0  0  0  0  0  0
  151.7553  132.1216  182.7646 H   0  0  0  0  0  0  0  0  0  0  0  0
 22 23  1  0  0  0
 23 16  1  0  0  0
 16 17  2  0  0  0
 17 18  1  0  0  0
 18 19  2  0  0  0
 19 20  1  0  0  0
 20 24  1  0  0  0
 24 25  1  0  0  0
 20 21  2  0  0  0
 21 26  1  0  0  0
 26 27  1  0  0  0
 18  1  1  0  0  0
  1  2  2  0  0  0
  1  3  1  0  0  0
  3  4  1  0  0  0
  4  5  1  0  0  0
  5  6  1  0  0  0
  6 28  1  0  0  0
 28 29  1  0  0  0
 29 30  1  0  0  0
 30 31  1  0  0  0
 31 32  1  0  0  0
 32 33  1  0  0  0
 33 34  1  0  0  0
 34 35  1  0  0  0
 33 42  1  0  0  0
 42 43  1  0  0  0
 42 44  2  0  0  0
 33 36  1  0  0  0
 36 37  2  0  0  0
 37 38  1  0  0  0
 38 39  2  0  0  0
 39 40  1  0  0  0
 40 41  2  0  0  0
  6  7  1  0  0  0
  6  8  1  0  0  0
  8  9  2  0  0  0
  9 10  1  0  0  0
 10 11  2  0  0  0
 11 12  1  0  0  0
 11 13  1  0  0  0
 13 14  1  0  0  0
 13 15  2  0  0  0
 21 16  1  0  0  0
  7  3  1  0  0  0
 15  8  1  0  0  0
 35 30  1  0  0  0
 41 36  1  0  0  0
 43 45  1  0  0  0
 43 46  1  0  0  0
M  END
> <minimizedAffinity>
-7.49210

> <CNNscore>
0.3601454198

> <CNNaffinity>
7.3047647476

> <CNN_VS>
2.6307775974

> <CNNaffinity_variance>
0.1749813408

$$$$
[H]c1nc([H])c([H])c(C2(C(=O)N([H])[H])C([H])([H])C([H])([H])N(C([H])([H])C([H])([H])C3(c4c([H])c([H])c(Cl)c(Cl)c4[H])C([H])([H])N(C(=O)c4c([H])c(OC([H])([H])[H])c(OC([H])([H])[H])c(OC([H])([H])[H])c4[H])C([H])([H])C3([H])[H])C([H])([H])C2([H])[H])c1[H]


 46 50  0  0  0  0  0  0  0  0999 V2000
  155.2193  140.4063  184.1613 C   0  0  0  0  0  0  0  0  0  0  0  0
  154.2355  140.9908  183.5181 O   0  0  0  0  0  0  0  0  0  0  0  0
  154.7852  139.4474  185.0824 N   0  0  0  0  0  0  0  0  0  0  0  0
  153.3471  139.1756  185.2961 C   0  0  0  0  0  0  0  0  0  0  0  0
  153.2945  138.5710  186.6711 C   0  0  0  0  0  0  0  0  0  0  0  0
  154.5496  137.6912  186.6747 C   0  0  0  0  0  0  0  0  0  0  0  0
  155.5293  138.5683  185.9376 C   0  0  0  0  0  0  0  0  0  0  0  0
  154.9284  137.3885  188.0680 C   0  0  0  0  0  0  0  0  0  0  0  0
  155.6459  136.2059  188.2568 C   0  0  0  0  0  0  0  0  0  0  0  0
  156.0644  135.8164  189.5069 C   0  0  0  0  0  0  0  0  0  0  0  0
  155.7866  136.5859  190.6218 C   0  0  0  0  0  0  0  0  0  0  0  0
  156.3337  136.0656  192.2018 Cl  0  0  0  0  0  0  0  0  0  0  0  0
  155.0844  137.7390  190.4206 C   0  0  0  0  0  0  0  0  0  0  0  0
  154.7125  138.7397  191.8127 Cl  0  0  0  0  0  0  0  0  0  0  0  0
  154.6438  138.1651  189.1613 C   0  0  0  0  0  0  0  0  0  0  0  0
  158.2054  141.0287  182.0339 C   0  0  0  0  0  0  0  0  0  0  0  0
  156.9673  140.6352  182.4925 C   0  0  0  0  0  0  0  0  0  0  0  0
  156.5520  140.8361  183.8217 C   0  0  0  0  0  0  0  0  0  0  0  0
  157.4237  141.4456  184.6683 C   0  0  0  0  0  0  0  0  0  0  0  0
  158.6988  141.8653  184.2442 C   0  0  0  0  0  0  0  0  0  0  0  0
  159.0504  141.6430  182.9386 C   0  0  0  0  0  0  0  0  0  0  0  0
  158.0737  141.7048  179.7339 C   0  0  0  0  0  0  0  0  0  0  0  0
  158.5882  140.8158  180.7160 O   0  0  0  0  0  0  0  0  0  0  0  0
  159.6026  142.4884  185.0844 O   0  0  0  0  0  0  0  0  0  0  0  0
  159.6214  142.0951  186.4444 C   0  0  0  0  0  0  0  0  0  0  0  0
  160.2942  142.0414  182.4808 O   0  0  0  0  0  0  0  0  0  0  0  0
  161.4864  141.5867  183.0896 C   0  0  0  0  0  0  0  0  0  0  0  0
  154.1556  136.4386  185.9290 C   0  0  0  0  0  0  0  0  0  0  0  0
  154.5082  136.4412  184.4801 C   0  0  0  0  0  0  0  0  0  0  0  0
  153.3154  136.0484  183.7245 N   0  0  0  0  0  0  0  0  0  0  0  0
  152.1686  135.8600  184.6007 C   0  0  0  0  0  0  0  0  0  0  0  0
  151.0887  135.2632  183.6931 C   0  0  0  0  0  0  0  0  0  0  0  0
  150.6012  136.4539  182.8499 C   0  0  0  0  0  0  0  0  0  0  0  0
  151.5889  137.5573  182.8073 C   0  0  0  0  0  0  0  0  0  0  0  0
  153.0051  137.0449  182.7103 C   0  0  0  0  0  0  0  0  0  0  0  0
  149.2819  136.8292  183.4187 C   0  0  0  0  0  0  0  0  0  0  0  0
  148.5906  135.8199  184.0904 C   0  0  0  0  0  0  0  0  0  0  0  0
  147.3362  136.0980  184.6329 C   0  0  0  0  0  0  0  0  0  0  0  0
  146.8120  137.3147  184.5070 N   0  0  0  0  0  0  0  0  0  0  0  0
  147.4528  138.3057  183.8674 C   0  0  0  0  0  0  0  0  0  0  0  0
  148.6961  138.0637  183.3187 C   0  0  0  0  0  0  0  0  0  0  0  0
  150.3767  135.9483  181.4717 C   0  0  0  0  0  0  0  0  0  0  0  0
  150.5517  134.5881  181.0823 N   0  0  0  0  0  0  0  0  0  0  0  0
  150.0038  136.7487  180.5580 O   0  0  0  0  0  0  0  0  0  0  0  0
  151.4009  134.3810  180.5113 H   0  0  0  0  0  0  0  0  0  0  0  0
  149.8902  133.8250  181.3374 H   0  0  0  0  0  0  0  0  0  0  0  0
 22 23  1  0  0  0
 23 16  1  0  0  0
 16 17  2  0  0  0
 17 18  1  0  0  0
 18 19  2  0  0  0
 19 20  1  0  0  0
 20 24  1  0  0  0
 24 25  1  0  0  0
 20 21  2  0  0  0
 21 26  1  0  0  0
 26 27  1  0  0  0
 18  1  1  0  0  0
  1  2  2  0  0  0
  1  3  1  0  0  0
  3  4  1  0  0  0
  4  5  1  0  0  0
  5  6  1  0  0  0
  6 28  1  0  0  0
 28 29  1  0  0  0
 29 30  1  0  0  0
 30 31  1  0  0  0
 31 32  1  0  0  0
 32 33  1  0  0  0
 33 34  1  0  0  0
 34 35  1  0  0  0
 33 42  1  0  0  0
 42 43  1  0  0  0
 42 44  2  0  0  0
 33 36  1  0  0  0
 36 37  2  0  0  0
 37 38  1  0  0  0
 38 39  2  0  0  0
 39 40  1  0  0  0
 40 41  2  0  0  0
  6  7  1  0  0  0
  6  8  1  0  0  0
  8  9  2  0  0  0
  9 10  1  0  0  0
 10 11  2  0  0  0
 11 12  1  0  0  0
 11 13  1  0  0  0
 13 14  1  0  0  0
 13 15  2  0  0  0
 21 16  1  0  0  0
  7  3  1  0  0  0
 15  8  1  0  0  0
 35 30  1  0  0  0
 41 36  1  0  0  0
 43 45  1  0  0  0
 43 46  1  0  0  0
M  END
> <minimizedAffinity>
-6.80847

> <CNNscore>
0.3374275565

> <CNNaffinity>
7.2264275551

> <CNN_VS>
2.4383957386

> <CNNaffinity_variance>
0.0433312133

$$$$
[H]c1nc([H])c([H])c(C2(C(=O)N([H])[H])C([H])([H])C([H])([H])N(C([H])([H])C([H])([H])C3(c4c([H])c([H])c(Cl)c(Cl)c4[H])C([H])([H])N(C(=O)c4c([H])c(OC([H])([H])[H])c(OC([H])([H])[H])c(OC([H])([H])[H])c4[H])C([H])([H])C3([H])[H])C([H])([H])C2([H])[H])c1[H]


 46 50  0  0  0  0  0  0  0  0999 V2000
  155.4945  140.3057  184.1197 C   0  0  0  0  0  0  0  0  0  0  0  0
  154.4944  140.7342  183.3853 O   0  0  0  0  0  0  0  0  0  0  0  0
  155.1219  139.3219  185.0415 N   0  0  0  0  0  0  0  0  0  0  0  0
  153.7206  138.8638  185.1596 C   0  0  0  0  0  0  0  0  0  0  0  0
  153.6427  138.2947  186.5486 C   0  0  0  0  0  0  0  0  0  0  0  0
  154.9996  137.5934  186.6762 C   0  0  0  0  0  0  0  0  0  0  0  0
  155.9080  138.5749  185.9807 C   0  0  0  0  0  0  0  0  0  0  0  0
  155.3066  137.3822  188.1037 C   0  0  0  0  0  0  0  0  0  0  0  0
  156.0193  136.2200  188.4040 C   0  0  0  0  0  0  0  0  0  0  0  0
  156.3738  135.9135  189.6962 C   0  0  0  0  0  0  0  0  0  0  0  0
  156.0341  136.7493  190.7442 C   0  0  0  0  0  0  0  0  0  0  0  0
  156.5004  136.3342  192.3803 Cl  0  0  0  0  0  0  0  0  0  0  0  0
  155.3375  137.8815  190.4343 C   0  0  0  0  0  0  0  0  0  0  0  0
  154.8881  138.9648  191.7390 Cl  0  0  0  0  0  0  0  0  0  0  0  0
  154.9612  138.2237  189.1293 C   0  0  0  0  0  0  0  0  0  0  0  0
  158.9374  141.5196  184.8291 C   0  0  0  0  0  0  0  0  0  0  0  0
  157.6683  140.9973  184.9500 C   0  0  0  0  0  0  0  0  0  0  0  0
  156.7804  140.9027  183.8626 C   0  0  0  0  0  0  0  0  0  0  0  0
  157.2149  141.3497  182.6545 C   0  0  0  0  0  0  0  0  0  0  0  0
  158.5034  141.8904  182.4833 C   0  0  0  0  0  0  0  0  0  0  0  0
  159.3253  141.9589  183.5776 C   0  0  0  0  0  0  0  0  0  0  0  0
  159.3914  142.4313  187.0034 C   0  0  0  0  0  0  0  0  0  0  0  0
  159.7914  141.6014  185.9213 O   0  0  0  0  0  0  0  0  0  0  0  0
  158.9697  142.3501  181.2658 O   0  0  0  0  0  0  0  0  0  0  0  0
  158.4524  143.5750  180.7791 C   0  0  0  0  0  0  0  0  0  0  0  0
  160.6003  142.4823  183.4521 O   0  0  0  0  0  0  0  0  0  0  0  0
  160.9299  143.7573  183.9665 C   0  0  0  0  0  0  0  0  0  0  0  0
  154.8345  136.2794  185.9506 C   0  0  0  0  0  0  0  0  0  0  0  0
  153.5232  135.6059  186.1755 C   0  0  0  0  0  0  0  0  0  0  0  0
  152.8452  135.4943  184.8808 N   0  0  0  0  0  0  0  0  0  0  0  0
  153.7937  135.5395  183.7778 C   0  0  0  0  0  0  0  0  0  0  0  0
  152.9174  135.6191  182.5240 C   0  0  0  0  0  0  0  0  0  0  0  0
  152.3645  134.1933  182.3564 C   0  0  0  0  0  0  0  0  0  0  0  0
  152.4149  133.4167  183.6170 C   0  0  0  0  0  0  0  0  0  0  0  0
  152.0702  134.2642  184.8173 C   0  0  0  0  0  0  0  0  0  0  0  0
  153.1345  133.5985  181.2347 C   0  0  0  0  0  0  0  0  0  0  0  0
  152.7327  132.3292  180.8160 C   0  0  0  0  0  0  0  0  0  0  0  0
  153.4246  131.7030  179.7795 C   0  0  0  0  0  0  0  0  0  0  0  0
  154.4548  132.3161  179.2018 N   0  0  0  0  0  0  0  0  0  0  0  0
  154.8641  133.5366  179.5820 C   0  0  0  0  0  0  0  0  0  0  0  0
  154.2011  134.1841  180.6050 C   0  0  0  0  0  0  0  0  0  0  0  0
  150.9507  134.3232  181.9211 C   0  0  0  0  0  0  0  0  0  0  0  0
  150.4513  135.4097  181.1447 N   0  0  0  0  0  0  0  0  0  0  0  0
  150.1066  133.4289  182.2407 O   0  0  0  0  0  0  0  0  0  0  0  0
  149.8621  136.1043  181.6550 H   0  0  0  0  0  0  0  0  0  0  0  0
  150.6461  135.5304  180.1286 H   0  0  0  0  0  0  0  0  0  0  0  0
 22 23  1  0  0  0
 23 16  1  0  0  0
 16 17  2  0  0  0
 17 18  1  0  0  0
 18 19  2  0  0  0
 19 20  1  0  0  0
 20 24  1  0  0  0
 24 25  1  0  0  0
 20 21  2  0  0  0
 21 26  1  0  0  0
 26 27  1  0  0  0
 18  1  1  0  0  0
  1  2  2  0  0  0
  1  3  1  0  0  0
  3  4  1  0  0  0
  4  5  1  0  0  0
  5  6  1  0  0  0
  6 28  1  0  0  0
 28 29  1  0  0  0
 29 30  1  0  0  0
 30 31  1  0  0  0
 31 32  1  0  0  0
 32 33  1  0  0  0
 33 34  1  0  0  0
 34 35  1  0  0  0
 33 42  1  0  0  0
 42 43  1  0  0  0
 42 44  2  0  0  0
 33 36  1  0  0  0
 36 37  2  0  0  0
 37 38  1  0  0  0
 38 39  2  0  0  0
 39 40  1  0  0  0
 40 41  2  0  0  0
  6  7  1  0  0  0
  6  8  1  0  0  0
  8  9  2  0  0  0
  9 10  1  0  0  0
 10 11  2  0  0  0
 11 12  1  0  0  0
 11 13  1  0  0  0
 13 14  1  0  0  0
 13 15  2  0  0  0
 21 16  1  0  0  0
  7  3  1  0  0  0
 15  8  1  0  0  0
 35 30  1  0  0  0
 41 36  1  0  0  0
 43 45  1  0  0  0
 43 46  1  0  0  0
M  END
> <minimizedAffinity>
-7.15843

> <CNNscore>
0.3186783195

> <CNNaffinity>
7.1432456970

> <CNN_VS>
2.2763974667

> <CNNaffinity_variance>
0.0637842417

$$$$
[H]c1nc([H])c([H])c(C2(C(=O)N([H])[H])C([H])([H])C([H])([H])N(C([H])([H])C([H])([H])C3(c4c([H])c([H])c(Cl)c(Cl)c4[H])C([H])([H])N(C(=O)c4c([H])c(OC([H])([H])[H])c(OC([H])([H])[H])c(OC([H])([H])[H])c4[H])C([H])([H])C3([H])[H])C([H])([H])C2([H])[H])c1[H]


 46 50  0  0  0  0  0  0  0  0999 V2000
  152.2040  136.3440  182.6034 C   0  0  0  0  0  0  0  0  0  0  0  0
  152.7845  135.5627  181.7227 O   0  0  0  0  0  0  0  0  0  0  0  0
  152.9699  136.5419  183.7569 N   0  0  0  0  0  0  0  0  0  0  0  0
  154.2855  135.8895  183.9329 C   0  0  0  0  0  0  0  0  0  0  0  0
  154.4859  135.8773  185.4225 C   0  0  0  0  0  0  0  0  0  0  0  0
  153.9197  137.2433  185.8259 C   0  0  0  0  0  0  0  0  0  0  0  0
  152.7219  137.3488  184.9169 C   0  0  0  0  0  0  0  0  0  0  0  0
  153.5956  137.2307  187.2651 C   0  0  0  0  0  0  0  0  0  0  0  0
  152.4958  136.4525  187.6309 C   0  0  0  0  0  0  0  0  0  0  0  0
  152.0970  136.3515  188.9425 C   0  0  0  0  0  0  0  0  0  0  0  0
  152.7744  137.0206  189.9453 C   0  0  0  0  0  0  0  0  0  0  0  0
  152.2447  136.8722  191.6078 Cl  0  0  0  0  0  0  0  0  0  0  0  0
  153.8473  137.7771  189.5716 C   0  0  0  0  0  0  0  0  0  0  0  0
  154.7299  138.6413  190.8173 Cl  0  0  0  0  0  0  0  0  0  0  0  0
  154.2803  137.9010  188.2454 C   0  0  0  0  0  0  0  0  0  0  0  0
  149.7005  138.5976  181.0271 C   0  0  0  0  0  0  0  0  0  0  0  0
  150.8760  138.0235  181.4595 C   0  0  0  0  0  0  0  0  0  0  0  0
  150.9059  136.8580  182.2472 C   0  0  0  0  0  0  0  0  0  0  0  0
  149.7152  136.2934  182.5814 C   0  0  0  0  0  0  0  0  0  0  0  0
  148.4894  136.8442  182.1620 C   0  0  0  0  0  0  0  0  0  0  0  0
  148.5205  137.9809  181.3973 C   0  0  0  0  0  0  0  0  0  0  0  0
  150.9336  140.1344  179.6552 C   0  0  0  0  0  0  0  0  0  0  0  0
  149.7023  139.7495  180.2514 O   0  0  0  0  0  0  0  0  0  0  0  0
  147.2659  136.2888  182.4868 O   0  0  0  0  0  0  0  0  0  0  0  0
  147.1273  135.6947  183.7644 C   0  0  0  0  0  0  0  0  0  0  0  0
  147.3379  138.5537  180.9631 O   0  0  0  0  0  0  0  0  0  0  0  0
  146.8134  138.2828  179.6784 C   0  0  0  0  0  0  0  0  0  0  0  0
  155.0194  138.2322  185.5201 C   0  0  0  0  0  0  0  0  0  0  0  0
  154.5488  139.5301  184.9566 C   0  0  0  0  0  0  0  0  0  0  0  0
  155.4216  139.8767  183.8314 N   0  0  0  0  0  0  0  0  0  0  0  0
  155.4391  141.3126  183.5941 C   0  0  0  0  0  0  0  0  0  0  0  0
  156.2168  141.4736  182.2844 C   0  0  0  0  0  0  0  0  0  0  0  0
  157.6841  141.2403  182.6834 C   0  0  0  0  0  0  0  0  0  0  0  0
  157.8109  140.4893  183.9540 C   0  0  0  0  0  0  0  0  0  0  0  0
  156.7748  139.3981  184.0716 C   0  0  0  0  0  0  0  0  0  0  0  0
  158.3102  142.5867  182.6981 C   0  0  0  0  0  0  0  0  0  0  0  0
  159.4151  142.7436  183.5361 C   0  0  0  0  0  0  0  0  0  0  0  0
  160.0403  143.9880  183.6134 C   0  0  0  0  0  0  0  0  0  0  0  0
  159.5819  145.0086  182.8927 N   0  0  0  0  0  0  0  0  0  0  0  0
  158.5222  144.8883  182.0777 C   0  0  0  0  0  0  0  0  0  0  0  0
  157.8804  143.6703  181.9781 C   0  0  0  0  0  0  0  0  0  0  0  0
  158.3131  140.4566  181.5900 C   0  0  0  0  0  0  0  0  0  0  0  0
  158.4127  140.9065  180.2408 N   0  0  0  0  0  0  0  0  0  0  0  0
  158.8047  139.3110  181.8359 O   0  0  0  0  0  0  0  0  0  0  0  0
  157.7694  140.4494  179.5572 H   0  0  0  0  0  0  0  0  0  0  0  0
  159.0764  141.6450  179.9262 H   0  0  0  0  0  0  0  0  0  0  0  0
 22 23  1  0  0  0
 23 16  1  0  0  0
 16 17  2  0  0  0
 17 18  1  0  0  0
 18 19  2  0  0  0
 19 20  1  0  0  0
 20 24  1  0  0  0
 24 25  1  0  0  0
 20 21  2  0  0  0
 21 26  1  0  0  0
 26 27  1  0  0  0
 18  1  1  0  0  0
  1  2  2  0  0  0
  1  3  1  0  0  0
  3  4  1  0  0  0
  4  5  1  0  0  0
  5  6  1  0  0  0
  6 28  1  0  0  0
 28 29  1  0  0  0
 29 30  1  0  0  0
 30 31  1  0  0  0
 31 32  1  0  0  0
 32 33  1  0  0  0
 33 34  1  0  0  0
 34 35  1  0  0  0
 33 42  1  0  0  0
 42 43  1  0  0  0
 42 44  2  0  0  0
 33 36  1  0  0  0
 36 37  2  0  0  0
 37 38  1  0  0  0
 38 39  2  0  0  0
 39 40  1  0  0  0
 40 41  2  0  0  0
  6  7  1  0  0  0
  6  8  1  0  0  0
  8  9  2  0  0  0
  9 10  1  0  0  0
 10 11  2  0  0  0
 11 12  1  0  0  0
 11 13  1  0  0  0
 13 14  1  0  0  0
 13 15  2  0  0  0
 21 16  1  0  0  0
  7  3  1  0  0  0
 15  8  1  0  0  0
 35 30  1  0  0  0
 41 36  1  0  0  0
 43 45  1  0  0  0
 43 46  1  0  0  0
M  END
> <minimizedAffinity>
-8.29109

> <CNNscore>
0.2773116231

> <CNNaffinity>
7.2505278587

> <CNN_VS>
2.0106556416

> <CNNaffinity_variance>
0.2359138429

$$$$
[H]c1nc([H])c([H])c(C2(C(=O)N([H])[H])C([H])([H])C([H])([H])N(C([H])([H])C([H])([H])C3(c4c([H])c([H])c(Cl)c(Cl)c4[H])C([H])([H])N(C(=O)c4c([H])c(OC([H])([H])[H])c(OC([H])([H])[H])c(OC([H])([H])[H])c4[H])C([H])([H])C3([H])[H])C([H])([H])C2([H])[H])c1[H]


 46 50  0  0  0  0  0  0  0  0999 V2000
  157.9994  139.9546  184.5617 C   0  0  0  0  0  0  0  0  0  0  0  0
  158.7807  139.0616  185.1229 O   0  0  0  0  0  0  0  0  0  0  0  0
  156.6791  139.5179  184.4115 N   0  0  0  0  0  0  0  0  0  0  0  0
  156.2601  138.1633  184.8322 C   0  0  0  0  0  0  0  0  0  0  0  0
  155.0243  137.8989  184.0185 C   0  0  0  0  0  0  0  0  0  0  0  0
  154.3402  139.2704  184.0331 C   0  0  0  0  0  0  0  0  0  0  0  0
  155.5235  140.1942  183.8964 C   0  0  0  0  0  0  0  0  0  0  0  0
  153.3747  139.3452  182.9202 C   0  0  0  0  0  0  0  0  0  0  0  0
  153.3940  140.5291  182.1807 C   0  0  0  0  0  0  0  0  0  0  0  0
  152.5489  140.7183  181.1133 C   0  0  0  0  0  0  0  0  0  0  0  0
  151.6485  139.7387  180.7366 C   0  0  0  0  0  0  0  0  0  0  0  0
  150.5849  140.0067  179.3716 Cl  0  0  0  0  0  0  0  0  0  0  0  0
  151.6419  138.5871  181.4694 C   0  0  0  0  0  0  0  0  0  0  0  0
  150.5115  137.3226  181.0212 Cl  0  0  0  0  0  0  0  0  0  0  0  0
  152.4893  138.3620  182.5616 C   0  0  0  0  0  0  0  0  0  0  0  0
  160.1185  142.9885  184.9296 C   0  0  0  0  0  0  0  0  0  0  0  0
  159.4497  141.8066  185.1616 C   0  0  0  0  0  0  0  0  0  0  0  0
  158.6131  141.2076  184.2019 C   0  0  0  0  0  0  0  0  0  0  0  0
  158.4757  141.8381  183.0053 C   0  0  0  0  0  0  0  0  0  0  0  0
  159.1400  143.0469  182.7232 C   0  0  0  0  0  0  0  0  0  0  0  0
  159.9413  143.5853  183.6957 C   0  0  0  0  0  0  0  0  0  0  0  0
  161.8719  142.7051  186.5450 C   0  0  0  0  0  0  0  0  0  0  0  0
  160.9369  143.5568  185.8971 O   0  0  0  0  0  0  0  0  0  0  0  0
  159.0184  143.7067  181.5145 O   0  0  0  0  0  0  0  0  0  0  0  0
  158.1060  143.1858  180.5654 C   0  0  0  0  0  0  0  0  0  0  0  0
  160.6133  144.7716  183.4585 O   0  0  0  0  0  0  0  0  0  0  0  0
  159.9577  146.0215  183.5399 C   0  0  0  0  0  0  0  0  0  0  0  0
  153.6429  139.3493  185.3703 C   0  0  0  0  0  0  0  0  0  0  0  0
  152.9233  138.1059  185.7701 C   0  0  0  0  0  0  0  0  0  0  0  0
  153.5388  137.6046  187.0023 N   0  0  0  0  0  0  0  0  0  0  0  0
  153.0714  138.3402  188.1680 C   0  0  0  0  0  0  0  0  0  0  0  0
  153.9521  137.8365  189.3155 C   0  0  0  0  0  0  0  0  0  0  0  0
  153.3996  136.4359  189.6311 C   0  0  0  0  0  0  0  0  0  0  0  0
  152.6303  135.8648  188.5011 C   0  0  0  0  0  0  0  0  0  0  0  0
  153.2613  136.1857  187.1682 C   0  0  0  0  0  0  0  0  0  0  0  0
  152.6253  136.5890  190.8889 C   0  0  0  0  0  0  0  0  0  0  0  0
  151.3087  136.1268  190.8625 C   0  0  0  0  0  0  0  0  0  0  0  0
  150.5180  136.2569  192.0040 C   0  0  0  0  0  0  0  0  0  0  0  0
  151.0213  136.8164  193.1016 N   0  0  0  0  0  0  0  0  0  0  0  0
  152.2835  137.2696  193.1576 C   0  0  0  0  0  0  0  0  0  0  0  0
  153.0928  137.1562  192.0452 C   0  0  0  0  0  0  0  0  0  0  0  0
  154.5659  135.5621  189.9167 C   0  0  0  0  0  0  0  0  0  0  0  0
  154.4631  134.1876  190.2809 N   0  0  0  0  0  0  0  0  0  0  0  0
  155.7430  136.0344  189.8397 O   0  0  0  0  0  0  0  0  0  0  0  0
  154.6516  133.9643  191.2833 H   0  0  0  0  0  0  0  0  0  0  0  0
  154.2161  133.4297  189.6105 H   0  0  0  0  0  0  0  0  0  0  0  0
 22 23  1  0  0  0
 23 16  1  0  0  0
 16 17  2  0  0  0
 17 18  1  0  0  0
 18 19  2  0  0  0
 19 20  1  0  0  0
 20 24  1  0  0  0
 24 25  1  0  0  0
 20 21  2  0  0  0
 21 26  1  0  0  0
 26 27  1  0  0  0
 18  1  1  0  0  0
  1  2  2  0  0  0
  1  3  1  0  0  0
  3  4  1  0  0  0
  4  5  1  0  0  0
  5  6  1  0  0  0
  6 28  1  0  0  0
 28 29  1  0  0  0
 29 30  1  0  0  0
 30 31  1  0  0  0
 31 32  1  0  0  0
 32 33  1  0  0  0
 33 34  1  0  0  0
 34 35  1  0  0  0
 33 42  1  0  0  0
 42 43  1  0  0  0
 42 44  2  0  0  0
 33 36  1  0  0  0
 36 37  2  0  0  0
 37 38  1  0  0  0
 38 39  2  0  0  0
 39 40  1  0  0  0
 40 41  2  0  0  0
  6  7  1  0  0  0
  6  8  1  0  0  0
  8  9  2  0  0  0
  9 10  1  0  0  0
 10 11  2  0  0  0
 11 12  1  0  0  0
 11 13  1  0  0  0
 13 14  1  0  0  0
 13 15  2  0  0  0
 21 16  1  0  0  0
  7  3  1  0  0  0
 15  8  1  0  0  0
 35 30  1  0  0  0
 41 36  1  0  0  0
 43 45  1  0  0  0
 43 46  1  0  0  0
M  END
> <minimizedAffinity>
-7.47482

> <CNNscore>
0.2679376900

> <CNNaffinity>
7.0927152634

> <CNN_VS>
1.9004057646

> <CNNaffinity_variance>
0.0265757199

$$$$
[H]c1c(-c2c([H])c(N([H])C(=O)c3c([H])c([H])c([H])c(C(F)(F)F)c3[H])c([H])c([H])c2C([H])([H])[H])nc(N2C([H])([H])C([H])([H])OC([H])([H])C2([H])[H])nc1N1C([H])([H])C([H])([H])OC([H])([H])C1([H])[H]


 39 43  0  0  0  0  0  0  0  0999 V2000
  150.8192  136.8798  184.5233 C   0  0  0  0  0  0  0  0  0  0  0  0
  152.1108  137.5741  184.3902 C   0  0  0  0  0  0  0  0  0  0  0  0
  152.4441  138.1136  183.1386 C   0  0  0  0  0  0  0  0  0  0  0  0
  153.6409  138.7731  182.9686 C   0  0  0  0  0  0  0  0  0  0  0  0
  154.5216  138.9167  184.0027 C   0  0  0  0  0  0  0  0  0  0  0  0
  154.1415  138.3584  185.2398 C   0  0  0  0  0  0  0  0  0  0  0  0
  152.9683  137.6952  185.4610 C   0  0  0  0  0  0  0  0  0  0  0  0
  152.6348  137.1784  186.7835 C   0  0  0  0  0  0  0  0  0  0  0  0
  151.4333  136.5123  187.0140 C   0  0  0  0  0  0  0  0  0  0  0  0
  151.1418  135.9944  188.2542 C   0  0  0  0  0  0  0  0  0  0  0  0
  152.0284  136.1262  189.2803 N   0  0  0  0  0  0  0  0  0  0  0  0
  153.1910  136.7710  189.0605 C   0  0  0  0  0  0  0  0  0  0  0  0
  153.4362  137.2542  187.8567 N   0  0  0  0  0  0  0  0  0  0  0  0
  154.0771  136.8880  190.1689 N   0  0  0  0  0  0  0  0  0  0  0  0
  154.3901  135.8200  191.0805 C   0  0  0  0  0  0  0  0  0  0  0  0
  155.6099  136.2576  191.8631 C   0  0  0  0  0  0  0  0  0  0  0  0
  156.5575  136.7505  190.9561 O   0  0  0  0  0  0  0  0  0  0  0  0
  156.1843  138.0191  190.4858 C   0  0  0  0  0  0  0  0  0  0  0  0
  154.6956  138.1817  190.4330 C   0  0  0  0  0  0  0  0  0  0  0  0
  149.9141  135.3097  188.5611 N   0  0  0  0  0  0  0  0  0  0  0  0
  149.0017  135.7515  189.5924 C   0  0  0  0  0  0  0  0  0  0  0  0
  147.6058  135.6042  188.9833 C   0  0  0  0  0  0  0  0  0  0  0  0
  147.3017  134.3131  188.6611 O   0  0  0  0  0  0  0  0  0  0  0  0
  148.1816  133.6753  187.8291 C   0  0  0  0  0  0  0  0  0  0  0  0
  149.5662  134.1310  187.8058 C   0  0  0  0  0  0  0  0  0  0  0  0
  155.7741  139.5646  183.9732 N   0  0  0  0  0  0  0  0  0  0  0  0
  155.9379  140.9622  183.8659 C   0  0  0  0  0  0  0  0  0  0  0  0
  154.9873  141.7572  183.7949 O   0  0  0  0  0  0  0  0  0  0  0  0
  156.6636  138.9675  184.0279 H   0  0  0  0  0  0  0  0  0  0  0  0
  157.2887  141.5631  183.8298 C   0  0  0  0  0  0  0  0  0  0  0  0
  158.3690  141.0560  184.4855 C   0  0  0  0  0  0  0  0  0  0  0  0
  159.6051  141.6717  184.3853 C   0  0  0  0  0  0  0  0  0  0  0  0
  159.7644  142.8000  183.6271 C   0  0  0  0  0  0  0  0  0  0  0  0
  158.6999  143.3242  182.9640 C   0  0  0  0  0  0  0  0  0  0  0  0
  157.4644  142.7039  183.0675 C   0  0  0  0  0  0  0  0  0  0  0  0
  158.8412  144.5499  182.1347 C   0  0  0  0  0  0  0  0  0  0  0  0
  159.1194  144.2340  180.8272 F   0  0  0  0  0  0  0  0  0  0  0  0
  159.8936  145.2803  182.6409 F   0  0  0  0  0  0  0  0  0  0  0  0
  157.6491  145.2602  182.2224 F   0  0  0  0  0  0  0  0  0  0  0  0
  1  2  1  0  0  0
  2  3  2  0  0  0
  3  4  1  0  0  0
  4  5  2  0  0  0
  5 26  1  0  0  0
 26 27  1  0  0  0
 27 28  2  0  0  0
 27 30  1  0  0  0
 30 31  2  0  0  0
 31 32  1  0  0  0
 32 33  2  0  0  0
 33 34  1  0  0  0
 34 35  2  0  0  0
 34 36  1  0  0  0
 36 37  1  0  0  0
 36 38  1  0  0  0
 36 39  1  0  0  0
  5  6  1  0  0  0
  6  7  2  0  0  0
  7  8  1  0  0  0
  8  9  2  0  0  0
  9 10  1  0  0  0
 10 11  2  0  0  0
 11 12  1  0  0  0
 12 13  2  0  0  0
 12 14  1  0  0  0
 14 15  1  0  0  0
 15 16  1  0  0  0
 16 17  1  0  0  0
 17 18  1  0  0  0
 18 19  1  0  0  0
 10 20  1  0  0  0
 20 21  1  0  0  0
 21 22  1  0  0  0
 22 23  1  0  0  0
 23 24  1  0  0  0
 24 25  1  0  0  0
  7  2  1  0  0  0
 13  8  1  0  0  0
 19 14  1  0  0  0
 25 20  1  0  0  0
 35 30  1  0  0  0
 26 29  1  0  0  0
M  END
> <minimizedAffinity>
-8.27349

> <CNNscore>
0.2864172757

> <CNNaffinity>
6.2999739647

> <CNN_VS>
1.8044214249

> <CNNaffinity_variance>
0.0264520794

$$$$
[H]c1c(-c2c([H])c(N([H])C(=O)c3c([H])c([H])c([H])c(C(F)(F)F)c3[H])c([H])c([H])c2C([H])([H])[H])nc(N2C([H])([H])C([H])([H])OC([H])([H])C2([H])[H])nc1N1C([H])([H])C([H])([H])OC([H])([H])C1([H])[H]


 39 43  0  0  0  0  0  0  0  0999 V2000
  156.4143  137.7112  188.2934 C   0  0  0  0  0  0  0  0  0  0  0  0
  155.4232  137.7396  187.2048 C   0  0  0  0  0  0  0  0  0  0  0  0
  155.7003  138.5316  186.0804 C   0  0  0  0  0  0  0  0  0  0  0  0
  154.8028  138.5866  185.0375 C   0  0  0  0  0  0  0  0  0  0  0  0
  153.6350  137.8790  185.0723 C   0  0  0  0  0  0  0  0  0  0  0  0
  153.4022  137.0981  186.2224 C   0  0  0  0  0  0  0  0  0  0  0  0
  154.2582  137.0093  187.2829 C   0  0  0  0  0  0  0  0  0  0  0  0
  153.9580  136.1478  188.4209 C   0  0  0  0  0  0  0  0  0  0  0  0
  152.9577  136.4804  189.3313 C   0  0  0  0  0  0  0  0  0  0  0  0
  152.6543  135.6450  190.3808 C   0  0  0  0  0  0  0  0  0  0  0  0
  153.3313  134.4742  190.5459 N   0  0  0  0  0  0  0  0  0  0  0  0
  154.3002  134.1503  189.6672 C   0  0  0  0  0  0  0  0  0  0  0  0
  154.5630  134.9769  188.6720 N   0  0  0  0  0  0  0  0  0  0  0  0
  154.9818  132.9203  189.8911 N   0  0  0  0  0  0  0  0  0  0  0  0
  155.2946  131.9616  188.8652 C   0  0  0  0  0  0  0  0  0  0  0  0
  156.3088  131.0055  189.4560 C   0  0  0  0  0  0  0  0  0  0  0  0
  157.3076  131.7611  190.0844 O   0  0  0  0  0  0  0  0  0  0  0  0
  156.8409  132.2950  191.2956 C   0  0  0  0  0  0  0  0  0  0  0  0
  155.3697  132.5768  191.2539 C   0  0  0  0  0  0  0  0  0  0  0  0
  151.6442  135.9371  191.3629 N   0  0  0  0  0  0  0  0  0  0  0  0
  150.2290  135.7840  191.1077 C   0  0  0  0  0  0  0  0  0  0  0  0
  149.6607  135.1375  192.3727 C   0  0  0  0  0  0  0  0  0  0  0  0
  149.8181  135.9163  193.4827 O   0  0  0  0  0  0  0  0  0  0  0  0
  151.0970  136.3142  193.7644 C   0  0  0  0  0  0  0  0  0  0  0  0
  152.0532  136.3981  192.6672 C   0  0  0  0  0  0  0  0  0  0  0  0
  152.6310  137.8400  184.0824 N   0  0  0  0  0  0  0  0  0  0  0  0
  152.5776  136.8802  183.0491 C   0  0  0  0  0  0  0  0  0  0  0  0
  153.4114  135.9699  182.9196 O   0  0  0  0  0  0  0  0  0  0  0  0
  151.8596  138.5852  184.1024 H   0  0  0  0  0  0  0  0  0  0  0  0
  151.4958  136.9158  182.0414 C   0  0  0  0  0  0  0  0  0  0  0  0
  150.6031  135.9071  181.8420 C   0  0  0  0  0  0  0  0  0  0  0  0
  149.6079  136.0276  180.8870 C   0  0  0  0  0  0  0  0  0  0  0  0
  149.5029  137.1605  180.1261 C   0  0  0  0  0  0  0  0  0  0  0  0
  150.3833  138.1801  180.3076 C   0  0  0  0  0  0  0  0  0  0  0  0
  151.3778  138.0546  181.2652 C   0  0  0  0  0  0  0  0  0  0  0  0
  150.2961  139.4220  179.4950 C   0  0  0  0  0  0  0  0  0  0  0  0
  149.5646  139.2150  178.3510 F   0  0  0  0  0  0  0  0  0  0  0  0
  151.5769  139.7793  179.1356 F   0  0  0  0  0  0  0  0  0  0  0  0
  149.7037  140.4027  180.2827 F   0  0  0  0  0  0  0  0  0  0  0  0
  1  2  1  0  0  0
  2  3  2  0  0  0
  3  4  1  0  0  0
  4  5  2  0  0  0
  5 26  1  0  0  0
 26 27  1  0  0  0
 27 28  2  0  0  0
 27 30  1  0  0  0
 30 31  2  0  0  0
 31 32  1  0  0  0
 32 33  2  0  0  0
 33 34  1  0  0  0
 34 35  2  0  0  0
 34 36  1  0  0  0
 36 37  1  0  0  0
 36 38  1  0  0  0
 36 39  1  0  0  0
  5  6  1  0  0  0
  6  7  2  0  0  0
  7  8  1  0  0  0
  8  9  2  0  0  0
  9 10  1  0  0  0
 10 11  2  0  0  0
 11 12  1  0  0  0
 12 13  2  0  0  0
 12 14  1  0  0  0
 14 15  1  0  0  0
 15 16  1  0  0  0
 16 17  1  0  0  0
 17 18  1  0  0  0
 18 19  1  0  0  0
 10 20  1  0  0  0
 20 21  1  0  0  0
 21 22  1  0  0  0
 22 23  1  0  0  0
 23 24  1  0  0  0
 24 25  1  0  0  0
  7  2  1  0  0  0
 13  8  1  0  0  0
 19 14  1  0  0  0
 25 20  1  0  0  0
 35 30  1  0  0  0
 26 29  1  0  0  0
M  END
> <minimizedAffinity>
-7.00345

> <CNNscore>
0.2678378820

> <CNNaffinity>
5.6621356010

> <CNN_VS>
1.5165344477

> <CNNaffinity_variance>
0.1370434314

$$$$
[H]c1c(-c2c([H])c(N([H])C(=O)c3c([H])c([H])c([H])c(C(F)(F)F)c3[H])c([H])c([H])c2C([H])([H])[H])nc(N2C([H])([H])C([H])([H])OC([H])([H])C2([H])[H])nc1N1C([H])([H])C([H])([H])OC([H])([H])C1([H])[H]


 39 43  0  0  0  0  0  0  0  0999 V2000
  150.7238  137.5661  183.2060 C   0  0  0  0  0  0  0  0  0  0  0  0
  151.9290  138.3947  183.0361 C   0  0  0  0  0  0  0  0  0  0  0  0
  152.0539  139.1440  181.8565 C   0  0  0  0  0  0  0  0  0  0  0  0
  153.1633  139.9346  181.6560 C   0  0  0  0  0  0  0  0  0  0  0  0
  154.1569  140.0078  182.5903 C   0  0  0  0  0  0  0  0  0  0  0  0
  153.9855  139.2376  183.7582 C   0  0  0  0  0  0  0  0  0  0  0  0
  152.9062  138.4381  184.0056 C   0  0  0  0  0  0  0  0  0  0  0  0
  152.7886  137.7005  185.2584 C   0  0  0  0  0  0  0  0  0  0  0  0
  153.8886  137.5212  186.0940 C   0  0  0  0  0  0  0  0  0  0  0  0
  153.7625  136.8573  187.2918 C   0  0  0  0  0  0  0  0  0  0  0  0
  152.5537  136.3629  187.6801 N   0  0  0  0  0  0  0  0  0  0  0  0
  151.4880  136.5340  186.8733 C   0  0  0  0  0  0  0  0  0  0  0  0
  151.6476  137.1770  185.7314 N   0  0  0  0  0  0  0  0  0  0  0  0
  150.2513  135.9903  187.3230 N   0  0  0  0  0  0  0  0  0  0  0  0
  150.0786  135.2595  188.5500 C   0  0  0  0  0  0  0  0  0  0  0  0
  148.5887  135.1835  188.8069 C   0  0  0  0  0  0  0  0  0  0  0  0
  148.0493  136.4651  188.6331 O   0  0  0  0  0  0  0  0  0  0  0  0
  147.9776  136.7951  187.2708 C   0  0  0  0  0  0  0  0  0  0  0  0
  149.0729  136.1478  186.4790 C   0  0  0  0  0  0  0  0  0  0  0  0
  154.8607  136.6261  188.1919 N   0  0  0  0  0  0  0  0  0  0  0  0
  156.0445  137.4562  188.2208 C   0  0  0  0  0  0  0  0  0  0  0  0
  156.3535  137.6632  189.7050 C   0  0  0  0  0  0  0  0  0  0  0  0
  156.6281  136.4958  190.3571 O   0  0  0  0  0  0  0  0  0  0  0  0
  155.6756  135.5169  190.2691 C   0  0  0  0  0  0  0  0  0  0  0  0
  154.7831  135.5214  189.1164 C   0  0  0  0  0  0  0  0  0  0  0  0
  155.3406  140.7716  182.5192 N   0  0  0  0  0  0  0  0  0  0  0  0
  155.4484  142.1049  182.9690 C   0  0  0  0  0  0  0  0  0  0  0  0
  154.5062  142.7309  183.4800 O   0  0  0  0  0  0  0  0  0  0  0  0
  156.2170  140.3238  182.0923 H   0  0  0  0  0  0  0  0  0  0  0  0
  156.7251  142.8414  182.8476 C   0  0  0  0  0  0  0  0  0  0  0  0
  156.8580  144.0431  182.2213 C   0  0  0  0  0  0  0  0  0  0  0  0
  158.0887  144.6752  182.1668 C   0  0  0  0  0  0  0  0  0  0  0  0
  159.1932  144.1049  182.7398 C   0  0  0  0  0  0  0  0  0  0  0  0
  159.0841  142.9056  183.3701 C   0  0  0  0  0  0  0  0  0  0  0  0
  157.8497  142.2769  183.4220 C   0  0  0  0  0  0  0  0  0  0  0  0
  160.2662  142.2603  183.9998 C   0  0  0  0  0  0  0  0  0  0  0  0
  160.8868  141.4023  183.1249 F   0  0  0  0  0  0  0  0  0  0  0  0
  159.8211  141.5337  185.0821 F   0  0  0  0  0  0  0  0  0  0  0  0
  161.1378  143.2684  184.3963 F   0  0  0  0  0  0  0  0  0  0  0  0
  1  2  1  0  0  0
  2  3  2  0  0  0
  3  4  1  0  0  0
  4  5  2  0  0  0
  5 26  1  0  0  0
 26 27  1  0  0  0
 27 28  2  0  0  0
 27 30  1  0  0  0
 30 31  2  0  0  0
 31 32  1  0  0  0
 32 33  2  0  0  0
 33 34  1  0  0  0
 34 35  2  0  0  0
 34 36  1  0  0  0
 36 37  1  0  0  0
 36 38  1  0  0  0
 36 39  1  0  0  0
  5  6  1  0  0  0
  6  7  2  0  0  0
  7  8  1  0  0  0
  8  9  2  0  0  0
  9 10  1  0  0  0
 10 11  2  0  0  0
 11 12  1  0  0  0
 12 13  2  0  0  0
 12 14  1  0  0  0
 14 15  1  0  0  0
 15 16  1  0  0  0
 16 17  1  0  0  0
 17 18  1  0  0  0
 18 19  1  0  0  0
 10 20  1  0  0  0
 20 21  1  0  0  0
 21 22  1  0  0  0
 22 23  1  0  0  0
 23 24  1  0  0  0
 24 25  1  0  0  0
  7  2  1  0  0  0
 13  8  1  0  0  0
 19 14  1  0  0  0
 25 20  1  0  0  0
 35 30  1  0  0  0
 26 29  1  0  0  0
M  END
> <minimizedAffinity>
-8.59977

> <CNNscore>
0.2446924895

> <CNNaffinity>
6.3918237686

> <CNN_VS>
1.5640312433

> <CNNaffinity_variance>
0.0217285659

$$$$
[H]c1c(-c2c([H])c(N([H])C(=O)c3c([H])c([H])c([H])c(C(F)(F)F)c3[H])c([H])c([H])c2C([H])([H])[H])nc(N2C([H])([H])C([H])([H])OC([H])([H])C2([H])[H])nc1N1C([H])([H])C([H])([H])OC([H])([H])C1([H])[H]


 39 43  0  0  0  0  0  0  0  0999 V2000
  151.6447  137.3113  183.0347 C   0  0  0  0  0  0  0  0  0  0  0  0
  152.6269  138.4082  183.0505 C   0  0  0  0  0  0  0  0  0  0  0  0
  152.4836  139.4361  182.1064 C   0  0  0  0  0  0  0  0  0  0  0  0
  153.3778  140.4830  182.0858 C   0  0  0  0  0  0  0  0  0  0  0  0
  154.4134  140.5452  182.9742 C   0  0  0  0  0  0  0  0  0  0  0  0
  154.5148  139.4899  183.9029 C   0  0  0  0  0  0  0  0  0  0  0  0
  153.6561  138.4298  183.9655 C   0  0  0  0  0  0  0  0  0  0  0  0
  153.8106  137.3963  184.9830 C   0  0  0  0  0  0  0  0  0  0  0  0
  154.2773  137.7061  186.2583 C   0  0  0  0  0  0  0  0  0  0  0  0
  154.3849  136.7333  187.2245 C   0  0  0  0  0  0  0  0  0  0  0  0
  154.0349  135.4462  186.9466 N   0  0  0  0  0  0  0  0  0  0  0  0
  153.5840  135.1435  185.7133 C   0  0  0  0  0  0  0  0  0  0  0  0
  153.4938  136.1039  184.8122 N   0  0  0  0  0  0  0  0  0  0  0  0
  153.2405  133.7825  185.4740 N   0  0  0  0  0  0  0  0  0  0  0  0
  153.9723  132.8956  184.6095 C   0  0  0  0  0  0  0  0  0  0  0  0
  153.4945  131.4926  184.9182 C   0  0  0  0  0  0  0  0  0  0  0  0
  153.4940  131.3273  186.3097 O   0  0  0  0  0  0  0  0  0  0  0  0
  152.4173  132.0134  186.8926 C   0  0  0  0  0  0  0  0  0  0  0  0
  152.0489  133.2412  186.1165 C   0  0  0  0  0  0  0  0  0  0  0  0
  154.8730  136.9844  188.5544 N   0  0  0  0  0  0  0  0  0  0  0  0
  154.3812  138.0617  189.3843 C   0  0  0  0  0  0  0  0  0  0  0  0
  154.2254  137.4542  190.7800 C   0  0  0  0  0  0  0  0  0  0  0  0
  155.4073  137.0123  191.3007 O   0  0  0  0  0  0  0  0  0  0  0  0
  156.1048  136.1148  190.5382 C   0  0  0  0  0  0  0  0  0  0  0  0
  155.8956  136.1226  189.0955 C   0  0  0  0  0  0  0  0  0  0  0  0
  155.3972  141.5515  183.0688 N   0  0  0  0  0  0  0  0  0  0  0  0
  156.6344  141.5129  182.3909 C   0  0  0  0  0  0  0  0  0  0  0  0
  156.9704  140.5862  181.6365 O   0  0  0  0  0  0  0  0  0  0  0  0
  155.2069  142.3996  183.6976 H   0  0  0  0  0  0  0  0  0  0  0  0
  157.6183  142.6049  182.5532 C   0  0  0  0  0  0  0  0  0  0  0  0
  157.5751  143.7812  181.8687 C   0  0  0  0  0  0  0  0  0  0  0  0
  158.5277  144.7606  182.0930 C   0  0  0  0  0  0  0  0  0  0  0  0
  159.5297  144.5652  183.0047 C   0  0  0  0  0  0  0  0  0  0  0  0
  159.5929  143.3985  183.6993 C   0  0  0  0  0  0  0  0  0  0  0  0
  158.6366  142.4212  183.4713 C   0  0  0  0  0  0  0  0  0  0  0  0
  160.6705  143.1563  184.6945 C   0  0  0  0  0  0  0  0  0  0  0  0
  161.5836  142.2445  184.2237 F   0  0  0  0  0  0  0  0  0  0  0  0
  160.0853  142.6415  185.8302 F   0  0  0  0  0  0  0  0  0  0  0  0
  161.2872  144.3747  184.9557 F   0  0  0  0  0  0  0  0  0  0  0  0
  1  2  1  0  0  0
  2  3  2  0  0  0
  3  4  1  0  0  0
  4  5  2  0  0  0
  5 26  1  0  0  0
 26 27  1  0  0  0
 27 28  2  0  0  0
 27 30  1  0  0  0
 30 31  2  0  0  0
 31 32  1  0  0  0
 32 33  2  0  0  0
 33 34  1  0  0  0
 34 35  2  0  0  0
 34 36  1  0  0  0
 36 37  1  0  0  0
 36 38  1  0  0  0
 36 39  1  0  0  0
  5  6  1  0  0  0
  6  7  2  0  0  0
  7  8  1  0  0  0
  8  9  2  0  0  0
  9 10  1  0  0  0
 10 11  2  0  0  0
 11 12  1  0  0  0
 12 13  2  0  0  0
 12 14  1  0  0  0
 14 15  1  0  0  0
 15 16  1  0  0  0
 16 17  1  0  0  0
 17 18  1  0  0  0
 18 19  1  0  0  0
 10 20  1  0  0  0
 20 21  1  0  0  0
 21 22  1  0  0  0
 22 23  1  0  0  0
 23 24  1  0  0  0
 24 25  1  0  0  0
  7  2  1  0  0  0
 13  8  1  0  0  0
 19 14  1  0  0  0
 25 20  1  0  0  0
 35 30  1  0  0  0
 26 29  1  0  0  0
M  END
> <minimizedAffinity>
-8.79075

> <CNNscore>
0.2369532138

> <CNNaffinity>
6.5259461403

> <CNN_VS>
1.5463439226

> <CNNaffinity_variance>
0.0634348094

$$$$
[H]c1c(-c2c([H])c(N([H])C(=O)c3c([H])c([H])c([H])c(C(F)(F)F)c3[H])c([H])c([H])c2C([H])([H])[H])nc(N2C([H])([H])C([H])([H])OC([H])([H])C2([H])[H])nc1N1C([H])([H])C([H])([H])OC([H])([H])C1([H])[H]


 39 43  0  0  0  0  0  0  0  0999 V2000
  151.4866  137.0487  183.8699 C   0  0  0  0  0  0  0  0  0  0  0  0
  152.6075  138.0012  183.9359 C   0  0  0  0  0  0  0  0  0  0  0  0
  152.9493  138.7001  182.7683 C   0  0  0  0  0  0  0  0  0  0  0  0
  153.9894  139.6024  182.7842 C   0  0  0  0  0  0  0  0  0  0  0  0
  154.7046  139.8361  183.9242 C   0  0  0  0  0  0  0  0  0  0  0  0
  154.3230  139.1104  185.0707 C   0  0  0  0  0  0  0  0  0  0  0  0
  153.3010  138.2052  185.1081 C   0  0  0  0  0  0  0  0  0  0  0  0
  152.9468  137.5224  186.3473 C   0  0  0  0  0  0  0  0  0  0  0  0
  153.8835  137.3407  187.3621 C   0  0  0  0  0  0  0  0  0  0  0  0
  153.5329  136.7295  188.5432 C   0  0  0  0  0  0  0  0  0  0  0  0
  152.2578  136.2908  188.7385 N   0  0  0  0  0  0  0  0  0  0  0  0
  151.3497  136.4643  187.7581 C   0  0  0  0  0  0  0  0  0  0  0  0
  151.7231  137.0557  186.6384 N   0  0  0  0  0  0  0  0  0  0  0  0
  150.0349  135.9796  188.0108 N   0  0  0  0  0  0  0  0  0  0  0  0
  149.6257  135.3233  189.2237 C   0  0  0  0  0  0  0  0  0  0  0  0
  148.1120  135.3015  189.2188 C   0  0  0  0  0  0  0  0  0  0  0  0
  147.6575  136.5853  188.8890 O   0  0  0  0  0  0  0  0  0  0  0  0
  147.8354  136.8407  187.5205 C   0  0  0  0  0  0  0  0  0  0  0  0
  149.0274  136.1212  186.9665 C   0  0  0  0  0  0  0  0  0  0  0  0
  154.4551  136.4986  189.6230 N   0  0  0  0  0  0  0  0  0  0  0  0
  155.0935  135.2219  189.8550 C   0  0  0  0  0  0  0  0  0  0  0  0
  156.5484  135.5558  190.1910 C   0  0  0  0  0  0  0  0  0  0  0  0
  156.6713  136.3123  191.3206 O   0  0  0  0  0  0  0  0  0  0  0  0
  155.9660  137.4851  191.3414 C   0  0  0  0  0  0  0  0  0  0  0  0
  154.7684  137.5869  190.5166 C   0  0  0  0  0  0  0  0  0  0  0  0
  155.7863  140.7267  184.0854 N   0  0  0  0  0  0  0  0  0  0  0  0
  157.1139  140.4335  183.7071 C   0  0  0  0  0  0  0  0  0  0  0  0
  157.4535  139.3592  183.1862 O   0  0  0  0  0  0  0  0  0  0  0  0
  155.6013  141.6861  184.5284 H   0  0  0  0  0  0  0  0  0  0  0  0
  158.1950  141.4196  183.9213 C   0  0  0  0  0  0  0  0  0  0  0  0
  159.1956  141.2714  184.8329 C   0  0  0  0  0  0  0  0  0  0  0  0
  160.1807  142.2361  184.9586 C   0  0  0  0  0  0  0  0  0  0  0  0
  160.1674  143.3554  184.1708 C   0  0  0  0  0  0  0  0  0  0  0  0
  159.1781  143.5245  183.2542 C   0  0  0  0  0  0  0  0  0  0  0  0
  158.1942  142.5556  183.1321 C   0  0  0  0  0  0  0  0  0  0  0  0
  159.1356  144.7306  182.3859 C   0  0  0  0  0  0  0  0  0  0  0  0
  157.9006  145.3302  182.4312 F   0  0  0  0  0  0  0  0  0  0  0  0
  159.3768  144.3250  181.0918 F   0  0  0  0  0  0  0  0  0  0  0  0
  160.1203  145.6064  182.8293 F   0  0  0  0  0  0  0  0  0  0  0  0
  1  2  1  0  0  0
  2  3  2  0  0  0
  3  4  1  0  0  0
  4  5  2  0  0  0
  5 26  1  0  0  0
 26 27  1  0  0  0
 27 28  2  0  0  0
 27 30  1  0  0  0
 30 31  2  0  0  0
 31 32  1  0  0  0
 32 33  2  0  0  0
 33 34  1  0  0  0
 34 35  2  0  0  0
 34 36  1  0  0  0
 36 37  1  0  0  0
 36 38  1  0  0  0
 36 39  1  0  0  0
  5  6  1  0  0  0
  6  7  2  0  0  0
  7  8  1  0  0  0
  8  9  2  0  0  0
  9 10  1  0  0  0
 10 11  2  0  0  0
 11 12  1  0  0  0
 12 13  2  0  0  0
 12 14  1  0  0  0
 14 15  1  0  0  0
 15 16  1  0  0  0
 16 17  1  0  0  0
 17 18  1  0  0  0
 18 19  1  0  0  0
 10 20  1  0  0  0
 20 21  1  0  0  0
 21 22  1  0  0  0
 22 23  1  0  0  0
 23 24  1  0  0  0
 24 25  1  0  0  0
  7  2  1  0  0  0
 13  8  1  0  0  0
 19 14  1  0  0  0
 25 20  1  0  0  0
 35 30  1  0  0  0
 26 29  1  0  0  0
M  END
> <minimizedAffinity>
-8.76856

> <CNNscore>
0.2366917878

> <CNNaffinity>
6.3913698196

> <CNN_VS>
1.5127847195

> <CNNaffinity_variance>
0.0295661204

$$$$
[H]c1c(-c2c([H])c(N([H])C(=O)c3c([H])c([H])c([H])c(C(F)(F)F)c3[H])c([H])c([H])c2C([H])([H])[H])nc(N2C([H])([H])C([H])([H])OC([H])([H])C2([H])[H])nc1N1C([H])([H])C([H])([H])OC([H])([H])C1([H])[H]


 39 43  0  0  0  0  0  0  0  0999 V2000
  157.2647  139.1722  185.2145 C   0  0  0  0  0  0  0  0  0  0  0  0
  156.1173  138.7168  186.0171 C   0  0  0  0  0  0  0  0  0  0  0  0
  156.3754  138.1414  187.2704 C   0  0  0  0  0  0  0  0  0  0  0  0
  155.3327  137.7034  188.0560 C   0  0  0  0  0  0  0  0  0  0  0  0
  154.0372  137.8178  187.6386 C   0  0  0  0  0  0  0  0  0  0  0  0
  153.8292  138.4028  186.3733 C   0  0  0  0  0  0  0  0  0  0  0  0
  154.8267  138.8525  185.5560 C   0  0  0  0  0  0  0  0  0  0  0  0
  154.5231  139.4798  184.2747 C   0  0  0  0  0  0  0  0  0  0  0  0
  155.3044  140.5217  183.7804 C   0  0  0  0  0  0  0  0  0  0  0  0
  155.0354  141.0835  182.5543 C   0  0  0  0  0  0  0  0  0  0  0  0
  153.9955  140.6267  181.8018 N   0  0  0  0  0  0  0  0  0  0  0  0
  153.2373  139.6195  182.2779 C   0  0  0  0  0  0  0  0  0  0  0  0
  153.5264  139.1050  183.4588 N   0  0  0  0  0  0  0  0  0  0  0  0
  152.1586  139.1867  181.4553 N   0  0  0  0  0  0  0  0  0  0  0  0
  151.0202  138.4437  181.9256 C   0  0  0  0  0  0  0  0  0  0  0  0
  149.9759  138.5061  180.8315 C   0  0  0  0  0  0  0  0  0  0  0  0
  149.8613  139.8382  180.4121 O   0  0  0  0  0  0  0  0  0  0  0  0
  150.9633  140.2099  179.6266 C   0  0  0  0  0  0  0  0  0  0  0  0
  152.2093  139.4806  180.0281 C   0  0  0  0  0  0  0  0  0  0  0  0
  155.7938  142.1703  181.9943 N   0  0  0  0  0  0  0  0  0  0  0  0
  155.4483  143.5597  182.1978 C   0  0  0  0  0  0  0  0  0  0  0  0
  156.7773  144.2686  182.4670 C   0  0  0  0  0  0  0  0  0  0  0  0
  157.6435  144.1880  181.4151 O   0  0  0  0  0  0  0  0  0  0  0  0
  157.9342  142.9276  180.9676 C   0  0  0  0  0  0  0  0  0  0  0  0
  156.9579  141.8696  181.1972 C   0  0  0  0  0  0  0  0  0  0  0  0
  152.8779  137.4162  188.3345 N   0  0  0  0  0  0  0  0  0  0  0  0
  152.4079  136.0864  188.3847 C   0  0  0  0  0  0  0  0  0  0  0  0
  152.9801  135.1387  187.8233 O   0  0  0  0  0  0  0  0  0  0  0  0
  152.3066  138.1601  188.8551 H   0  0  0  0  0  0  0  0  0  0  0  0
  151.1747  135.7495  189.1282 C   0  0  0  0  0  0  0  0  0  0  0  0
  150.0004  135.3913  188.5393 C   0  0  0  0  0  0  0  0  0  0  0  0
  148.8951  135.0743  189.3104 C   0  0  0  0  0  0  0  0  0  0  0  0
  148.9612  135.1155  190.6769 C   0  0  0  0  0  0  0  0  0  0  0  0
  150.1230  135.4707  191.2866 C   0  0  0  0  0  0  0  0  0  0  0  0
  151.2269  135.7870  190.5100 C   0  0  0  0  0  0  0  0  0  0  0  0
  150.2249  135.5267  192.7687 C   0  0  0  0  0  0  0  0  0  0  0  0
  149.0283  135.2028  193.3602 F   0  0  0  0  0  0  0  0  0  0  0  0
  150.5493  136.8189  193.1187 F   0  0  0  0  0  0  0  0  0  0  0  0
  151.2193  134.6365  193.1587 F   0  0  0  0  0  0  0  0  0  0  0  0
  1  2  1  0  0  0
  2  3  2  0  0  0
  3  4  1  0  0  0
  4  5  2  0  0  0
  5 26  1  0  0  0
 26 27  1  0  0  0
 27 28  2  0  0  0
 27 30  1  0  0  0
 30 31  2  0  0  0
 31 32  1  0  0  0
 32 33  2  0  0  0
 33 34  1  0  0  0
 34 35  2  0  0  0
 34 36  1  0  0  0
 36 37  1  0  0  0
 36 38  1  0  0  0
 36 39  1  0  0  0
  5  6  1  0  0  0
  6  7  2  0  0  0
  7  8  1  0  0  0
  8  9  2  0  0  0
  9 10  1  0  0  0
 10 11  2  0  0  0
 11 12  1  0  0  0
 12 13  2  0  0  0
 12 14  1  0  0  0
 14 15  1  0  0  0
 15 16  1  0  0  0
 16 17  1  0  0  0
 17 18  1  0  0  0
 18 19  1  0  0  0
 10 20  1  0  0  0
 20 21  1  0  0  0
 21 22  1  0  0  0
 22 23  1  0  0  0
 23 24  1  0  0  0
 24 25  1  0  0  0
  7  2  1  0  0  0
 13  8  1  0  0  0
 19 14  1  0  0  0
 25 20  1  0  0  0
 35 30  1  0  0  0
 26 29  1  0  0  0
M  END
> <minimizedAffinity>
-8.46504

> <CNNscore>
0.2116940916

> <CNNaffinity>
6.0824718475

> <CNN_VS>
1.2876234055

> <CNNaffinity_variance>
0.1354868710

$$$$
[H]c1c(-c2c([H])c(N([H])C(=O)c3c([H])c([H])c([H])c(C(F)(F)F)c3[H])c([H])c([H])c2C([H])([H])[H])nc(N2C([H])([H])C([H])([H])OC([H])([H])C2([H])[H])nc1N1C([H])([H])C([H])([H])OC([H])([H])C1([H])[H]


 39 43  0  0  0  0  0  0  0  0999 V2000
  153.9158  141.8432  182.3146 C   0  0  0  0  0  0  0  0  0  0  0  0
  153.1510  140.6123  182.0540 C   0  0  0  0  0  0  0  0  0  0  0  0
  152.1437  140.6552  181.0784 C   0  0  0  0  0  0  0  0  0  0  0  0
  151.4046  139.5272  180.8001 C   0  0  0  0  0  0  0  0  0  0  0  0
  151.6325  138.3529  181.4594 C   0  0  0  0  0  0  0  0  0  0  0  0
  152.6548  138.3598  182.4297 C   0  0  0  0  0  0  0  0  0  0  0  0
  153.4155  139.4498  182.7435 C   0  0  0  0  0  0  0  0  0  0  0  0
  154.4802  139.3626  183.7365 C   0  0  0  0  0  0  0  0  0  0  0  0
  154.2677  138.7457  184.9672 C   0  0  0  0  0  0  0  0  0  0  0  0
  155.2866  138.6334  185.8841 C   0  0  0  0  0  0  0  0  0  0  0  0
  156.5246  139.1266  185.6004 N   0  0  0  0  0  0  0  0  0  0  0  0
  156.7328  139.7248  184.4110 C   0  0  0  0  0  0  0  0  0  0  0  0
  155.7308  139.8134  183.5560 N   0  0  0  0  0  0  0  0  0  0  0  0
  158.0419  140.2301  184.1694 N   0  0  0  0  0  0  0  0  0  0  0  0
  158.7724  140.0522  182.9430 C   0  0  0  0  0  0  0  0  0  0  0  0
  159.9305  141.0265  182.9795 C   0  0  0  0  0  0  0  0  0  0  0  0
  159.4355  142.2796  183.3645 O   0  0  0  0  0  0  0  0  0  0  0  0
  159.1436  142.2999  184.7372 C   0  0  0  0  0  0  0  0  0  0  0  0
  158.7179  140.9537  185.2395 C   0  0  0  0  0  0  0  0  0  0  0  0
  155.1289  138.0218  187.1768 N   0  0  0  0  0  0  0  0  0  0  0  0
  156.2065  137.3484  187.8670 C   0  0  0  0  0  0  0  0  0  0  0  0
  156.0925  137.7983  189.3250 C   0  0  0  0  0  0  0  0  0  0  0  0
  154.9119  137.4297  189.9027 O   0  0  0  0  0  0  0  0  0  0  0  0
  153.7732  137.8325  189.2589 C   0  0  0  0  0  0  0  0  0  0  0  0
  153.8415  138.0843  187.8246 C   0  0  0  0  0  0  0  0  0  0  0  0
  150.9581  137.1274  181.2776 N   0  0  0  0  0  0  0  0  0  0  0  0
  149.7410  136.7944  181.9096 C   0  0  0  0  0  0  0  0  0  0  0  0
  149.1428  137.5582  182.6837 O   0  0  0  0  0  0  0  0  0  0  0  0
  151.3918  136.3932  180.6266 H   0  0  0  0  0  0  0  0  0  0  0  0
  149.1033  135.4810  181.6743 C   0  0  0  0  0  0  0  0  0  0  0  0
  148.7342  134.6219  182.6642 C   0  0  0  0  0  0  0  0  0  0  0  0
  148.1258  133.4164  182.3582 C   0  0  0  0  0  0  0  0  0  0  0  0
  147.8848  133.0655  181.0574 C   0  0  0  0  0  0  0  0  0  0  0  0
  148.2449  133.9074  180.0528 C   0  0  0  0  0  0  0  0  0  0  0  0
  148.8536  135.1133  180.3644 C   0  0  0  0  0  0  0  0  0  0  0  0
  147.9983  133.5530  178.6302 C   0  0  0  0  0  0  0  0  0  0  0  0
  147.0845  132.5329  178.5250 F   0  0  0  0  0  0  0  0  0  0  0  0
  149.1920  133.1273  178.0905 F   0  0  0  0  0  0  0  0  0  0  0  0
  147.5338  134.6933  177.9843 F   0  0  0  0  0  0  0  0  0  0  0  0
  1  2  1  0  0  0
  2  3  2  0  0  0
  3  4  1  0  0  0
  4  5  2  0  0  0
  5 26  1  0  0  0
 26 27  1  0  0  0
 27 28  2  0  0  0
 27 30  1  0  0  0
 30 31  2  0  0  0
 31 32  1  0  0  0
 32 33  2  0  0  0
 33 34  1  0  0  0
 34 35  2  0  0  0
 34 36  1  0  0  0
 36 37  1  0  0  0
 36 38  1  0  0  0
 36 39  1  0  0  0
  5  6  1  0  0  0
  6  7  2  0  0  0
  7  8  1  0  0  0
  8  9  2  0  0  0
  9 10  1  0  0  0
 10 11  2  0  0  0
 11 12  1  0  0  0
 12 13  2  0  0  0
 12 14  1  0  0  0
 14 15  1  0  0  0
 15 16  1  0  0  0
 16 17  1  0  0  0
 17 18  1  0  0  0
 18 19  1  0  0  0
 10 20  1  0  0  0
 20 21  1  0  0  0
 21 22  1  0  0  0
 22 23  1  0  0  0
 23 24  1  0  0  0
 24 25  1  0  0  0
  7  2  1  0  0  0
 13  8  1  0  0  0
 19 14  1  0  0  0
 25 20  1  0  0  0
 35 30  1  0  0  0
 26 29  1  0  0  0
M  END
> <minimizedAffinity>
-7.53923

> <CNNscore>
0.2101172954

> <CNNaffinity>
6.1115331650

> <CNN_VS>
1.2841387987

> <CNNaffinity_variance>
0.0186328255

$$$$
[H]c1c(-c2c([H])c(N([H])C(=O)c3c([H])c([H])c([H])c(C(F)(F)F)c3[H])c([H])c([H])c2C([H])([H])[H])nc(N2C([H])([H])C([H])([H])OC([H])([H])C2([H])[H])nc1N1C([H])([H])C([H])([H])OC([H])([H])C1([H])[H]


 39 43  0  0  0  0  0  0  0  0999 V2000
  152.1526  136.7116  188.2298 C   0  0  0  0  0  0  0  0  0  0  0  0
  153.2239  137.3453  187.4432 C   0  0  0  0  0  0  0  0  0  0  0  0
  152.8653  138.3399  186.5208 C   0  0  0  0  0  0  0  0  0  0  0  0
  153.8344  138.9612  185.7651 C   0  0  0  0  0  0  0  0  0  0  0  0
  155.1527  138.6281  185.8944 C   0  0  0  0  0  0  0  0  0  0  0  0
  155.4627  137.6243  186.8340 C   0  0  0  0  0  0  0  0  0  0  0  0
  154.5410  136.9776  187.6070 C   0  0  0  0  0  0  0  0  0  0  0  0
  154.9500  135.9743  188.5834 C   0  0  0  0  0  0  0  0  0  0  0  0
  156.0960  135.2066  188.3895 C   0  0  0  0  0  0  0  0  0  0  0  0
  156.4968  134.2888  189.3321 C   0  0  0  0  0  0  0  0  0  0  0  0
  155.7750  134.1165  190.4747 N   0  0  0  0  0  0  0  0  0  0  0  0
  154.6653  134.8571  190.6645 C   0  0  0  0  0  0  0  0  0  0  0  0
  154.3122  135.7284  189.7378 N   0  0  0  0  0  0  0  0  0  0  0  0
  153.9437  134.6308  191.8710 N   0  0  0  0  0  0  0  0  0  0  0  0
  153.5980  135.6552  192.8200 C   0  0  0  0  0  0  0  0  0  0  0  0
  152.5536  135.0619  193.7415 C   0  0  0  0  0  0  0  0  0  0  0  0
  151.5812  134.4331  192.9525 O   0  0  0  0  0  0  0  0  0  0  0  0
  152.0669  133.2231  192.4331 C   0  0  0  0  0  0  0  0  0  0  0  0
  153.5466  133.2671  192.2001 C   0  0  0  0  0  0  0  0  0  0  0  0
  157.6605  133.4555  189.1857 N   0  0  0  0  0  0  0  0  0  0  0  0
  158.7403  133.4335  190.1472 C   0  0  0  0  0  0  0  0  0  0  0  0
  159.1014  131.9557  190.3116 C   0  0  0  0  0  0  0  0  0  0  0  0
  159.5430  131.3859  189.1524 O   0  0  0  0  0  0  0  0  0  0  0  0
  158.7066  131.4863  188.0737 C   0  0  0  0  0  0  0  0  0  0  0  0
  157.7599  132.5941  188.0328 C   0  0  0  0  0  0  0  0  0  0  0  0
  156.2448  139.1785  185.1917 N   0  0  0  0  0  0  0  0  0  0  0  0
  156.1261  140.1881  184.2128 C   0  0  0  0  0  0  0  0  0  0  0  0
  155.0420  140.6946  183.8828 O   0  0  0  0  0  0  0  0  0  0  0  0
  157.2301  138.8093  185.4011 H   0  0  0  0  0  0  0  0  0  0  0  0
  157.3219  140.7040  183.5120 C   0  0  0  0  0  0  0  0  0  0  0  0
  158.5540  140.1281  183.5767 C   0  0  0  0  0  0  0  0  0  0  0  0
  159.6194  140.6662  182.8749 C   0  0  0  0  0  0  0  0  0  0  0  0
  159.4548  141.7855  182.1046 C   0  0  0  0  0  0  0  0  0  0  0  0
  158.2338  142.3775  182.0253 C   0  0  0  0  0  0  0  0  0  0  0  0
  157.1703  141.8348  182.7298 C   0  0  0  0  0  0  0  0  0  0  0  0
  158.0246  143.5955  181.1989 C   0  0  0  0  0  0  0  0  0  0  0  0
  158.1471  143.3128  179.8603 F   0  0  0  0  0  0  0  0  0  0  0  0
  158.9967  144.5086  181.5431 F   0  0  0  0  0  0  0  0  0  0  0  0
  156.7540  144.0850  181.4804 F   0  0  0  0  0  0  0  0  0  0  0  0
  1  2  1  0  0  0
  2  3  2  0  0  0
  3  4  1  0  0  0
  4  5  2  0  0  0
  5 26  1  0  0  0
 26 27  1  0  0  0
 27 28  2  0  0  0
 27 30  1  0  0  0
 30 31  2  0  0  0
 31 32  1  0  0  0
 32 33  2  0  0  0
 33 34  1  0  0  0
 34 35  2  0  0  0
 34 36  1  0  0  0
 36 37  1  0  0  0
 36 38  1  0  0  0
 36 39  1  0  0  0
  5  6  1  0  0  0
  6  7  2  0  0  0
  7  8  1  0  0  0
  8  9  2  0  0  0
  9 10  1  0  0  0
 10 11  2  0  0  0
 11 12  1  0  0  0
 12 13  2  0  0  0
 12 14  1  0  0  0
 14 15  1  0  0  0
 15 16  1  0  0  0
 16 17  1  0  0  0
 17 18  1  0  0  0
 18 19  1  0  0  0
 10 20  1  0  0  0
 20 21  1  0  0  0
 21 22  1  0  0  0
 22 23  1  0  0  0
 23 24  1  0  0  0
 24 25  1  0  0  0
  7  2  1  0  0  0
 13  8  1  0  0  0
 19 14  1  0  0  0
 25 20  1  0  0  0
 35 30  1  0  0  0
 26 29  1  0  0  0
M  END
> <minimizedAffinity>
-8.10670

> <CNNscore>
0.2059143335

> <CNNaffinity>
6.1284589767

> <CNN_VS>
1.2619374990

> <CNNaffinity_variance>
0.0744309425

$$$$
[H]c1c(-c2c([H])c(N([H])C(=O)c3c([H])c([H])c([H])c(C(F)(F)F)c3[H])c([H])c([H])c2C([H])([H])[H])nc(N2C([H])([H])C([H])([H])OC([H])([H])C2([H])[H])nc1N1C([H])([H])C([H])([H])OC([H])([H])C1([H])[H]


 39 43  0  0  0  0  0  0  0  0999 V2000
  150.9071  135.6750  184.7329 C   0  0  0  0  0  0  0  0  0  0  0  0
  151.8336  136.7712  184.4044 C   0  0  0  0  0  0  0  0  0  0  0  0
  151.9741  137.1351  183.0567 C   0  0  0  0  0  0  0  0  0  0  0  0
  152.8278  138.1561  182.7035 C   0  0  0  0  0  0  0  0  0  0  0  0
  153.5495  138.8315  183.6461 C   0  0  0  0  0  0  0  0  0  0  0  0
  153.3738  138.4298  184.9857 C   0  0  0  0  0  0  0  0  0  0  0  0
  152.5414  137.4248  185.3885 C   0  0  0  0  0  0  0  0  0  0  0  0
  152.3897  137.0954  186.8013 C   0  0  0  0  0  0  0  0  0  0  0  0
  151.2166  136.5201  187.2842 C   0  0  0  0  0  0  0  0  0  0  0  0
  151.0944  136.1773  188.6105 C   0  0  0  0  0  0  0  0  0  0  0  0
  152.1241  136.3967  189.4753 N   0  0  0  0  0  0  0  0  0  0  0  0
  153.2597  136.9541  189.0111 C   0  0  0  0  0  0  0  0  0  0  0  0
  153.3405  137.2693  187.7317 N   0  0  0  0  0  0  0  0  0  0  0  0
  154.3005  137.1694  189.9587 N   0  0  0  0  0  0  0  0  0  0  0  0
  154.6160  136.2769  191.0420 C   0  0  0  0  0  0  0  0  0  0  0  0
  155.9753  136.6892  191.5654 C   0  0  0  0  0  0  0  0  0  0  0  0
  156.8354  136.8484  190.4707 O   0  0  0  0  0  0  0  0  0  0  0  0
  156.5455  138.0337  189.7773 C   0  0  0  0  0  0  0  0  0  0  0  0
  155.0922  138.3896  189.8590 C   0  0  0  0  0  0  0  0  0  0  0  0
  149.9061  135.5944  189.1746 N   0  0  0  0  0  0  0  0  0  0  0  0
  148.5814  135.8418  188.6500 C   0  0  0  0  0  0  0  0  0  0  0  0
  147.8848  134.4795  188.6602 C   0  0  0  0  0  0  0  0  0  0  0  0
  147.7622  133.9562  189.9150 O   0  0  0  0  0  0  0  0  0  0  0  0
  148.9211  133.8297  190.6321 C   0  0  0  0  0  0  0  0  0  0  0  0
  150.0332  134.7162  190.3120 C   0  0  0  0  0  0  0  0  0  0  0  0
  154.4545  139.8917  183.4302 N   0  0  0  0  0  0  0  0  0  0  0  0
  154.3628  140.8017  182.3554 C   0  0  0  0  0  0  0  0  0  0  0  0
  153.4659  140.7576  181.4985 O   0  0  0  0  0  0  0  0  0  0  0  0
  155.2704  140.0192  184.1148 H   0  0  0  0  0  0  0  0  0  0  0  0
  155.3609  141.8808  182.1931 C   0  0  0  0  0  0  0  0  0  0  0  0
  155.1496  143.1779  182.5495 C   0  0  0  0  0  0  0  0  0  0  0  0
  156.1451  144.1250  182.3793 C   0  0  0  0  0  0  0  0  0  0  0  0
  157.3582  143.7763  181.8498 C   0  0  0  0  0  0  0  0  0  0  0  0
  157.5914  142.4875  181.4866 C   0  0  0  0  0  0  0  0  0  0  0  0
  156.5915  141.5430  181.6592 C   0  0  0  0  0  0  0  0  0  0  0  0
  158.8980  142.0789  180.9067 C   0  0  0  0  0  0  0  0  0  0  0  0
  159.8204  141.8267  181.8928 F   0  0  0  0  0  0  0  0  0  0  0  0
  159.3590  143.1219  180.1341 F   0  0  0  0  0  0  0  0  0  0  0  0
  158.6824  140.9412  180.1371 F   0  0  0  0  0  0  0  0  0  0  0  0
  1  2  1  0  0  0
  2  3  2  0  0  0
  3  4  1  0  0  0
  4  5  2  0  0  0
  5 26  1  0  0  0
 26 27  1  0  0  0
 27 28  2  0  0  0
 27 30  1  0  0  0
 30 31  2  0  0  0
 31 32  1  0  0  0
 32 33  2  0  0  0
 33 34  1  0  0  0
 34 35  2  0  0  0
 34 36  1  0  0  0
 36 37  1  0  0  0
 36 38  1  0  0  0
 36 39  1  0  0  0
  5  6  1  0  0  0
  6  7  2  0  0  0
  7  8  1  0  0  0
  8  9  2  0  0  0
  9 10  1  0  0  0
 10 11  2  0  0  0
 11 12  1  0  0  0
 12 13  2  0  0  0
 12 14  1  0  0  0
 14 15  1  0  0  0
 15 16  1  0  0  0
 16 17  1  0  0  0
 17 18  1  0  0  0
 18 19  1  0  0  0
 10 20  1  0  0  0
 20 21  1  0  0  0
 21 22  1  0  0  0
 22 23  1  0  0  0
 23 24  1  0  0  0
 24 25  1  0  0  0
  7  2  1  0  0  0
 13  8  1  0  0  0
 19 14  1  0  0  0
 25 20  1  0  0  0
 35 30  1  0  0  0
 26 29  1  0  0  0
M  END
> <minimizedAffinity>
-8.63170

> <CNNscore>
0.2050972134

> <CNNaffinity>
6.0152487755

> <CNN_VS>
1.2337107658

> <CNNaffinity_variance>
0.0363639221

$$$$
[H]c1nc(N([H])[H])c(-c2c([H])c([H])c(C(=O)N([H])[C@@]([H])(C([H])([H])C([H])(C([H])([H])[H])C([H])([H])[H])C(C([H])([H])[H])(C([H])([H])[H])C([H])([H])[H])c([H])c2[H])nc1-c1c([H])c([H])nc(N2C([H])([H])C([H])([H])OC([H])([H])C2([H])[H])c1[H]


 40 43  0  0  0  0  0  0  0  0999 V2000
  153.6179  139.1273  183.4269 C   0  0  0  0  0  0  0  0  0  0  0  0
  152.5983  138.7334  182.6455 N   0  0  0  0  0  0  0  0  0  0  0  0
  152.2628  139.3700  181.4838 C   0  0  0  0  0  0  0  0  0  0  0  0
  153.0390  140.4538  181.1513 C   0  0  0  0  0  0  0  0  0  0  0  0
  154.0752  140.8498  181.9502 N   0  0  0  0  0  0  0  0  0  0  0  0
  154.3835  140.2179  183.0740 C   0  0  0  0  0  0  0  0  0  0  0  0
  155.4794  140.6559  183.8837 N   0  0  0  0  0  0  0  0  0  0  0  0
  155.7276  141.6839  183.8938 H   0  0  0  0  0  0  0  0  0  0  0  0
  156.0555  140.0398  184.4657 H   0  0  0  0  0  0  0  0  0  0  0  0
  154.3654  136.8116  186.9536 C   0  0  0  0  0  0  0  0  0  0  0  0
  154.4155  136.2833  185.6758 C   0  0  0  0  0  0  0  0  0  0  0  0
  154.1830  137.0259  184.5589 C   0  0  0  0  0  0  0  0  0  0  0  0
  153.8851  138.3504  184.6558 C   0  0  0  0  0  0  0  0  0  0  0  0
  153.8221  138.9311  185.9164 C   0  0  0  0  0  0  0  0  0  0  0  0
  154.0597  138.1685  187.0460 C   0  0  0  0  0  0  0  0  0  0  0  0
  155.7000  136.2898  189.0020 N   0  0  0  0  0  0  0  0  0  0  0  0
  154.6334  136.0050  188.1275 C   0  0  0  0  0  0  0  0  0  0  0  0
  153.8894  135.0286  188.3659 O   0  0  0  0  0  0  0  0  0  0  0  0
  156.2946  137.1413  188.7605 H   0  0  0  0  0  0  0  0  0  0  0  0
  156.0199  135.5365  190.1714 C   0  0  0  0  0  0  0  0  0  0  0  0
  155.7756  136.3436  191.4470 C   0  0  0  0  0  0  0  0  0  0  0  0
  156.8231  135.9739  192.4534 C   0  0  0  0  0  0  0  0  0  0  0  0
  154.4035  136.1731  192.0047 C   0  0  0  0  0  0  0  0  0  0  0  0
  155.9695  137.8080  191.0900 C   0  0  0  0  0  0  0  0  0  0  0  0
  157.3444  134.8674  190.2095 C   0  0  0  0  0  0  0  0  0  0  0  0
  158.1168  132.6985  191.2412 C   0  0  0  0  0  0  0  0  0  0  0  0
  157.3577  133.3770  190.1570 C   0  0  0  0  0  0  0  0  0  0  0  0
  155.9411  132.8188  190.1199 C   0  0  0  0  0  0  0  0  0  0  0  0
  151.1387  138.9240  180.6812 C   0  0  0  0  0  0  0  0  0  0  0  0
  150.8849  139.6029  179.4896 C   0  0  0  0  0  0  0  0  0  0  0  0
  149.8237  139.1841  178.6900 C   0  0  0  0  0  0  0  0  0  0  0  0
  149.0631  138.1433  179.0693 N   0  0  0  0  0  0  0  0  0  0  0  0
  149.3086  137.4783  180.2336 C   0  0  0  0  0  0  0  0  0  0  0  0
  150.3593  137.8763  181.0458 C   0  0  0  0  0  0  0  0  0  0  0  0
  148.5011  136.3841  180.6050 N   0  0  0  0  0  0  0  0  0  0  0  0
  147.8818  136.3139  181.9199 C   0  0  0  0  0  0  0  0  0  0  0  0
  147.9798  134.8294  182.3056 C   0  0  0  0  0  0  0  0  0  0  0  0
  147.1967  134.0644  181.4810 O   0  0  0  0  0  0  0  0  0  0  0  0
  147.1013  134.4792  180.1786 C   0  0  0  0  0  0  0  0  0  0  0  0
  148.2748  135.3054  179.6895 C   0  0  0  0  0  0  0  0  0  0  0  0
 26 27  1  0  0  0
 27 28  1  0  0  0
 27 25  1  0  0  0
 25 20  1  0  0  0
 20 16  1  0  0  0
 16 17  1  0  0  0
 17 18  2  0  0  0
 17 10  1  0  0  0
 10 11  2  0  0  0
 11 12  1  0  0  0
 12 13  2  0  0  0
 13 14  1  0  0  0
 14 15  2  0  0  0
 13  1  1  0  0  0
  1  2  2  0  0  0
  2  3  1  0  0  0
  3  4  2  0  0  0
  4  5  1  0  0  0
  5  6  2  0  0  0
  6  7  1  0  0  0
  3 29  1  0  0  0
 29 30  2  0  0  0
 30 31  1  0  0  0
 31 32  2  0  0  0
 32 33  1  0  0  0
 33 34  2  0  0  0
 33 35  1  0  0  0
 35 36  1  0  0  0
 36 37  1  0  0  0
 37 38  1  0  0  0
 38 39  1  0  0  0
 39 40  1  0  0  0
 20 21  1  0  0  0
 21 22  1  0  0  0
 21 23  1  0  0  0
 21 24  1  0  0  0
 15 10  1  0  0  0
  6  1  1  0  0  0
 34 29  1  0  0  0
 40 35  1  0  0  0
 16 19  1  0  0  0
  7  8  1  0  0  0
  7  9  1  0  0  0
M  END
> <minimizedAffinity>
-6.91686

> <CNNscore>
0.2617973387

> <CNNaffinity>
5.8983469009

> <CNN_VS>
1.5441715717

> <CNNaffinity_variance>
0.0704466179

$$$$
[H]c1nc(N([H])[H])c(-c2c([H])c([H])c(C(=O)N([H])[C@@]([H])(C([H])([H])C([H])(C([H])([H])[H])C([H])([H])[H])C(C([H])([H])[H])(C([H])([H])[H])C([H])([H])[H])c([H])c2[H])nc1-c1c([H])c([H])nc(N2C([H])([H])C([H])([H])OC([H])([H])C2([H])[H])c1[H]


 40 43  0  0  0  0  0  0  0  0999 V2000
  153.0071  138.8368  183.0963 C   0  0  0  0  0  0  0  0  0  0  0  0
  151.7839  138.5030  182.6517 N   0  0  0  0  0  0  0  0  0  0  0  0
  151.2038  139.0879  181.5614 C   0  0  0  0  0  0  0  0  0  0  0  0
  151.9527  140.0526  180.9322 C   0  0  0  0  0  0  0  0  0  0  0  0
  153.1968  140.3880  181.3890 N   0  0  0  0  0  0  0  0  0  0  0  0
  153.7409  139.8080  182.4495 C   0  0  0  0  0  0  0  0  0  0  0  0
  155.0488  140.1792  182.8969 N   0  0  0  0  0  0  0  0  0  0  0  0
  155.3793  141.1715  182.7403 H   0  0  0  0  0  0  0  0  0  0  0  0
  155.7047  139.5465  183.3657 H   0  0  0  0  0  0  0  0  0  0  0  0
  154.4832  136.7087  186.5096 C   0  0  0  0  0  0  0  0  0  0  0  0
  154.2807  136.1151  185.2763 C   0  0  0  0  0  0  0  0  0  0  0  0
  153.8173  136.7984  184.1939 C   0  0  0  0  0  0  0  0  0  0  0  0
  153.5276  138.1253  184.2828 C   0  0  0  0  0  0  0  0  0  0  0  0
  153.7133  138.7702  185.4994 C   0  0  0  0  0  0  0  0  0  0  0  0
  154.1846  138.0677  186.5940 C   0  0  0  0  0  0  0  0  0  0  0  0
  156.3239  136.0979  188.0869 N   0  0  0  0  0  0  0  0  0  0  0  0
  154.9938  135.9646  187.6437 C   0  0  0  0  0  0  0  0  0  0  0  0
  154.2233  135.1833  188.2433 O   0  0  0  0  0  0  0  0  0  0  0  0
  156.9343  136.7876  187.5495 H   0  0  0  0  0  0  0  0  0  0  0  0
  156.8900  135.3950  189.1927 C   0  0  0  0  0  0  0  0  0  0  0  0
  157.8610  134.3071  188.7327 C   0  0  0  0  0  0  0  0  0  0  0  0
  157.0807  133.2368  188.0309 C   0  0  0  0  0  0  0  0  0  0  0  0
  158.6861  133.7405  189.8376 C   0  0  0  0  0  0  0  0  0  0  0  0
  158.7936  134.9451  187.7164 C   0  0  0  0  0  0  0  0  0  0  0  0
  155.9538  134.8741  190.2202 C   0  0  0  0  0  0  0  0  0  0  0  0
  154.4603  135.3115  192.2059 C   0  0  0  0  0  0  0  0  0  0  0  0
  155.4989  135.8263  191.2741 C   0  0  0  0  0  0  0  0  0  0  0  0
  156.6777  136.3478  192.0852 C   0  0  0  0  0  0  0  0  0  0  0  0
  149.8701  138.7123  181.1290 C   0  0  0  0  0  0  0  0  0  0  0  0
  148.8544  139.6580  181.2691 C   0  0  0  0  0  0  0  0  0  0  0  0
  147.5683  139.3313  180.8448 C   0  0  0  0  0  0  0  0  0  0  0  0
  147.3204  138.1229  180.3118 N   0  0  0  0  0  0  0  0  0  0  0  0
  148.3110  137.1967  180.1741 C   0  0  0  0  0  0  0  0  0  0  0  0
  149.5990  137.4989  180.5887 C   0  0  0  0  0  0  0  0  0  0  0  0
  148.0269  135.9391  179.6040 N   0  0  0  0  0  0  0  0  0  0  0  0
  148.4638  134.7052  180.2396 C   0  0  0  0  0  0  0  0  0  0  0  0
  148.8760  133.8010  179.0672 C   0  0  0  0  0  0  0  0  0  0  0  0
  147.7840  133.4662  178.3095 O   0  0  0  0  0  0  0  0  0  0  0  0
  146.8116  134.4242  178.1906 C   0  0  0  0  0  0  0  0  0  0  0  0
  147.2997  135.8481  178.3728 C   0  0  0  0  0  0  0  0  0  0  0  0
 26 27  1  0  0  0
 27 28  1  0  0  0
 27 25  1  0  0  0
 25 20  1  0  0  0
 20 16  1  0  0  0
 16 17  1  0  0  0
 17 18  2  0  0  0
 17 10  1  0  0  0
 10 11  2  0  0  0
 11 12  1  0  0  0
 12 13  2  0  0  0
 13 14  1  0  0  0
 14 15  2  0  0  0
 13  1  1  0  0  0
  1  2  2  0  0  0
  2  3  1  0  0  0
  3  4  2  0  0  0
  4  5  1  0  0  0
  5  6  2  0  0  0
  6  7  1  0  0  0
  3 29  1  0  0  0
 29 30  2  0  0  0
 30 31  1  0  0  0
 31 32  2  0  0  0
 32 33  1  0  0  0
 33 34  2  0  0  0
 33 35  1  0  0  0
 35 36  1  0  0  0
 36 37  1  0  0  0
 37 38  1  0  0  0
 38 39  1  0  0  0
 39 40  1  0  0  0
 20 21  1  0  0  0
 21 22  1  0  0  0
 21 23  1  0  0  0
 21 24  1  0  0  0
 15 10  1  0  0  0
  6  1  1  0  0  0
 34 29  1  0  0  0
 40 35  1  0  0  0
 16 19  1  0  0  0
  7  8  1  0  0  0
  7  9  1  0  0  0
M  END
> <minimizedAffinity>
-6.57169

> <CNNscore>
0.2533289492

> <CNNaffinity>
5.7912788391

> <CNN_VS>
1.4670985937

> <CNNaffinity_variance>
0.0616747737

$$$$
[H]c1nc(N([H])[H])c(-c2c([H])c([H])c(C(=O)N([H])[C@@]([H])(C([H])([H])C([H])(C([H])([H])[H])C([H])([H])[H])C(C([H])([H])[H])(C([H])([H])[H])C([H])([H])[H])c([H])c2[H])nc1-c1c([H])c([H])nc(N2C([H])([H])C([H])([H])OC([H])([H])C2([H])[H])c1[H]


 40 43  0  0  0  0  0  0  0  0999 V2000
  153.7903  138.2980  185.0394 C   0  0  0  0  0  0  0  0  0  0  0  0
  152.8996  138.3728  184.0362 N   0  0  0  0  0  0  0  0  0  0  0  0
  153.1444  139.0475  182.8734 C   0  0  0  0  0  0  0  0  0  0  0  0
  154.3730  139.6556  182.7832 C   0  0  0  0  0  0  0  0  0  0  0  0
  155.2753  139.5760  183.8071 N   0  0  0  0  0  0  0  0  0  0  0  0
  155.0172  138.9162  184.9275 C   0  0  0  0  0  0  0  0  0  0  0  0
  155.9877  138.8477  185.9773 N   0  0  0  0  0  0  0  0  0  0  0  0
  156.6582  139.6554  186.1060 H   0  0  0  0  0  0  0  0  0  0  0  0
  156.0874  138.0616  186.6270 H   0  0  0  0  0  0  0  0  0  0  0  0
  152.6198  136.1161  188.5362 C   0  0  0  0  0  0  0  0  0  0  0  0
  151.7133  136.6449  187.6346 C   0  0  0  0  0  0  0  0  0  0  0  0
  152.0919  137.3320  186.5220 C   0  0  0  0  0  0  0  0  0  0  0  0
  153.4093  137.5311  186.2442 C   0  0  0  0  0  0  0  0  0  0  0  0
  154.3614  137.0204  187.1177 C   0  0  0  0  0  0  0  0  0  0  0  0
  153.9674  136.3237  188.2460 C   0  0  0  0  0  0  0  0  0  0  0  0
  152.6353  135.7024  191.0015 N   0  0  0  0  0  0  0  0  0  0  0  0
  152.1934  135.3734  189.7054 C   0  0  0  0  0  0  0  0  0  0  0  0
  151.4075  134.4130  189.5511 O   0  0  0  0  0  0  0  0  0  0  0  0
  153.2929  136.5382  191.0787 H   0  0  0  0  0  0  0  0  0  0  0  0
  152.2568  135.0126  192.1924 C   0  0  0  0  0  0  0  0  0  0  0  0
  151.6584  135.9635  193.2296 C   0  0  0  0  0  0  0  0  0  0  0  0
  150.1644  135.8601  193.1658 C   0  0  0  0  0  0  0  0  0  0  0  0
  152.1115  137.3752  193.0733 C   0  0  0  0  0  0  0  0  0  0  0  0
  152.1014  135.4663  194.5957 C   0  0  0  0  0  0  0  0  0  0  0  0
  153.2659  134.1164  192.8105 C   0  0  0  0  0  0  0  0  0  0  0  0
  151.8130  132.1248  192.2738 C   0  0  0  0  0  0  0  0  0  0  0  0
  153.1837  132.6647  192.4785 C   0  0  0  0  0  0  0  0  0  0  0  0
  154.0337  132.3340  191.2588 C   0  0  0  0  0  0  0  0  0  0  0  0
  152.1443  139.1217  181.8240 C   0  0  0  0  0  0  0  0  0  0  0  0
  152.3750  140.0079  180.7720 C   0  0  0  0  0  0  0  0  0  0  0  0
  151.4409  140.0860  179.7413 C   0  0  0  0  0  0  0  0  0  0  0  0
  150.3393  139.3171  179.7698 N   0  0  0  0  0  0  0  0  0  0  0  0
  150.1110  138.4505  180.7969 C   0  0  0  0  0  0  0  0  0  0  0  0
  151.0264  138.3548  181.8337 C   0  0  0  0  0  0  0  0  0  0  0  0
  148.9516  137.6486  180.7991 N   0  0  0  0  0  0  0  0  0  0  0  0
  147.8579  137.9040  181.7243 C   0  0  0  0  0  0  0  0  0  0  0  0
  147.3707  136.5040  182.1301 C   0  0  0  0  0  0  0  0  0  0  0  0
  146.8119  135.8585  181.0579 O   0  0  0  0  0  0  0  0  0  0  0  0
  147.3755  136.1134  179.8353 C   0  0  0  0  0  0  0  0  0  0  0  0
  148.8261  136.5518  179.8858 C   0  0  0  0  0  0  0  0  0  0  0  0
 26 27  1  0  0  0
 27 28  1  0  0  0
 27 25  1  0  0  0
 25 20  1  0  0  0
 20 16  1  0  0  0
 16 17  1  0  0  0
 17 18  2  0  0  0
 17 10  1  0  0  0
 10 11  2  0  0  0
 11 12  1  0  0  0
 12 13  2  0  0  0
 13 14  1  0  0  0
 14 15  2  0  0  0
 13  1  1  0  0  0
  1  2  2  0  0  0
  2  3  1  0  0  0
  3  4  2  0  0  0
  4  5  1  0  0  0
  5  6  2  0  0  0
  6  7  1  0  0  0
  3 29  1  0  0  0
 29 30  2  0  0  0
 30 31  1  0  0  0
 31 32  2  0  0  0
 32 33  1  0  0  0
 33 34  2  0  0  0
 33 35  1  0  0  0
 35 36  1  0  0  0
 36 37  1  0  0  0
 37 38  1  0  0  0
 38 39  1  0  0  0
 39 40  1  0  0  0
 20 21  1  0  0  0
 21 22  1  0  0  0
 21 23  1  0  0  0
 21 24  1  0  0  0
 15 10  1  0  0  0
  6  1  1  0  0  0
 34 29  1  0  0  0
 40 35  1  0  0  0
 16 19  1  0  0  0
  7  8  1  0  0  0
  7  9  1  0  0  0
M  END
> <minimizedAffinity>
-6.19060

> <CNNscore>
0.1918438822

> <CNNaffinity>
5.8557043076

> <CNN_VS>
1.1233810186

> <CNNaffinity_variance>
0.0213684049

$$$$
[H]c1nc(N([H])[H])c(-c2c([H])c([H])c(C(=O)N([H])[C@@]([H])(C([H])([H])C([H])(C([H])([H])[H])C([H])([H])[H])C(C([H])([H])[H])(C([H])([H])[H])C([H])([H])[H])c([H])c2[H])nc1-c1c([H])c([H])nc(N2C([H])([H])C([H])([H])OC([H])([H])C2([H])[H])c1[H]


 40 43  0  0  0  0  0  0  0  0999 V2000
  152.7078  137.9806  184.3728 C   0  0  0  0  0  0  0  0  0  0  0  0
  153.4628  139.0886  184.2859 N   0  0  0  0  0  0  0  0  0  0  0  0
  153.7142  139.7262  183.1037 C   0  0  0  0  0  0  0  0  0  0  0  0
  153.1421  139.1636  181.9885 C   0  0  0  0  0  0  0  0  0  0  0  0
  152.3747  138.0362  182.0831 N   0  0  0  0  0  0  0  0  0  0  0  0
  152.1438  137.4329  183.2406 C   0  0  0  0  0  0  0  0  0  0  0  0
  151.3300  136.2572  183.3042 N   0  0  0  0  0  0  0  0  0  0  0  0
  151.3141  135.6019  182.4742 H   0  0  0  0  0  0  0  0  0  0  0  0
  150.7486  135.9948  184.1062 H   0  0  0  0  0  0  0  0  0  0  0  0
  152.1805  136.2197  188.2432 C   0  0  0  0  0  0  0  0  0  0  0  0
  153.4190  136.3876  187.6498 C   0  0  0  0  0  0  0  0  0  0  0  0
  153.5803  136.9536  186.4222 C   0  0  0  0  0  0  0  0  0  0  0  0
  152.5040  137.3882  185.7116 C   0  0  0  0  0  0  0  0  0  0  0  0
  151.2365  137.2433  186.2621 C   0  0  0  0  0  0  0  0  0  0  0  0
  151.0822  136.6668  187.5102 C   0  0  0  0  0  0  0  0  0  0  0  0
  150.7850  135.5371  190.2017 N   0  0  0  0  0  0  0  0  0  0  0  0
  152.0346  135.6297  189.5589 C   0  0  0  0  0  0  0  0  0  0  0  0
  153.0540  135.1900  190.1344 O   0  0  0  0  0  0  0  0  0  0  0  0
  149.9466  135.9141  189.6615 H   0  0  0  0  0  0  0  0  0  0  0  0
  150.5723  134.9713  191.4948 C   0  0  0  0  0  0  0  0  0  0  0  0
  149.4086  133.9794  191.4924 C   0  0  0  0  0  0  0  0  0  0  0  0
  148.4539  134.3665  190.4036 C   0  0  0  0  0  0  0  0  0  0  0  0
  148.7160  133.8722  192.8082 C   0  0  0  0  0  0  0  0  0  0  0  0
  149.9863  132.6180  191.1423 C   0  0  0  0  0  0  0  0  0  0  0  0
  150.4706  135.9096  192.6405 C   0  0  0  0  0  0  0  0  0  0  0  0
  152.0404  137.7269  193.4138 C   0  0  0  0  0  0  0  0  0  0  0  0
  151.7370  136.2728  193.3395 C   0  0  0  0  0  0  0  0  0  0  0  0
  151.7731  135.6866  194.7447 C   0  0  0  0  0  0  0  0  0  0  0  0
  154.5546  140.9086  183.0526 C   0  0  0  0  0  0  0  0  0  0  0  0
  153.9750  142.0952  182.6038 C   0  0  0  0  0  0  0  0  0  0  0  0
  154.7533  143.2500  182.5624 C   0  0  0  0  0  0  0  0  0  0  0  0
  156.0394  143.2109  182.9495 N   0  0  0  0  0  0  0  0  0  0  0  0
  156.6085  142.0525  183.3880 C   0  0  0  0  0  0  0  0  0  0  0  0
  155.8540  140.8905  183.4386 C   0  0  0  0  0  0  0  0  0  0  0  0
  157.9577  142.0396  183.7966 N   0  0  0  0  0  0  0  0  0  0  0  0
  159.0171  142.5164  182.9205 C   0  0  0  0  0  0  0  0  0  0  0  0
  160.1826  141.5472  183.1738 C   0  0  0  0  0  0  0  0  0  0  0  0
  160.6594  141.6898  184.4509 O   0  0  0  0  0  0  0  0  0  0  0  0
  159.7327  141.9905  185.4142 C   0  0  0  0  0  0  0  0  0  0  0  0
  158.3187  141.5475  185.0929 C   0  0  0  0  0  0  0  0  0  0  0  0
 26 27  1  0  0  0
 27 28  1  0  0  0
 27 25  1  0  0  0
 25 20  1  0  0  0
 20 16  1  0  0  0
 16 17  1  0  0  0
 17 18  2  0  0  0
 17 10  1  0  0  0
 10 11  2  0  0  0
 11 12  1  0  0  0
 12 13  2  0  0  0
 13 14  1  0  0  0
 14 15  2  0  0  0
 13  1  1  0  0  0
  1  2  2  0  0  0
  2  3  1  0  0  0
  3  4  2  0  0  0
  4  5  1  0  0  0
  5  6  2  0  0  0
  6  7  1  0  0  0
  3 29  1  0  0  0
 29 30  2  0  0  0
 30 31  1  0  0  0
 31 32  2  0  0  0
 32 33  1  0  0  0
 33 34  2  0  0  0
 33 35  1  0  0  0
 35 36  1  0  0  0
 36 37  1  0  0  0
 37 38  1  0  0  0
 38 39  1  0  0  0
 39 40  1  0  0  0
 20 21  1  0  0  0
 21 22  1  0  0  0
 21 23  1  0  0  0
 21 24  1  0  0  0
 15 10  1  0  0  0
  6  1  1  0  0  0
 34 29  1  0  0  0
 40 35  1  0  0  0
 16 19  1  0  0  0
  7  8  1  0  0  0
  7  9  1  0  0  0
M  END
> <minimizedAffinity>
-7.66789

> <CNNscore>
0.1820833236

> <CNNaffinity>
6.2804818153

> <CNN_VS>
1.1435710192

> <CNNaffinity_variance>
0.0904381946

$$$$
[H]c1nc(N([H])[H])c(-c2c([H])c([H])c(C(=O)N([H])[C@@]([H])(C([H])([H])C([H])(C([H])([H])[H])C([H])([H])[H])C(C([H])([H])[H])(C([H])([H])[H])C([H])([H])[H])c([H])c2[H])nc1-c1c([H])c([H])nc(N2C([H])([H])C([H])([H])OC([H])([H])C2([H])[H])c1[H]


 40 43  0  0  0  0  0  0  0  0999 V2000
  154.4158  138.7464  184.9144 C   0  0  0  0  0  0  0  0  0  0  0  0
  153.3705  138.7295  184.0703 N   0  0  0  0  0  0  0  0  0  0  0  0
  153.3882  139.3489  182.8524 C   0  0  0  0  0  0  0  0  0  0  0  0
  154.5539  140.0010  182.5311 C   0  0  0  0  0  0  0  0  0  0  0  0
  155.6143  140.0148  183.3938 N   0  0  0  0  0  0  0  0  0  0  0  0
  155.5758  139.4074  184.5714 C   0  0  0  0  0  0  0  0  0  0  0  0
  156.7070  139.4365  185.4478 N   0  0  0  0  0  0  0  0  0  0  0  0
  157.3488  140.2768  185.4252 H   0  0  0  0  0  0  0  0  0  0  0  0
  156.9504  138.6919  186.1086 H   0  0  0  0  0  0  0  0  0  0  0  0
  153.9869  136.6111  188.6042 C   0  0  0  0  0  0  0  0  0  0  0  0
  154.3385  136.0017  187.4128 C   0  0  0  0  0  0  0  0  0  0  0  0
  154.4792  136.6869  186.2450 C   0  0  0  0  0  0  0  0  0  0  0  0
  154.2753  138.0319  186.2007 C   0  0  0  0  0  0  0  0  0  0  0  0
  153.9202  138.6932  187.3699 C   0  0  0  0  0  0  0  0  0  0  0  0
  153.7793  137.9886  188.5520 C   0  0  0  0  0  0  0  0  0  0  0  0
  152.9406  134.8056  189.9807 N   0  0  0  0  0  0  0  0  0  0  0  0
  153.8596  135.8633  189.8392 C   0  0  0  0  0  0  0  0  0  0  0  0
  154.5928  136.1715  190.8042 O   0  0  0  0  0  0  0  0  0  0  0  0
  152.3500  134.5749  189.1234 H   0  0  0  0  0  0  0  0  0  0  0  0
  152.7633  134.0316  191.1668 C   0  0  0  0  0  0  0  0  0  0  0  0
  153.1905  132.5779  190.9614 C   0  0  0  0  0  0  0  0  0  0  0  0
  154.4065  132.3153  191.7976 C   0  0  0  0  0  0  0  0  0  0  0  0
  153.4281  132.2242  189.5327 C   0  0  0  0  0  0  0  0  0  0  0  0
  152.0645  131.7052  191.4906 C   0  0  0  0  0  0  0  0  0  0  0  0
  151.4424  134.1091  191.8395 C   0  0  0  0  0  0  0  0  0  0  0  0
  152.6784  135.3464  193.6579 C   0  0  0  0  0  0  0  0  0  0  0  0
  151.3808  134.8356  193.1406 C   0  0  0  0  0  0  0  0  0  0  0  0
  150.3850  135.9862  193.0775 C   0  0  0  0  0  0  0  0  0  0  0  0
  152.2276  139.3243  181.9810 C   0  0  0  0  0  0  0  0  0  0  0  0
  152.2858  140.0716  180.8048 C   0  0  0  0  0  0  0  0  0  0  0  0
  151.1934  140.0513  179.9404 C   0  0  0  0  0  0  0  0  0  0  0  0
  150.1065  139.3219  180.2441 N   0  0  0  0  0  0  0  0  0  0  0  0
  150.0467  138.5910  181.3931 C   0  0  0  0  0  0  0  0  0  0  0  0
  151.1216  138.5950  182.2688 C   0  0  0  0  0  0  0  0  0  0  0  0
  148.8982  137.8273  181.6846 N   0  0  0  0  0  0  0  0  0  0  0  0
  147.9354  138.2622  182.6852 C   0  0  0  0  0  0  0  0  0  0  0  0
  147.5068  136.9640  183.3874 C   0  0  0  0  0  0  0  0  0  0  0  0
  146.8124  136.1561  182.5250 O   0  0  0  0  0  0  0  0  0  0  0  0
  147.2103  136.1842  181.2142 C   0  0  0  0  0  0  0  0  0  0  0  0
  148.6547  136.5926  180.9995 C   0  0  0  0  0  0  0  0  0  0  0  0
 26 27  1  0  0  0
 27 28  1  0  0  0
 27 25  1  0  0  0
 25 20  1  0  0  0
 20 16  1  0  0  0
 16 17  1  0  0  0
 17 18  2  0  0  0
 17 10  1  0  0  0
 10 11  2  0  0  0
 11 12  1  0  0  0
 12 13  2  0  0  0
 13 14  1  0  0  0
 14 15  2  0  0  0
 13  1  1  0  0  0
  1  2  2  0  0  0
  2  3  1  0  0  0
  3  4  2  0  0  0
  4  5  1  0  0  0
  5  6  2  0  0  0
  6  7  1  0  0  0
  3 29  1  0  0  0
 29 30  2  0  0  0
 30 31  1  0  0  0
 31 32  2  0  0  0
 32 33  1  0  0  0
 33 34  2  0  0  0
 33 35  1  0  0  0
 35 36  1  0  0  0
 36 37  1  0  0  0
 37 38  1  0  0  0
 38 39  1  0  0  0
 39 40  1  0  0  0
 20 21  1  0  0  0
 21 22  1  0  0  0
 21 23  1  0  0  0
 21 24  1  0  0  0
 15 10  1  0  0  0
  6  1  1  0  0  0
 34 29  1  0  0  0
 40 35  1  0  0  0
 16 19  1  0  0  0
  7  8  1  0  0  0
  7  9  1  0  0  0
M  END
> <minimizedAffinity>
-5.98833

> <CNNscore>
0.1653250456

> <CNNaffinity>
5.8901543617

> <CNN_VS>
0.9737900496

> <CNNaffinity_variance>
0.0257888250

$$$$
[H]c1nc(N([H])[H])c(-c2c([H])c([H])c(C(=O)N([H])[C@@]([H])(C([H])([H])C([H])(C([H])([H])[H])C([H])([H])[H])C(C([H])([H])[H])(C([H])([H])[H])C([H])([H])[H])c([H])c2[H])nc1-c1c([H])c([H])nc(N2C([H])([H])C([H])([H])OC([H])([H])C2([H])[H])c1[H]


 40 43  0  0  0  0  0  0  0  0999 V2000
  154.4111  138.6211  185.2967 C   0  0  0  0  0  0  0  0  0  0  0  0
  155.3935  139.4727  184.9577 N   0  0  0  0  0  0  0  0  0  0  0  0
  155.4428  140.1076  183.7486 C   0  0  0  0  0  0  0  0  0  0  0  0
  154.4145  139.8239  182.8829 C   0  0  0  0  0  0  0  0  0  0  0  0
  153.4175  138.9567  183.2334 N   0  0  0  0  0  0  0  0  0  0  0  0
  153.3891  138.3508  184.4121 C   0  0  0  0  0  0  0  0  0  0  0  0
  152.3264  137.4531  184.7488 N   0  0  0  0  0  0  0  0  0  0  0  0
  151.8617  136.8998  183.9765 H   0  0  0  0  0  0  0  0  0  0  0  0
  151.9716  137.3015  185.6982 H   0  0  0  0  0  0  0  0  0  0  0  0
  154.5619  136.8999  189.2176 C   0  0  0  0  0  0  0  0  0  0  0  0
  153.8331  138.0370  188.9170 C   0  0  0  0  0  0  0  0  0  0  0  0
  153.7844  138.5754  187.6676 C   0  0  0  0  0  0  0  0  0  0  0  0
  154.4666  138.0031  186.6383 C   0  0  0  0  0  0  0  0  0  0  0  0
  155.2145  136.8587  186.8862 C   0  0  0  0  0  0  0  0  0  0  0  0
  155.2583  136.3187  188.1591 C   0  0  0  0  0  0  0  0  0  0  0  0
  153.6557  135.3618  190.9675 N   0  0  0  0  0  0  0  0  0  0  0  0
  154.5851  136.3350  190.5521 C   0  0  0  0  0  0  0  0  0  0  0  0
  155.4613  136.7273  191.3533 O   0  0  0  0  0  0  0  0  0  0  0  0
  152.9390  135.0523  190.2412 H   0  0  0  0  0  0  0  0  0  0  0  0
  153.6214  134.7673  192.2647 C   0  0  0  0  0  0  0  0  0  0  0  0
  153.1477  133.3146  192.2075 C   0  0  0  0  0  0  0  0  0  0  0  0
  152.0983  133.1965  191.1438 C   0  0  0  0  0  0  0  0  0  0  0  0
  152.6541  132.7982  193.5160 C   0  0  0  0  0  0  0  0  0  0  0  0
  154.3403  132.4753  191.7799 C   0  0  0  0  0  0  0  0  0  0  0  0
  152.9198  135.5148  193.3383 C   0  0  0  0  0  0  0  0  0  0  0  0
  150.4485  136.0215  193.3708 C   0  0  0  0  0  0  0  0  0  0  0  0
  151.8100  136.4214  192.9252 C   0  0  0  0  0  0  0  0  0  0  0  0
  152.0776  137.8522  193.3733 C   0  0  0  0  0  0  0  0  0  0  0  0
  156.5355  141.0030  183.4151 C   0  0  0  0  0  0  0  0  0  0  0  0
  156.5247  141.5943  182.1520 C   0  0  0  0  0  0  0  0  0  0  0  0
  157.5511  142.4729  181.8120 C   0  0  0  0  0  0  0  0  0  0  0  0
  158.5306  142.7389  182.6926 N   0  0  0  0  0  0  0  0  0  0  0  0
  158.5439  142.1620  183.9276 C   0  0  0  0  0  0  0  0  0  0  0  0
  157.5330  141.2847  184.2889 C   0  0  0  0  0  0  0  0  0  0  0  0
  159.5783  142.4641  184.8364 N   0  0  0  0  0  0  0  0  0  0  0  0
  160.7414  143.2371  184.4279 C   0  0  0  0  0  0  0  0  0  0  0  0
  161.9143  142.5771  185.1700 C   0  0  0  0  0  0  0  0  0  0  0  0
  161.7956  142.7646  186.5226 O   0  0  0  0  0  0  0  0  0  0  0  0
  160.5207  142.7717  187.0244 C   0  0  0  0  0  0  0  0  0  0  0  0
  159.5086  142.0079  186.1929 C   0  0  0  0  0  0  0  0  0  0  0  0
 26 27  1  0  0  0
 27 28  1  0  0  0
 27 25  1  0  0  0
 25 20  1  0  0  0
 20 16  1  0  0  0
 16 17  1  0  0  0
 17 18  2  0  0  0
 17 10  1  0  0  0
 10 11  2  0  0  0
 11 12  1  0  0  0
 12 13  2  0  0  0
 13 14  1  0  0  0
 14 15  2  0  0  0
 13  1  1  0  0  0
  1  2  2  0  0  0
  2  3  1  0  0  0
  3  4  2  0  0  0
  4  5  1  0  0  0
  5  6  2  0  0  0
  6  7  1  0  0  0
  3 29  1  0  0  0
 29 30  2  0  0  0
 30 31  1  0  0  0
 31 32  2  0  0  0
 32 33  1  0  0  0
 33 34  2  0  0  0
 33 35  1  0  0  0
 35 36  1  0  0  0
 36 37  1  0  0  0
 37 38  1  0  0  0
 38 39  1  0  0  0
 39 40  1  0  0  0
 20 21  1  0  0  0
 21 22  1  0  0  0
 21 23  1  0  0  0
 21 24  1  0  0  0
 15 10  1  0  0  0
  6  1  1  0  0  0
 34 29  1  0  0  0
 40 35  1  0  0  0
 16 19  1  0  0  0
  7  8  1  0  0  0
  7  9  1  0  0  0
M  END
> <minimizedAffinity>
-8.74169

> <CNNscore>
0.1569528133

> <CNNaffinity>
6.3989586830

> <CNN_VS>
1.0043345690

> <CNNaffinity_variance>
0.0550975315

$$$$
[H]c1nc(N([H])[H])c(-c2c([H])c([H])c(C(=O)N([H])[C@@]([H])(C([H])([H])C([H])(C([H])([H])[H])C([H])([H])[H])C(C([H])([H])[H])(C([H])([H])[H])C([H])([H])[H])c([H])c2[H])nc1-c1c([H])c([H])nc(N2C([H])([H])C([H])([H])OC([H])([H])C2([H])[H])c1[H]


 40 43  0  0  0  0  0  0  0  0999 V2000
  154.1022  136.7098  189.9315 C   0  0  0  0  0  0  0  0  0  0  0  0
  152.9204  136.3319  190.4470 N   0  0  0  0  0  0  0  0  0  0  0  0
  152.7821  135.8599  191.7219 C   0  0  0  0  0  0  0  0  0  0  0  0
  153.9375  135.7922  192.4621 C   0  0  0  0  0  0  0  0  0  0  0  0
  155.1371  136.1783  191.9323 N   0  0  0  0  0  0  0  0  0  0  0  0
  155.2491  136.6331  190.6923 C   0  0  0  0  0  0  0  0  0  0  0  0
  156.5203  137.0348  190.1715 N   0  0  0  0  0  0  0  0  0  0  0  0
  157.3926  136.5537  190.5268 H   0  0  0  0  0  0  0  0  0  0  0  0
  156.6556  137.7675  189.4678 H   0  0  0  0  0  0  0  0  0  0  0  0
  154.2181  138.1212  185.8876 C   0  0  0  0  0  0  0  0  0  0  0  0
  154.7262  136.8945  186.2766 C   0  0  0  0  0  0  0  0  0  0  0  0
  154.6807  136.4492  187.5622 C   0  0  0  0  0  0  0  0  0  0  0  0
  154.1196  137.2106  188.5409 C   0  0  0  0  0  0  0  0  0  0  0  0
  153.5941  138.4518  188.2037 C   0  0  0  0  0  0  0  0  0  0  0  0
  153.6449  138.8962  186.8946 C   0  0  0  0  0  0  0  0  0  0  0  0
  154.1912  139.9300  184.1623 N   0  0  0  0  0  0  0  0  0  0  0  0
  154.2626  138.5670  184.5092 C   0  0  0  0  0  0  0  0  0  0  0  0
  154.3694  137.7092  183.6056 O   0  0  0  0  0  0  0  0  0  0  0  0
  154.1151  140.6202  184.9715 H   0  0  0  0  0  0  0  0  0  0  0  0
  154.2272  140.4355  182.8280 C   0  0  0  0  0  0  0  0  0  0  0  0
  155.0460  141.7235  182.7342 C   0  0  0  0  0  0  0  0  0  0  0  0
  154.1044  142.8749  182.5484 C   0  0  0  0  0  0  0  0  0  0  0  0
  156.0826  141.6924  181.6632 C   0  0  0  0  0  0  0  0  0  0  0  0
  155.7439  141.9044  184.0720 C   0  0  0  0  0  0  0  0  0  0  0  0
  152.9315  140.5746  182.1171 C   0  0  0  0  0  0  0  0  0  0  0  0
  151.3413  138.6215  181.9702 C   0  0  0  0  0  0  0  0  0  0  0  0
  152.4471  139.3945  181.3444 C   0  0  0  0  0  0  0  0  0  0  0  0
  152.0347  139.7964  179.9344 C   0  0  0  0  0  0  0  0  0  0  0  0
  151.4889  135.4412  192.2310 C   0  0  0  0  0  0  0  0  0  0  0  0
  151.1800  135.7602  193.5531 C   0  0  0  0  0  0  0  0  0  0  0  0
  149.9381  135.3873  194.0624 C   0  0  0  0  0  0  0  0  0  0  0  0
  149.0599  134.7310  193.2854 N   0  0  0  0  0  0  0  0  0  0  0  0
  149.3592  134.4176  191.9930 C   0  0  0  0  0  0  0  0  0  0  0  0
  150.5887  134.7786  191.4637 C   0  0  0  0  0  0  0  0  0  0  0  0
  148.4173  133.7360  191.1959 N   0  0  0  0  0  0  0  0  0  0  0  0
  147.6309  132.6346  191.7304 C   0  0  0  0  0  0  0  0  0  0  0  0
  147.5471  131.6310  190.5695 C   0  0  0  0  0  0  0  0  0  0  0  0
  146.8116  132.1498  189.5359 O   0  0  0  0  0  0  0  0  0  0  0  0
  146.9208  133.5002  189.3318 C   0  0  0  0  0  0  0  0  0  0  0  0
  148.2157  134.1131  189.8283 C   0  0  0  0  0  0  0  0  0  0  0  0
 26 27  1  0  0  0
 27 28  1  0  0  0
 27 25  1  0  0  0
 25 20  1  0  0  0
 20 16  1  0  0  0
 16 17  1  0  0  0
 17 18  2  0  0  0
 17 10  1  0  0  0
 10 11  2  0  0  0
 11 12  1  0  0  0
 12 13  2  0  0  0
 13 14  1  0  0  0
 14 15  2  0  0  0
 13  1  1  0  0  0
  1  2  2  0  0  0
  2  3  1  0  0  0
  3  4  2  0  0  0
  4  5  1  0  0  0
  5  6  2  0  0  0
  6  7  1  0  0  0
  3 29  1  0  0  0
 29 30  2  0  0  0
 30 31  1  0  0  0
 31 32  2  0  0  0
 32 33  1  0  0  0
 33 34  2  0  0  0
 33 35  1  0  0  0
 35 36  1  0  0  0
 36 37  1  0  0  0
 37 38  1  0  0  0
 38 39  1  0  0  0
 39 40  1  0  0  0
 20 21  1  0  0  0
 21 22  1  0  0  0
 21 23  1  0  0  0
 21 24  1  0  0  0
 15 10  1  0  0  0
  6  1  1  0  0  0
 34 29  1  0  0  0
 40 35  1  0  0  0
 16 19  1  0  0  0
  7  8  1  0  0  0
  7  9  1  0  0  0
M  END
> <minimizedAffinity>
-7.53456

> <CNNscore>
0.1476680785

> <CNNaffinity>
5.8193674088

> <CNN_VS>
0.8593348265

> <CNNaffinity_variance>
0.1767290682

$$$$
[H]c1nc(N([H])[H])c(-c2c([H])c([H])c(C(=O)N([H])[C@@]([H])(C([H])([H])C([H])(C([H])([H])[H])C([H])([H])[H])C(C([H])([H])[H])(C([H])([H])[H])C([H])([H])[H])c([H])c2[H])nc1-c1c([H])c([H])nc(N2C([H])([H])C([H])([H])OC([H])([H])C2([H])[H])c1[H]


 40 43  0  0  0  0  0  0  0  0999 V2000
  154.2400  139.4516  183.9226 C   0  0  0  0  0  0  0  0  0  0  0  0
  155.2948  140.2837  183.9113 N   0  0  0  0  0  0  0  0  0  0  0  0
  155.5327  141.1690  182.8978 C   0  0  0  0  0  0  0  0  0  0  0  0
  154.6179  141.1630  181.8728 C   0  0  0  0  0  0  0  0  0  0  0  0
  153.5464  140.3141  181.8898 N   0  0  0  0  0  0  0  0  0  0  0  0
  153.3346  139.4623  182.8832 C   0  0  0  0  0  0  0  0  0  0  0  0
  152.1985  138.5918  182.8719 N   0  0  0  0  0  0  0  0  0  0  0  0
  151.8177  138.2617  181.9422 H   0  0  0  0  0  0  0  0  0  0  0  0
  151.7140  138.2568  183.7105 H   0  0  0  0  0  0  0  0  0  0  0  0
  153.7942  136.7644  187.2300 C   0  0  0  0  0  0  0  0  0  0  0  0
  154.3444  136.3885  186.0174 C   0  0  0  0  0  0  0  0  0  0  0  0
  154.4890  137.2488  184.9724 C   0  0  0  0  0  0  0  0  0  0  0  0
  154.0889  138.5453  185.0804 C   0  0  0  0  0  0  0  0  0  0  0  0
  153.5295  138.9748  186.2775 C   0  0  0  0  0  0  0  0  0  0  0  0
  153.3864  138.0934  187.3341 C   0  0  0  0  0  0  0  0  0  0  0  0
  153.5926  136.2696  189.6720 N   0  0  0  0  0  0  0  0  0  0  0  0
  153.6660  135.8348  188.3345 C   0  0  0  0  0  0  0  0  0  0  0  0
  153.6181  134.6105  188.0844 O   0  0  0  0  0  0  0  0  0  0  0  0
  153.6237  137.3239  189.8286 H   0  0  0  0  0  0  0  0  0  0  0  0
  153.4683  135.4093  190.8042 C   0  0  0  0  0  0  0  0  0  0  0  0
  152.6022  136.0364  191.8972 C   0  0  0  0  0  0  0  0  0  0  0  0
  152.7955  135.2588  193.1640 C   0  0  0  0  0  0  0  0  0  0  0  0
  151.1596  136.1292  191.5327 C   0  0  0  0  0  0  0  0  0  0  0  0
  153.1295  137.4427  192.1294 C   0  0  0  0  0  0  0  0  0  0  0  0
  154.7186  134.8461  191.3723 C   0  0  0  0  0  0  0  0  0  0  0  0
  156.6505  136.2630  192.1633 C   0  0  0  0  0  0  0  0  0  0  0  0
  155.9942  135.5435  191.0391 C   0  0  0  0  0  0  0  0  0  0  0  0
  156.9960  134.5815  190.4143 C   0  0  0  0  0  0  0  0  0  0  0  0
  156.6978  142.0345  182.9153 C   0  0  0  0  0  0  0  0  0  0  0  0
  156.7565  143.0594  181.9712 C   0  0  0  0  0  0  0  0  0  0  0  0
  157.8544  143.9171  181.9771 C   0  0  0  0  0  0  0  0  0  0  0  0
  158.8352  143.7509  182.8804 N   0  0  0  0  0  0  0  0  0  0  0  0
  158.7807  142.7498  183.8039 C   0  0  0  0  0  0  0  0  0  0  0  0
  157.6980  141.8840  183.8181 C   0  0  0  0  0  0  0  0  0  0  0  0
  159.8186  142.6018  184.7463 N   0  0  0  0  0  0  0  0  0  0  0  0
  159.5760  142.0020  186.0496 C   0  0  0  0  0  0  0  0  0  0  0  0
  160.4456  142.8254  187.0129 C   0  0  0  0  0  0  0  0  0  0  0  0
  161.7762  142.6270  186.7506 O   0  0  0  0  0  0  0  0  0  0  0  0
  162.1137  142.4390  185.4360 C   0  0  0  0  0  0  0  0  0  0  0  0
  161.1455  143.0474  184.4403 C   0  0  0  0  0  0  0  0  0  0  0  0
 26 27  1  0  0  0
 27 28  1  0  0  0
 27 25  1  0  0  0
 25 20  1  0  0  0
 20 16  1  0  0  0
 16 17  1  0  0  0
 17 18  2  0  0  0
 17 10  1  0  0  0
 10 11  2  0  0  0
 11 12  1  0  0  0
 12 13  2  0  0  0
 13 14  1  0  0  0
 14 15  2  0  0  0
 13  1  1  0  0  0
  1  2  2  0  0  0
  2  3  1  0  0  0
  3  4  2  0  0  0
  4  5  1  0  0  0
  5  6  2  0  0  0
  6  7  1  0  0  0
  3 29  1  0  0  0
 29 30  2  0  0  0
 30 31  1  0  0  0
 31 32  2  0  0  0
 32 33  1  0  0  0
 33 34  2  0  0  0
 33 35  1  0  0  0
 35 36  1  0  0  0
 36 37  1  0  0  0
 37 38  1  0  0  0
 38 39  1  0  0  0
 39 40  1  0  0  0
 20 21  1  0  0  0
 21 22  1  0  0  0
 21 23  1  0  0  0
 21 24  1  0  0  0
 15 10  1  0  0  0
  6  1  1  0  0  0
 34 29  1  0  0  0
 40 35  1  0  0  0
 16 19  1  0  0  0
  7  8  1  0  0  0
  7  9  1  0  0  0
M  END
> <minimizedAffinity>
-8.64528

> <CNNscore>
0.1427450925

> <CNNaffinity>
6.4389762878

> <CNN_VS>
0.9191322923

> <CNNaffinity_variance>
0.1459773481

$$$$
[H]c1nc(N([H])[H])c(-c2c([H])c([H])c(C(=O)N([H])[C@@]([H])(C([H])([H])C([H])(C([H])([H])[H])C([H])([H])[H])C(C([H])([H])[H])(C([H])([H])[H])C([H])([H])[H])c([H])c2[H])nc1-c1c([H])c([H])nc(N2C([H])([H])C([H])([H])OC([H])([H])C2([H])[H])c1[H]


 40 43  0  0  0  0  0  0  0  0999 V2000
  154.3175  137.3425  189.8097 C   0  0  0  0  0  0  0  0  0  0  0  0
  153.1236  136.8334  190.1568 N   0  0  0  0  0  0  0  0  0  0  0  0
  152.8457  136.3812  191.4160 C   0  0  0  0  0  0  0  0  0  0  0  0
  153.8714  136.4779  192.3249 C   0  0  0  0  0  0  0  0  0  0  0  0
  155.0841  136.9969  191.9661 N   0  0  0  0  0  0  0  0  0  0  0  0
  155.3327  137.4297  190.7380 C   0  0  0  0  0  0  0  0  0  0  0  0
  156.6124  137.9734  190.3981 N   0  0  0  0  0  0  0  0  0  0  0  0
  157.4697  137.6147  190.9027 H   0  0  0  0  0  0  0  0  0  0  0  0
  156.7670  138.6986  189.6908 H   0  0  0  0  0  0  0  0  0  0  0  0
  154.8962  138.6991  185.7868 C   0  0  0  0  0  0  0  0  0  0  0  0
  155.9013  138.1243  186.5444 C   0  0  0  0  0  0  0  0  0  0  0  0
  155.7093  137.6896  187.8201 C   0  0  0  0  0  0  0  0  0  0  0  0
  154.4914  137.8050  188.4166 C   0  0  0  0  0  0  0  0  0  0  0  0
  153.4470  138.3754  187.6994 C   0  0  0  0  0  0  0  0  0  0  0  0
  153.6514  138.8145  186.4036 C   0  0  0  0  0  0  0  0  0  0  0  0
  155.9899  140.2028  184.1159 N   0  0  0  0  0  0  0  0  0  0  0  0
  155.1199  139.1391  184.4241 C   0  0  0  0  0  0  0  0  0  0  0  0
  154.5197  138.5502  183.4985 O   0  0  0  0  0  0  0  0  0  0  0  0
  156.4870  140.6608  184.9406 H   0  0  0  0  0  0  0  0  0  0  0  0
  156.2529  140.6866  182.7991 C   0  0  0  0  0  0  0  0  0  0  0  0
  157.7533  140.7563  182.5126 C   0  0  0  0  0  0  0  0  0  0  0  0
  157.9566  141.4531  181.2011 C   0  0  0  0  0  0  0  0  0  0  0  0
  158.4243  139.4252  182.5293 C   0  0  0  0  0  0  0  0  0  0  0  0
  158.3732  141.6194  183.5990 C   0  0  0  0  0  0  0  0  0  0  0  0
  155.5724  141.9392  182.3850 C   0  0  0  0  0  0  0  0  0  0  0  0
  153.6178  143.4912  182.7539 C   0  0  0  0  0  0  0  0  0  0  0  0
  154.1417  142.0993  182.7748 C   0  0  0  0  0  0  0  0  0  0  0  0
  153.2405  141.2178  181.9203 C   0  0  0  0  0  0  0  0  0  0  0  0
  151.5484  135.8176  191.7418 C   0  0  0  0  0  0  0  0  0  0  0  0
  151.1274  135.8882  193.0696 C   0  0  0  0  0  0  0  0  0  0  0  0
  149.8783  135.3720  193.4074 C   0  0  0  0  0  0  0  0  0  0  0  0
  149.1000  134.8169  192.4630 N   0  0  0  0  0  0  0  0  0  0  0  0
  149.5091  134.7461  191.1647 C   0  0  0  0  0  0  0  0  0  0  0  0
  150.7480  135.2534  190.8042 C   0  0  0  0  0  0  0  0  0  0  0  0
  148.6704  134.1664  190.1912 N   0  0  0  0  0  0  0  0  0  0  0  0
  148.8878  134.3985  188.7713 C   0  0  0  0  0  0  0  0  0  0  0  0
  147.4718  134.5176  188.1860 C   0  0  0  0  0  0  0  0  0  0  0  0
  146.8118  133.3195  188.2733 O   0  0  0  0  0  0  0  0  0  0  0  0
  147.0882  132.5537  189.3753 C   0  0  0  0  0  0  0  0  0  0  0  0
  147.5728  133.3327  190.5825 C   0  0  0  0  0  0  0  0  0  0  0  0
 26 27  1  0  0  0
 27 28  1  0  0  0
 27 25  1  0  0  0
 25 20  1  0  0  0
 20 16  1  0  0  0
 16 17  1  0  0  0
 17 18  2  0  0  0
 17 10  1  0  0  0
 10 11  2  0  0  0
 11 12  1  0  0  0
 12 13  2  0  0  0
 13 14  1  0  0  0
 14 15  2  0  0  0
 13  1  1  0  0  0
  1  2  2  0  0  0
  2  3  1  0  0  0
  3  4  2  0  0  0
  4  5  1  0  0  0
  5  6  2  0  0  0
  6  7  1  0  0  0
  3 29  1  0  0  0
 29 30  2  0  0  0
 30 31  1  0  0  0
 31 32  2  0  0  0
 32 33  1  0  0  0
 33 34  2  0  0  0
 33 35  1  0  0  0
 35 36  1  0  0  0
 36 37  1  0  0  0
 37 38  1  0  0  0
 38 39  1  0  0  0
 39 40  1  0  0  0
 20 21  1  0  0  0
 21 22  1  0  0  0
 21 23  1  0  0  0
 21 24  1  0  0  0
 15 10  1  0  0  0
  6  1  1  0  0  0
 34 29  1  0  0  0
 40 35  1  0  0  0
 16 19  1  0  0  0
  7  8  1  0  0  0
  7  9  1  0  0  0
M  END
> <minimizedAffinity>
-8.27881

> <CNNscore>
0.1420180202

> <CNNaffinity>
6.0943107605

> <CNN_VS>
0.8655019403

> <CNNaffinity_variance>
0.0768680573

$$$$
[H]OC(=O)C([H])([H])N(C([H])([H])c1c([H])c([H])c([N+](=O)[O-])c([H])c1[H])S(=O)(=O)c1c([H])c([H])c(Cl)c([H])c1[H]


 26 27  0  0  0  0  0  0  0  0999 V2000
  157.1213  141.9279  182.7301 N   0  0  0  0  0  0  0  0  0  0  0  0
  158.3964  140.8521  183.1406 S   0  0  0  0  0  0  0  0  0  0  0  0
  159.0718  140.4632  181.8309 O   0  0  0  0  0  0  0  0  0  0  0  0
  157.7513  139.5623  183.6275 O   0  0  0  0  0  0  0  0  0  0  0  0
  159.5202  141.4843  184.2683 C   0  0  0  0  0  0  0  0  0  0  0  0
  160.8322  141.6881  183.9181 C   0  0  0  0  0  0  0  0  0  0  0  0
  161.7569  142.2054  184.8275 C   0  0  0  0  0  0  0  0  0  0  0  0
  161.3712  142.5235  186.1002 C   0  0  0  0  0  0  0  0  0  0  0  0
  162.5463  143.1818  187.2589 Cl  0  0  0  0  0  0  0  0  0  0  0  0
  160.0608  142.3242  186.4630 C   0  0  0  0  0  0  0  0  0  0  0  0
  159.1507  141.8092  185.5495 C   0  0  0  0  0  0  0  0  0  0  0  0
  157.6427  143.2783  182.6793 C   0  0  0  0  0  0  0  0  0  0  0  0
  157.8759  142.8631  180.2661 O   0  0  0  0  0  0  0  0  0  0  0  0
  158.2538  143.6002  181.3787 C   0  0  0  0  0  0  0  0  0  0  0  0
  159.0894  144.5008  181.2390 O   0  0  0  0  0  0  0  0  0  0  0  0
  158.3291  142.9404  179.3630 H   0  0  0  0  0  0  0  0  0  0  0  0
  156.0143  141.8757  183.6338 C   0  0  0  0  0  0  0  0  0  0  0  0
  154.8942  141.0482  183.1996 C   0  0  0  0  0  0  0  0  0  0  0  0
  154.1398  141.4362  182.1151 C   0  0  0  0  0  0  0  0  0  0  0  0
  153.0777  140.7249  181.6375 C   0  0  0  0  0  0  0  0  0  0  0  0
  152.7028  139.5371  182.2506 C   0  0  0  0  0  0  0  0  0  0  0  0
  153.4561  139.1341  183.3465 C   0  0  0  0  0  0  0  0  0  0  0  0
  154.5263  139.8702  183.8114 C   0  0  0  0  0  0  0  0  0  0  0  0
  151.6040  138.7716  181.7813 N   0  0  0  0  0  0  0  0  0  0  0  0
  150.3458  139.2942  181.7944 O   0  0  0  0  0  0  0  0  0  0  0  0
  151.7863  137.6259  181.3584 O   0  0  0  0  0  0  0  0  0  0  0  0
 13 14  1  0  0  0
 14 15  2  0  0  0
 14 12  1  0  0  0
 12  1  1  0  0  0
  1 17  1  0  0  0
 17 18  1  0  0  0
 18 19  2  0  0  0
 19 20  1  0  0  0
 20 21  2  0  0  0
 21 22  1  0  0  0
 22 23  2  0  0  0
 21 24  1  0  0  0
 24 25  1  0  0  0
 24 26  2  0  0  0
  1  2  1  0  0  0
  2  3  2  0  0  0
  2  4  2  0  0  0
  2  5  1  0  0  0
  5  6  2  0  0  0
  6  7  1  0  0  0
  7  8  2  0  0  0
  8  9  1  0  0  0
  8 10  1  0  0  0
 10 11  2  0  0  0
 23 18  1  0  0  0
 11  5  1  0  0  0
 13 16  1  0  0  0
M  CHG 1  24   1
M  CHG 1  25  -1
M  END
> <minimizedAffinity>
-8.47451

> <CNNscore>
0.5905472040

> <CNNaffinity>
6.1119651794

> <CNN_VS>
3.6094038486

> <CNNaffinity_variance>
0.0091472473

$$$$
[H]OC(=O)C([H])([H])N(C([H])([H])c1c([H])c([H])c([N+](=O)[O-])c([H])c1[H])S(=O)(=O)c1c([H])c([H])c(Cl)c([H])c1[H]


 26 27  0  0  0  0  0  0  0  0999 V2000
  156.8116  141.0851  182.6504 N   0  0  0  0  0  0  0  0  0  0  0  0
  158.0176  140.1446  183.4332 S   0  0  0  0  0  0  0  0  0  0  0  0
  158.7305  139.3591  182.3389 O   0  0  0  0  0  0  0  0  0  0  0  0
  157.2942  139.0815  184.2475 O   0  0  0  0  0  0  0  0  0  0  0  0
  159.1192  141.0526  184.3798 C   0  0  0  0  0  0  0  0  0  0  0  0
  158.7766  141.4902  185.6354 C   0  0  0  0  0  0  0  0  0  0  0  0
  159.6669  142.2288  186.4176 C   0  0  0  0  0  0  0  0  0  0  0  0
  160.9125  142.5353  185.9443 C   0  0  0  0  0  0  0  0  0  0  0  0
  162.0468  143.4749  186.9380 Cl  0  0  0  0  0  0  0  0  0  0  0  0
  161.2676  142.1030  184.6891 C   0  0  0  0  0  0  0  0  0  0  0  0
  160.3734  141.3693  183.9211 C   0  0  0  0  0  0  0  0  0  0  0  0
  157.3745  142.3717  182.2958 C   0  0  0  0  0  0  0  0  0  0  0  0
  157.5747  141.3326  180.0753 O   0  0  0  0  0  0  0  0  0  0  0  0
  157.8004  142.4342  180.8875 C   0  0  0  0  0  0  0  0  0  0  0  0
  158.3504  143.4286  180.4004 O   0  0  0  0  0  0  0  0  0  0  0  0
  157.9378  141.2478  179.1330 H   0  0  0  0  0  0  0  0  0  0  0  0
  155.6343  141.2783  183.4387 C   0  0  0  0  0  0  0  0  0  0  0  0
  154.4393  140.5991  182.9504 C   0  0  0  0  0  0  0  0  0  0  0  0
  153.6941  141.1698  181.9429 C   0  0  0  0  0  0  0  0  0  0  0  0
  152.5654  140.6061  181.4228 C   0  0  0  0  0  0  0  0  0  0  0  0
  152.1077  139.3888  181.9086 C   0  0  0  0  0  0  0  0  0  0  0  0
  152.8507  138.8020  182.9256 C   0  0  0  0  0  0  0  0  0  0  0  0
  153.9892  139.3912  183.4357 C   0  0  0  0  0  0  0  0  0  0  0  0
  150.9381  138.7734  181.3917 N   0  0  0  0  0  0  0  0  0  0  0  0
  150.7418  138.6903  180.0461 O   0  0  0  0  0  0  0  0  0  0  0  0
  150.0927  138.3101  182.1632 O   0  0  0  0  0  0  0  0  0  0  0  0
 13 14  1  0  0  0
 14 15  2  0  0  0
 14 12  1  0  0  0
 12  1  1  0  0  0
  1 17  1  0  0  0
 17 18  1  0  0  0
 18 19  2  0  0  0
 19 20  1  0  0  0
 20 21  2  0  0  0
 21 22  1  0  0  0
 22 23  2  0  0  0
 21 24  1  0  0  0
 24 25  1  0  0  0
 24 26  2  0  0  0
  1  2  1  0  0  0
  2  3  2  0  0  0
  2  4  2  0  0  0
  2  5  1  0  0  0
  5  6  2  0  0  0
  6  7  1  0  0  0
  7  8  2  0  0  0
  8  9  1  0  0  0
  8 10  1  0  0  0
 10 11  2  0  0  0
 23 18  1  0  0  0
 11  5  1  0  0  0
 13 16  1  0  0  0
M  CHG 1  24   1
M  CHG 1  25  -1
M  END
> <minimizedAffinity>
-8.39130

> <CNNscore>
0.5630722642

> <CNNaffinity>
5.9563560486

> <CNN_VS>
3.3538589478

> <CNNaffinity_variance>
0.0283326171

$$$$
[H]OC(=O)C([H])([H])N(C([H])([H])c1c([H])c([H])c([N+](=O)[O-])c([H])c1[H])S(=O)(=O)c1c([H])c([H])c(Cl)c([H])c1[H]


 26 27  0  0  0  0  0  0  0  0999 V2000
  155.2391  140.2717  183.4192 N   0  0  0  0  0  0  0  0  0  0  0  0
  155.1725  141.9303  182.9760 S   0  0  0  0  0  0  0  0  0  0  0  0
  155.0779  142.7211  184.2754 O   0  0  0  0  0  0  0  0  0  0  0  0
  153.8277  142.1569  182.3001 O   0  0  0  0  0  0  0  0  0  0  0  0
  156.4845  142.4575  182.0090 C   0  0  0  0  0  0  0  0  0  0  0  0
  157.1311  143.6381  182.2803 C   0  0  0  0  0  0  0  0  0  0  0  0
  158.2035  144.0771  181.5011 C   0  0  0  0  0  0  0  0  0  0  0  0
  158.6371  143.3322  180.4396 C   0  0  0  0  0  0  0  0  0  0  0  0
  160.0015  143.8889  179.4469 Cl  0  0  0  0  0  0  0  0  0  0  0  0
  157.9984  142.1485  180.1577 C   0  0  0  0  0  0  0  0  0  0  0  0
  156.9332  141.7228  180.9401 C   0  0  0  0  0  0  0  0  0  0  0  0
  153.8929  139.7945  183.6601 C   0  0  0  0  0  0  0  0  0  0  0  0
  153.1906  139.4647  181.3260 O   0  0  0  0  0  0  0  0  0  0  0  0
  153.4020  138.9182  182.5832 C   0  0  0  0  0  0  0  0  0  0  0  0
  153.1713  137.7157  182.7548 O   0  0  0  0  0  0  0  0  0  0  0  0
  152.7471  138.9635  180.5649 H   0  0  0  0  0  0  0  0  0  0  0  0
  156.0500  140.0181  184.5693 C   0  0  0  0  0  0  0  0  0  0  0  0
  157.4397  140.4474  184.4585 C   0  0  0  0  0  0  0  0  0  0  0  0
  157.9087  141.4560  185.2701 C   0  0  0  0  0  0  0  0  0  0  0  0
  159.1918  141.9197  185.2379 C   0  0  0  0  0  0  0  0  0  0  0  0
  160.1084  141.3710  184.3513 C   0  0  0  0  0  0  0  0  0  0  0  0
  159.6479  140.3521  183.5264 C   0  0  0  0  0  0  0  0  0  0  0  0
  158.3455  139.8997  183.5771 C   0  0  0  0  0  0  0  0  0  0  0  0
  161.4504  141.8282  184.2903 N   0  0  0  0  0  0  0  0  0  0  0  0
  161.8107  142.9884  184.9072 O   0  0  0  0  0  0  0  0  0  0  0  0
  162.2977  141.1733  183.6756 O   0  0  0  0  0  0  0  0  0  0  0  0
 13 14  1  0  0  0
 14 15  2  0  0  0
 14 12  1  0  0  0
 12  1  1  0  0  0
  1 17  1  0  0  0
 17 18  1  0  0  0
 18 19  2  0  0  0
 19 20  1  0  0  0
 20 21  2  0  0  0
 21 22  1  0  0  0
 22 23  2  0  0  0
 21 24  1  0  0  0
 24 25  1  0  0  0
 24 26  2  0  0  0
  1  2  1  0  0  0
  2  3  2  0  0  0
  2  4  2  0  0  0
  2  5  1  0  0  0
  5  6  2  0  0  0
  6  7  1  0  0  0
  7  8  2  0  0  0
  8  9  1  0  0  0
  8 10  1  0  0  0
 10 11  2  0  0  0
 23 18  1  0  0  0
 11  5  1  0  0  0
 13 16  1  0  0  0
M  CHG 1  24   1
M  CHG 1  25  -1
M  END
> <minimizedAffinity>
-7.40730

> <CNNscore>
0.5260186195

> <CNNaffinity>
6.0683212280

> <CNN_VS>
3.1920499802

> <CNNaffinity_variance>
0.0641880035

$$$$
[H]OC(=O)C([H])([H])N(C([H])([H])c1c([H])c([H])c([N+](=O)[O-])c([H])c1[H])S(=O)(=O)c1c([H])c([H])c(Cl)c([H])c1[H]


 26 27  0  0  0  0  0  0  0  0999 V2000
  151.9202  136.6828  185.6749 N   0  0  0  0  0  0  0  0  0  0  0  0
  153.1412  136.7336  184.4672 S   0  0  0  0  0  0  0  0  0  0  0  0
  152.6814  135.8058  183.3489 O   0  0  0  0  0  0  0  0  0  0  0  0
  154.3685  136.0441  185.0459 O   0  0  0  0  0  0  0  0  0  0  0  0
  153.4920  138.3046  183.8815 C   0  0  0  0  0  0  0  0  0  0  0  0
  152.8321  138.8144  182.7905 C   0  0  0  0  0  0  0  0  0  0  0  0
  153.1074  140.0945  182.3054 C   0  0  0  0  0  0  0  0  0  0  0  0
  154.0504  140.8760  182.9132 C   0  0  0  0  0  0  0  0  0  0  0  0
  154.4021  142.5052  182.2975 Cl  0  0  0  0  0  0  0  0  0  0  0  0
  154.7179  140.3773  184.0060 C   0  0  0  0  0  0  0  0  0  0  0  0
  154.4351  139.1028  184.4789 C   0  0  0  0  0  0  0  0  0  0  0  0
  150.6230  136.6448  185.0315 C   0  0  0  0  0  0  0  0  0  0  0  0
  148.3033  136.3609  185.7985 O   0  0  0  0  0  0  0  0  0  0  0  0
  149.6180  135.9196  185.8268 C   0  0  0  0  0  0  0  0  0  0  0  0
  149.8989  134.9337  186.5181 O   0  0  0  0  0  0  0  0  0  0  0  0
  147.5764  135.9944  186.4020 H   0  0  0  0  0  0  0  0  0  0  0  0
  151.9703  137.7829  186.5870 C   0  0  0  0  0  0  0  0  0  0  0  0
  152.7824  137.5670  187.7794 C   0  0  0  0  0  0  0  0  0  0  0  0
  153.7900  138.4533  188.0879 C   0  0  0  0  0  0  0  0  0  0  0  0
  154.5965  138.3325  189.1821 C   0  0  0  0  0  0  0  0  0  0  0  0
  154.4253  137.2704  190.0596 C   0  0  0  0  0  0  0  0  0  0  0  0
  153.4117  136.3686  189.7596 C   0  0  0  0  0  0  0  0  0  0  0  0
  152.6085  136.5115  188.6470 C   0  0  0  0  0  0  0  0  0  0  0  0
  155.2453  137.1133  191.2070 N   0  0  0  0  0  0  0  0  0  0  0  0
  156.2860  137.9637  191.4305 O   0  0  0  0  0  0  0  0  0  0  0  0
  155.0166  136.2021  192.0083 O   0  0  0  0  0  0  0  0  0  0  0  0
 13 14  1  0  0  0
 14 15  2  0  0  0
 14 12  1  0  0  0
 12  1  1  0  0  0
  1 17  1  0  0  0
 17 18  1  0  0  0
 18 19  2  0  0  0
 19 20  1  0  0  0
 20 21  2  0  0  0
 21 22  1  0  0  0
 22 23  2  0  0  0
 21 24  1  0  0  0
 24 25  1  0  0  0
 24 26  2  0  0  0
  1  2  1  0  0  0
  2  3  2  0  0  0
  2  4  2  0  0  0
  2  5  1  0  0  0
  5  6  2  0  0  0
  6  7  1  0  0  0
  7  8  2  0  0  0
  8  9  1  0  0  0
  8 10  1  0  0  0
 10 11  2  0  0  0
 23 18  1  0  0  0
 11  5  1  0  0  0
 13 16  1  0  0  0
M  CHG 1  24   1
M  CHG 1  25  -1
M  END
> <minimizedAffinity>
-5.52362

> <CNNscore>
0.5115395784

> <CNNaffinity>
4.9762635231

> <CNN_VS>
2.5455558300

> <CNNaffinity_variance>
0.1282292902

$$$$
[H]OC(=O)C([H])([H])N(C([H])([H])c1c([H])c([H])c([N+](=O)[O-])c([H])c1[H])S(=O)(=O)c1c([H])c([H])c(Cl)c([H])c1[H]


 26 27  0  0  0  0  0  0  0  0999 V2000
  154.0303  140.3416  182.9190 N   0  0  0  0  0  0  0  0  0  0  0  0
  155.2202  141.3899  183.5802 S   0  0  0  0  0  0  0  0  0  0  0  0
  155.8622  140.6376  184.7398 O   0  0  0  0  0  0  0  0  0  0  0  0
  154.4792  142.5415  184.2444 O   0  0  0  0  0  0  0  0  0  0  0  0
  156.3905  141.9322  182.4530 C   0  0  0  0  0  0  0  0  0  0  0  0
  156.5330  143.2687  182.1719 C   0  0  0  0  0  0  0  0  0  0  0  0
  157.4851  143.7231  181.2572 C   0  0  0  0  0  0  0  0  0  0  0  0
  158.3047  142.8370  180.6148 C   0  0  0  0  0  0  0  0  0  0  0  0
  159.5168  143.4132  179.4505 Cl  0  0  0  0  0  0  0  0  0  0  0  0
  158.1721  141.4966  180.8875 C   0  0  0  0  0  0  0  0  0  0  0  0
  157.2215  141.0572  181.7992 C   0  0  0  0  0  0  0  0  0  0  0  0
  154.5063  138.9763  183.0041 C   0  0  0  0  0  0  0  0  0  0  0  0
  153.6194  138.7422  185.2864 O   0  0  0  0  0  0  0  0  0  0  0  0
  153.7929  138.1910  184.0254 C   0  0  0  0  0  0  0  0  0  0  0  0
  153.3427  137.0610  183.8039 O   0  0  0  0  0  0  0  0  0  0  0  0
  153.2458  138.2280  186.0757 H   0  0  0  0  0  0  0  0  0  0  0  0
  153.6878  140.6458  181.5644 C   0  0  0  0  0  0  0  0  0  0  0  0
  152.4255  140.0816  181.0993 C   0  0  0  0  0  0  0  0  0  0  0  0
  151.5102  139.6118  182.0145 C   0  0  0  0  0  0  0  0  0  0  0  0
  150.3050  139.0713  181.6716 C   0  0  0  0  0  0  0  0  0  0  0  0
  149.9419  138.9704  180.3354 C   0  0  0  0  0  0  0  0  0  0  0  0
  150.8569  139.4410  179.4016 C   0  0  0  0  0  0  0  0  0  0  0  0
  152.0698  139.9839  179.7723 C   0  0  0  0  0  0  0  0  0  0  0  0
  148.6971  138.4140  179.9423 N   0  0  0  0  0  0  0  0  0  0  0  0
  147.5308  139.0380  180.2689 O   0  0  0  0  0  0  0  0  0  0  0  0
  148.6681  137.3593  179.3010 O   0  0  0  0  0  0  0  0  0  0  0  0
 13 14  1  0  0  0
 14 15  2  0  0  0
 14 12  1  0  0  0
 12  1  1  0  0  0
  1 17  1  0  0  0
 17 18  1  0  0  0
 18 19  2  0  0  0
 19 20  1  0  0  0
 20 21  2  0  0  0
 21 22  1  0  0  0
 22 23  2  0  0  0
 21 24  1  0  0  0
 24 25  1  0  0  0
 24 26  2  0  0  0
  1  2  1  0  0  0
  2  3  2  0  0  0
  2  4  2  0  0  0
  2  5  1  0  0  0
  5  6  2  0  0  0
  6  7  1  0  0  0
  7  8  2  0  0  0
  8  9  1  0  0  0
  8 10  1  0  0  0
 10 11  2  0  0  0
 23 18  1  0  0  0
 11  5  1  0  0  0
 13 16  1  0  0  0
M  CHG 1  24   1
M  CHG 1  25  -1
M  END
> <minimizedAffinity>
-5.93231

> <CNNscore>
0.5115184188

> <CNNaffinity>
5.4980239868

> <CNN_VS>
2.8123404980

> <CNNaffinity_variance>
0.0797518194

$$$$
[H]OC(=O)C([H])([H])N(C([H])([H])c1c([H])c([H])c([N+](=O)[O-])c([H])c1[H])S(=O)(=O)c1c([H])c([H])c(Cl)c([H])c1[H]


 26 27  0  0  0  0  0  0  0  0999 V2000
  152.8271  138.1952  183.4572 N   0  0  0  0  0  0  0  0  0  0  0  0
  154.0036  138.9618  184.4473 S   0  0  0  0  0  0  0  0  0  0  0  0
  155.0858  137.9226  184.7153 O   0  0  0  0  0  0  0  0  0  0  0  0
  153.3595  139.1920  185.8069 O   0  0  0  0  0  0  0  0  0  0  0  0
  154.6579  140.3995  183.7845 C   0  0  0  0  0  0  0  0  0  0  0  0
  153.8469  141.3361  183.1925 C   0  0  0  0  0  0  0  0  0  0  0  0
  154.3681  142.5131  182.6512 C   0  0  0  0  0  0  0  0  0  0  0  0
  155.7120  142.7604  182.6998 C   0  0  0  0  0  0  0  0  0  0  0  0
  156.3772  144.2574  182.0117 Cl  0  0  0  0  0  0  0  0  0  0  0  0
  156.5344  141.8308  183.2898 C   0  0  0  0  0  0  0  0  0  0  0  0
  156.0040  140.6643  183.8245 C   0  0  0  0  0  0  0  0  0  0  0  0
  152.7336  136.7993  183.8323 C   0  0  0  0  0  0  0  0  0  0  0  0
  150.4452  136.9917  184.7136 O   0  0  0  0  0  0  0  0  0  0  0  0
  151.7515  136.5662  184.9046 C   0  0  0  0  0  0  0  0  0  0  0  0
  152.0447  136.0065  185.9674 O   0  0  0  0  0  0  0  0  0  0  0  0
  149.7392  136.9758  185.4404 H   0  0  0  0  0  0  0  0  0  0  0  0
  153.1015  138.2977  182.0576 C   0  0  0  0  0  0  0  0  0  0  0  0
  151.9270  138.4003  181.1985 C   0  0  0  0  0  0  0  0  0  0  0  0
  150.9220  137.4649  181.3027 C   0  0  0  0  0  0  0  0  0  0  0  0
  149.7882  137.4832  180.5435 C   0  0  0  0  0  0  0  0  0  0  0  0
  149.5975  138.4843  179.6007 C   0  0  0  0  0  0  0  0  0  0  0  0
  150.6045  139.4348  179.4855 C   0  0  0  0  0  0  0  0  0  0  0  0
  151.7425  139.3957  180.2645 C   0  0  0  0  0  0  0  0  0  0  0  0
  148.4312  138.5347  178.7940 N   0  0  0  0  0  0  0  0  0  0  0  0
  147.1973  138.5752  179.3703 O   0  0  0  0  0  0  0  0  0  0  0  0
  148.5324  138.5418  177.5634 O   0  0  0  0  0  0  0  0  0  0  0  0
 13 14  1  0  0  0
 14 15  2  0  0  0
 14 12  1  0  0  0
 12  1  1  0  0  0
  1 17  1  0  0  0
 17 18  1  0  0  0
 18 19  2  0  0  0
 19 20  1  0  0  0
 20 21  2  0  0  0
 21 22  1  0  0  0
 22 23  2  0  0  0
 21 24  1  0  0  0
 24 25  1  0  0  0
 24 26  2  0  0  0
  1  2  1  0  0  0
  2  3  2  0  0  0
  2  4  2  0  0  0
  2  5  1  0  0  0
  5  6  2  0  0  0
  6  7  1  0  0  0
  7  8  2  0  0  0
  8  9  1  0  0  0
  8 10  1  0  0  0
 10 11  2  0  0  0
 23 18  1  0  0  0
 11  5  1  0  0  0
 13 16  1  0  0  0
M  CHG 1  24   1
M  CHG 1  25  -1
M  END
> <minimizedAffinity>
-5.60769

> <CNNscore>
0.4951576889

> <CNNaffinity>
5.1385774612

> <CNN_VS>
2.5444061756

> <CNNaffinity_variance>
0.0771223083

$$$$
[H]OC(=O)C([H])([H])N(C([H])([H])c1c([H])c([H])c([N+](=O)[O-])c([H])c1[H])S(=O)(=O)c1c([H])c([H])c(Cl)c([H])c1[H]


 26 27  0  0  0  0  0  0  0  0999 V2000
  156.9606  141.0722  181.9154 N   0  0  0  0  0  0  0  0  0  0  0  0
  158.5400  140.4844  182.2503 S   0  0  0  0  0  0  0  0  0  0  0  0
  159.3571  140.6945  180.9810 O   0  0  0  0  0  0  0  0  0  0  0  0
  158.4334  138.9719  182.3820 O   0  0  0  0  0  0  0  0  0  0  0  0
  159.2894  141.2056  183.6114 C   0  0  0  0  0  0  0  0  0  0  0  0
  158.6892  141.1748  184.8460 C   0  0  0  0  0  0  0  0  0  0  0  0
  159.2914  141.7567  185.9634 C   0  0  0  0  0  0  0  0  0  0  0  0
  160.5051  142.3763  185.8504 C   0  0  0  0  0  0  0  0  0  0  0  0
  161.2730  143.1173  187.2710 Cl  0  0  0  0  0  0  0  0  0  0  0  0
  161.1162  142.4139  184.6201 C   0  0  0  0  0  0  0  0  0  0  0  0
  160.5071  141.8316  183.5166 C   0  0  0  0  0  0  0  0  0  0  0  0
  157.0663  142.2848  181.1303 C   0  0  0  0  0  0  0  0  0  0  0  0
  155.6598  144.0371  182.1310 O   0  0  0  0  0  0  0  0  0  0  0  0
  156.9263  143.5019  181.9474 C   0  0  0  0  0  0  0  0  0  0  0  0
  157.8917  144.0651  182.4761 O   0  0  0  0  0  0  0  0  0  0  0  0
  155.4889  144.9303  182.5781 H   0  0  0  0  0  0  0  0  0  0  0  0
  156.1835  141.3272  183.0883 C   0  0  0  0  0  0  0  0  0  0  0  0
  155.2405  140.2753  183.4517 C   0  0  0  0  0  0  0  0  0  0  0  0
  154.0732  140.1289  182.7362 C   0  0  0  0  0  0  0  0  0  0  0  0
  153.1361  139.1733  183.0025 C   0  0  0  0  0  0  0  0  0  0  0  0
  153.3315  138.2779  184.0453 C   0  0  0  0  0  0  0  0  0  0  0  0
  154.5057  138.4149  184.7755 C   0  0  0  0  0  0  0  0  0  0  0  0
  155.4390  139.3892  184.4874 C   0  0  0  0  0  0  0  0  0  0  0  0
  152.3786  137.2717  184.3509 N   0  0  0  0  0  0  0  0  0  0  0  0
  152.6627  136.3138  185.2771 O   0  0  0  0  0  0  0  0  0  0  0  0
  151.2860  137.2621  183.7759 O   0  0  0  0  0  0  0  0  0  0  0  0
 13 14  1  0  0  0
 14 15  2  0  0  0
 14 12  1  0  0  0
 12  1  1  0  0  0
  1 17  1  0  0  0
 17 18  1  0  0  0
 18 19  2  0  0  0
 19 20  1  0  0  0
 20 21  2  0  0  0
 21 22  1  0  0  0
 22 23  2  0  0  0
 21 24  1  0  0  0
 24 25  1  0  0  0
 24 26  2  0  0  0
  1  2  1  0  0  0
  2  3  2  0  0  0
  2  4  2  0  0  0
  2  5  1  0  0  0
  5  6  2  0  0  0
  6  7  1  0  0  0
  7  8  2  0  0  0
  8  9  1  0  0  0
  8 10  1  0  0  0
 10 11  2  0  0  0
 23 18  1  0  0  0
 11  5  1  0  0  0
 13 16  1  0  0  0
M  CHG 1  24   1
M  CHG 1  25  -1
M  END
> <minimizedAffinity>
-7.40013

> <CNNscore>
0.3554549217

> <CNNaffinity>
5.8161911964

> <CNN_VS>
2.0673937798

> <CNNaffinity_variance>
0.0759021491

$$$$
[H]OC(=O)C([H])([H])N(C([H])([H])c1c([H])c([H])c([N+](=O)[O-])c([H])c1[H])S(=O)(=O)c1c([H])c([H])c(Cl)c([H])c1[H]


 26 27  0  0  0  0  0  0  0  0999 V2000
  155.3773  136.8875  187.7542 N   0  0  0  0  0  0  0  0  0  0  0  0
  155.5416  137.0028  189.4605 S   0  0  0  0  0  0  0  0  0  0  0  0
  156.1500  138.3711  189.7443 O   0  0  0  0  0  0  0  0  0  0  0  0
  156.6266  136.0174  189.8709 O   0  0  0  0  0  0  0  0  0  0  0  0
  154.0844  136.7663  190.3293 C   0  0  0  0  0  0  0  0  0  0  0  0
  154.0512  136.8848  191.6969 C   0  0  0  0  0  0  0  0  0  0  0  0
  152.8690  136.6970  192.4158 C   0  0  0  0  0  0  0  0  0  0  0  0
  151.7065  136.3876  191.7659 C   0  0  0  0  0  0  0  0  0  0  0  0
  150.2011  136.1483  192.6788 Cl  0  0  0  0  0  0  0  0  0  0  0  0
  151.7264  136.2663  190.3972 C   0  0  0  0  0  0  0  0  0  0  0  0
  152.9084  136.4555  189.6936 C   0  0  0  0  0  0  0  0  0  0  0  0
  155.9524  135.6347  187.3095 C   0  0  0  0  0  0  0  0  0  0  0  0
  154.0709  134.0627  187.5065 O   0  0  0  0  0  0  0  0  0  0  0  0
  154.9578  134.7450  186.6868 C   0  0  0  0  0  0  0  0  0  0  0  0
  154.8817  134.5822  185.4635 O   0  0  0  0  0  0  0  0  0  0  0  0
  153.4363  133.3471  187.1716 H   0  0  0  0  0  0  0  0  0  0  0  0
  155.9842  137.9712  187.0457 C   0  0  0  0  0  0  0  0  0  0  0  0
  155.2591  138.4271  185.8648 C   0  0  0  0  0  0  0  0  0  0  0  0
  155.8853  139.2499  184.9555 C   0  0  0  0  0  0  0  0  0  0  0  0
  155.2871  139.7221  183.8235 C   0  0  0  0  0  0  0  0  0  0  0  0
  153.9736  139.3776  183.5345 C   0  0  0  0  0  0  0  0  0  0  0  0
  153.3301  138.5476  184.4442 C   0  0  0  0  0  0  0  0  0  0  0  0
  153.9558  138.0824  185.5824 C   0  0  0  0  0  0  0  0  0  0  0  0
  153.3199  139.8500  182.3669 N   0  0  0  0  0  0  0  0  0  0  0  0
  152.0746  139.3999  182.0459 O   0  0  0  0  0  0  0  0  0  0  0  0
  153.8802  140.6730  181.6366 O   0  0  0  0  0  0  0  0  0  0  0  0
 13 14  1  0  0  0
 14 15  2  0  0  0
 14 12  1  0  0  0
 12  1  1  0  0  0
  1 17  1  0  0  0
 17 18  1  0  0  0
 18 19  2  0  0  0
 19 20  1  0  0  0
 20 21  2  0  0  0
 21 22  1  0  0  0
 22 23  2  0  0  0
 21 24  1  0  0  0
 24 25  1  0  0  0
 24 26  2  0  0  0
  1  2  1  0  0  0
  2  3  2  0  0  0
  2  4  2  0  0  0
  2  5  1  0  0  0
  5  6  2  0  0  0
  6  7  1  0  0  0
  7  8  2  0  0  0
  8  9  1  0  0  0
  8 10  1  0  0  0
 10 11  2  0  0  0
 23 18  1  0  0  0
 11  5  1  0  0  0
 13 16  1  0  0  0
M  CHG 1  24   1
M  CHG 1  25  -1
M  END
> <minimizedAffinity>
-5.52958

> <CNNscore>
0.3376854062

> <CNNaffinity>
4.9160490036

> <CNN_VS>
1.6600780487

> <CNNaffinity_variance>
0.1079758182

$$$$
[H]OC(=O)C([H])([H])N(C([H])([H])c1c([H])c([H])c([N+](=O)[O-])c([H])c1[H])S(=O)(=O)c1c([H])c([H])c(Cl)c([H])c1[H]


 26 27  0  0  0  0  0  0  0  0999 V2000
  153.4303  137.1336  184.7406 N   0  0  0  0  0  0  0  0  0  0  0  0
  154.2994  138.3844  185.5356 S   0  0  0  0  0  0  0  0  0  0  0  0
  155.3603  137.6985  186.3883 O   0  0  0  0  0  0  0  0  0  0  0  0
  153.3514  139.0108  186.5483 O   0  0  0  0  0  0  0  0  0  0  0  0
  154.9886  139.5466  184.4828 C   0  0  0  0  0  0  0  0  0  0  0  0
  154.2546  140.6185  184.0378 C   0  0  0  0  0  0  0  0  0  0  0  0
  154.8061  141.5738  183.1816 C   0  0  0  0  0  0  0  0  0  0  0  0
  156.1031  141.4609  182.7637 C   0  0  0  0  0  0  0  0  0  0  0  0
  156.8067  142.6754  181.6743 Cl  0  0  0  0  0  0  0  0  0  0  0  0
  156.8483  140.3927  183.2021 C   0  0  0  0  0  0  0  0  0  0  0  0
  156.2885  139.4494  184.0533 C   0  0  0  0  0  0  0  0  0  0  0  0
  153.9879  135.8539  185.1272 C   0  0  0  0  0  0  0  0  0  0  0  0
  151.8201  134.7375  185.4512 O   0  0  0  0  0  0  0  0  0  0  0  0
  153.0672  135.0649  185.9629 C   0  0  0  0  0  0  0  0  0  0  0  0
  153.3612  134.6827  187.1014 O   0  0  0  0  0  0  0  0  0  0  0  0
  151.0874  134.3010  185.9984 H   0  0  0  0  0  0  0  0  0  0  0  0
  153.4371  137.2479  183.3152 C   0  0  0  0  0  0  0  0  0  0  0  0
  152.1870  137.7087  182.7213 C   0  0  0  0  0  0  0  0  0  0  0  0
  152.2056  138.7344  181.8028 C   0  0  0  0  0  0  0  0  0  0  0  0
  151.0877  139.2276  181.1952 C   0  0  0  0  0  0  0  0  0  0  0  0
  149.8409  138.6936  181.4915 C   0  0  0  0  0  0  0  0  0  0  0  0
  149.8082  137.6578  182.4170 C   0  0  0  0  0  0  0  0  0  0  0  0
  150.9523  137.1754  183.0186 C   0  0  0  0  0  0  0  0  0  0  0  0
  148.6575  139.1816  180.8790 N   0  0  0  0  0  0  0  0  0  0  0  0
  148.2667  138.7079  179.6628 O   0  0  0  0  0  0  0  0  0  0  0  0
  147.9768  140.0397  181.4490 O   0  0  0  0  0  0  0  0  0  0  0  0
 13 14  1  0  0  0
 14 15  2  0  0  0
 14 12  1  0  0  0
 12  1  1  0  0  0
  1 17  1  0  0  0
 17 18  1  0  0  0
 18 19  2  0  0  0
 19 20  1  0  0  0
 20 21  2  0  0  0
 21 22  1  0  0  0
 22 23  2  0  0  0
 21 24  1  0  0  0
 24 25  1  0  0  0
 24 26  2  0  0  0
  1  2  1  0  0  0
  2  3  2  0  0  0
  2  4  2  0  0  0
  2  5  1  0  0  0
  5  6  2  0  0  0
  6  7  1  0  0  0
  7  8  2  0  0  0
  8  9  1  0  0  0
  8 10  1  0  0  0
 10 11  2  0  0  0
 23 18  1  0  0  0
 11  5  1  0  0  0
 13 16  1  0  0  0
M  CHG 1  24   1
M  CHG 1  25  -1
M  END
> <minimizedAffinity>
-4.84078

> <CNNscore>
0.3337898254

> <CNNaffinity>
5.0267395973

> <CNN_VS>
1.6778745651

> <CNNaffinity_variance>
0.1936841309

$$$$
[H]c1c([H])c(N(C([H])([H])C([H])([H])[H])C([H])([H])C([H])([H])C([H])([H])[H])c([H])c([H])c1-c1c([H])c2c(n1[H])C1(C(=O)N(C([H])([H])C([H])([H])C([H])([H])[H])C2=O)C([H])([H])C([H])([H])N(C([H])([H])[H])C([H])([H])C1([H])[H]


 33 36  0  0  0  0  0  0  0  0999 V2000
  154.6344  139.9775  182.8851 C   0  0  0  0  0  0  0  0  0  0  0  0
  155.3218  139.9188  184.0735 C   0  0  0  0  0  0  0  0  0  0  0  0
  156.5829  140.5041  183.9030 C   0  0  0  0  0  0  0  0  0  0  0  0
  156.6212  140.9091  182.6048 C   0  0  0  0  0  0  0  0  0  0  0  0
  155.4384  140.5790  182.0117 N   0  0  0  0  0  0  0  0  0  0  0  0
  157.7949  141.6850  182.1058 C   0  0  0  0  0  0  0  0  0  0  0  0
  158.1170  141.3236  180.6786 C   0  0  0  0  0  0  0  0  0  0  0  0
  157.9859  142.4567  179.7150 C   0  0  0  0  0  0  0  0  0  0  0  0
  158.6410  143.6671  180.0635 N   0  0  0  0  0  0  0  0  0  0  0  0
  159.9596  143.8140  179.5362 C   0  0  0  0  0  0  0  0  0  0  0  0
  158.4904  143.9632  181.4512 C   0  0  0  0  0  0  0  0  0  0  0  0
  157.4290  143.1698  182.1298 C   0  0  0  0  0  0  0  0  0  0  0  0
  158.9688  141.5038  182.9413 C   0  0  0  0  0  0  0  0  0  0  0  0
  160.1639  141.6889  182.4549 O   0  0  0  0  0  0  0  0  0  0  0  0
  158.9443  141.1209  184.3090 N   0  0  0  0  0  0  0  0  0  0  0  0
  157.7311  140.5967  184.8236 C   0  0  0  0  0  0  0  0  0  0  0  0
  157.6357  140.2298  186.0017 O   0  0  0  0  0  0  0  0  0  0  0  0
  155.2223  140.7797  181.0124 H   0  0  0  0  0  0  0  0  0  0  0  0
  150.7058  138.4603  182.0918 C   0  0  0  0  0  0  0  0  0  0  0  0
  151.5368  137.8467  182.9908 C   0  0  0  0  0  0  0  0  0  0  0  0
  152.7993  138.3439  183.2404 C   0  0  0  0  0  0  0  0  0  0  0  0
  153.2814  139.4861  182.5918 C   0  0  0  0  0  0  0  0  0  0  0  0
  152.4457  140.0921  181.6964 C   0  0  0  0  0  0  0  0  0  0  0  0
  151.1669  139.5843  181.4471 C   0  0  0  0  0  0  0  0  0  0  0  0
  149.3877  137.9088  181.8399 N   0  0  0  0  0  0  0  0  0  0  0  0
  149.1366  137.4131  180.5114 C   0  0  0  0  0  0  0  0  0  0  0  0
  148.2955  138.3976  179.7042 C   0  0  0  0  0  0  0  0  0  0  0  0
  148.4571  137.9077  182.9009 C   0  0  0  0  0  0  0  0  0  0  0  0
  147.2032  139.4127  184.5056 C   0  0  0  0  0  0  0  0  0  0  0  0
  147.8885  139.2522  183.2039 C   0  0  0  0  0  0  0  0  0  0  0  0
  160.1326  141.2834  185.1327 C   0  0  0  0  0  0  0  0  0  0  0  0
  160.0982  142.5522  185.9472 C   0  0  0  0  0  0  0  0  0  0  0  0
  161.4934  142.8081  186.4715 C   0  0  0  0  0  0  0  0  0  0  0  0
 29 30  1  0  0  0
 30 28  1  0  0  0
 28 25  1  0  0  0
 25 26  1  0  0  0
 26 27  1  0  0  0
 25 19  1  0  0  0
 19 20  2  0  0  0
 20 21  1  0  0  0
 21 22  2  0  0  0
 22 23  1  0  0  0
 23 24  2  0  0  0
 22  1  1  0  0  0
  1  2  2  0  0  0
  2  3  1  0  0  0
  3  4  2  0  0  0
  4  5  1  0  0  0
  4  6  1  0  0  0
  6  7  1  0  0  0
  7  8  1  0  0  0
  8  9  1  0  0  0
  9 10  1  0  0  0
  9 11  1  0  0  0
 11 12  1  0  0  0
  6 13  1  0  0  0
 13 14  2  0  0  0
 13 15  1  0  0  0
 15 31  1  0  0  0
 31 32  1  0  0  0
 32 33  1  0  0  0
 15 16  1  0  0  0
 16 17  2  0  0  0
 24 19  1  0  0  0
  5  1  1  0  0  0
 12  6  1  0  0  0
 16  3  1  0  0  0
  5 18  1  0  0  0
M  END
> <minimizedAffinity>
-8.32289

> <CNNscore>
0.4768098891

> <CNNaffinity>
6.8373818398

> <CNN_VS>
3.2601313591

> <CNNaffinity_variance>
0.0099746659

$$$$
[H]c1c([H])c(N(C([H])([H])C([H])([H])[H])C([H])([H])C([H])([H])C([H])([H])[H])c([H])c([H])c1-c1c([H])c2c(n1[H])C1(C(=O)N(C([H])([H])C([H])([H])C([H])([H])[H])C2=O)C([H])([H])C([H])([H])N(C([H])([H])[H])C([H])([H])C1([H])[H]


 33 36  0  0  0  0  0  0  0  0999 V2000
  155.5468  138.6324  185.7722 C   0  0  0  0  0  0  0  0  0  0  0  0
  156.0036  138.2688  187.0162 C   0  0  0  0  0  0  0  0  0  0  0  0
  154.9905  137.5767  187.6921 C   0  0  0  0  0  0  0  0  0  0  0  0
  153.9410  137.5363  186.8274 C   0  0  0  0  0  0  0  0  0  0  0  0
  154.2986  138.1805  185.6798 N   0  0  0  0  0  0  0  0  0  0  0  0
  152.7150  136.7641  187.1870 C   0  0  0  0  0  0  0  0  0  0  0  0
  151.4736  137.4475  186.6741 C   0  0  0  0  0  0  0  0  0  0  0  0
  150.7011  136.6479  185.6775 C   0  0  0  0  0  0  0  0  0  0  0  0
  150.3988  135.3073  186.0343 N   0  0  0  0  0  0  0  0  0  0  0  0
  149.1308  135.1208  186.6633 C   0  0  0  0  0  0  0  0  0  0  0  0
  151.5070  134.6721  186.6703 C   0  0  0  0  0  0  0  0  0  0  0  0
  152.7975  135.3964  186.5075 C   0  0  0  0  0  0  0  0  0  0  0  0
  152.6051  136.5425  188.6180 C   0  0  0  0  0  0  0  0  0  0  0  0
  151.4434  136.3264  189.1683 O   0  0  0  0  0  0  0  0  0  0  0  0
  153.6955  136.5412  189.5284 N   0  0  0  0  0  0  0  0  0  0  0  0
  154.9296  137.0753  189.0774 C   0  0  0  0  0  0  0  0  0  0  0  0
  155.9212  137.1200  189.8165 O   0  0  0  0  0  0  0  0  0  0  0  0
  153.6626  138.2903  184.8618 H   0  0  0  0  0  0  0  0  0  0  0  0
  157.7156  140.7776  182.7623 C   0  0  0  0  0  0  0  0  0  0  0  0
  158.3627  140.1464  183.7909 C   0  0  0  0  0  0  0  0  0  0  0  0
  157.6555  139.4569  184.7542 C   0  0  0  0  0  0  0  0  0  0  0  0
  156.2591  139.3736  184.7226 C   0  0  0  0  0  0  0  0  0  0  0  0
  155.6215  140.0063  183.6928 C   0  0  0  0  0  0  0  0  0  0  0  0
  156.3429  140.7036  182.7189 C   0  0  0  0  0  0  0  0  0  0  0  0
  158.4838  141.5056  181.7698 N   0  0  0  0  0  0  0  0  0  0  0  0
  158.2022  141.2101  180.3888 C   0  0  0  0  0  0  0  0  0  0  0  0
  158.4014  142.4404  179.5088 C   0  0  0  0  0  0  0  0  0  0  0  0
  159.4458  142.4318  182.2266 C   0  0  0  0  0  0  0  0  0  0  0  0
  159.0257  144.9280  182.1573 C   0  0  0  0  0  0  0  0  0  0  0  0
  158.8582  143.6417  182.8696 C   0  0  0  0  0  0  0  0  0  0  0  0
  153.5274  135.9936  190.8659 C   0  0  0  0  0  0  0  0  0  0  0  0
  153.3235  137.0674  191.9050 C   0  0  0  0  0  0  0  0  0  0  0  0
  152.0337  136.7700  192.6364 C   0  0  0  0  0  0  0  0  0  0  0  0
 29 30  1  0  0  0
 30 28  1  0  0  0
 28 25  1  0  0  0
 25 26  1  0  0  0
 26 27  1  0  0  0
 25 19  1  0  0  0
 19 20  2  0  0  0
 20 21  1  0  0  0
 21 22  2  0  0  0
 22 23  1  0  0  0
 23 24  2  0  0  0
 22  1  1  0  0  0
  1  2  2  0  0  0
  2  3  1  0  0  0
  3  4  2  0  0  0
  4  5  1  0  0  0
  4  6  1  0  0  0
  6  7  1  0  0  0
  7  8  1  0  0  0
  8  9  1  0  0  0
  9 10  1  0  0  0
  9 11  1  0  0  0
 11 12  1  0  0  0
  6 13  1  0  0  0
 13 14  2  0  0  0
 13 15  1  0  0  0
 15 31  1  0  0  0
 31 32  1  0  0  0
 32 33  1  0  0  0
 15 16  1  0  0  0
 16 17  2  0  0  0
 24 19  1  0  0  0
  5  1  1  0  0  0
 12  6  1  0  0  0
 16  3  1  0  0  0
  5 18  1  0  0  0
M  END
> <minimizedAffinity>
-7.18328

> <CNNscore>
0.4568349719

> <CNNaffinity>
6.1917176247

> <CNN_VS>
2.8285932541

> <CNNaffinity_variance>
0.0265028886

$$$$
[H]c1c([H])c(N(C([H])([H])C([H])([H])[H])C([H])([H])C([H])([H])C([H])([H])[H])c([H])c([H])c1-c1c([H])c2c(n1[H])C1(C(=O)N(C([H])([H])C([H])([H])C([H])([H])[H])C2=O)C([H])([H])C([H])([H])N(C([H])([H])[H])C([H])([H])C1([H])[H]


 33 36  0  0  0  0  0  0  0  0999 V2000
  154.8144  139.9277  183.0006 C   0  0  0  0  0  0  0  0  0  0  0  0
  155.5119  139.9318  184.1846 C   0  0  0  0  0  0  0  0  0  0  0  0
  156.7488  140.5585  183.9857 C   0  0  0  0  0  0  0  0  0  0  0  0
  156.7626  140.9241  182.6754 C   0  0  0  0  0  0  0  0  0  0  0  0
  155.5889  140.5316  182.1025 N   0  0  0  0  0  0  0  0  0  0  0  0
  157.9026  141.7276  182.1430 C   0  0  0  0  0  0  0  0  0  0  0  0
  158.2280  141.3344  180.7251 C   0  0  0  0  0  0  0  0  0  0  0  0
  158.0474  142.4313  179.7281 C   0  0  0  0  0  0  0  0  0  0  0  0
  158.6587  143.6757  180.0338 N   0  0  0  0  0  0  0  0  0  0  0  0
  159.9671  143.8555  179.4914 C   0  0  0  0  0  0  0  0  0  0  0  0
  158.5069  144.0089  181.4129 C   0  0  0  0  0  0  0  0  0  0  0  0
  157.4810  143.1977  182.1243 C   0  0  0  0  0  0  0  0  0  0  0  0
  159.0884  141.6167  182.9741 C   0  0  0  0  0  0  0  0  0  0  0  0
  160.2722  141.8314  182.4723 O   0  0  0  0  0  0  0  0  0  0  0  0
  159.0880  141.2759  184.3530 N   0  0  0  0  0  0  0  0  0  0  0  0
  157.8991  140.7227  184.8935 C   0  0  0  0  0  0  0  0  0  0  0  0
  157.8260  140.3893  186.0831 O   0  0  0  0  0  0  0  0  0  0  0  0
  155.3583  140.6929  181.0992 H   0  0  0  0  0  0  0  0  0  0  0  0
  150.8987  138.4037  182.1583 C   0  0  0  0  0  0  0  0  0  0  0  0
  151.3793  139.5185  181.5245 C   0  0  0  0  0  0  0  0  0  0  0  0
  152.6420  140.0003  181.8015 C   0  0  0  0  0  0  0  0  0  0  0  0
  153.4789  139.3770  182.7337 C   0  0  0  0  0  0  0  0  0  0  0  0
  152.9914  138.2654  183.3614 C   0  0  0  0  0  0  0  0  0  0  0  0
  151.7110  137.7809  183.0770 C   0  0  0  0  0  0  0  0  0  0  0  0
  149.5624  137.9261  181.8564 N   0  0  0  0  0  0  0  0  0  0  0  0
  148.5544  138.1449  182.8612 C   0  0  0  0  0  0  0  0  0  0  0  0
  147.9265  139.5285  182.7218 C   0  0  0  0  0  0  0  0  0  0  0  0
  149.3543  137.2813  180.6183 C   0  0  0  0  0  0  0  0  0  0  0  0
  147.7282  138.0671  178.8432 C   0  0  0  0  0  0  0  0  0  0  0  0
  149.0473  138.2154  179.4976 C   0  0  0  0  0  0  0  0  0  0  0  0
  160.2752  141.5084  185.1615 C   0  0  0  0  0  0  0  0  0  0  0  0
  160.2807  142.8774  185.7939 C   0  0  0  0  0  0  0  0  0  0  0  0
  161.5644  143.0232  186.5799 C   0  0  0  0  0  0  0  0  0  0  0  0
 29 30  1  0  0  0
 30 28  1  0  0  0
 28 25  1  0  0  0
 25 26  1  0  0  0
 26 27  1  0  0  0
 25 19  1  0  0  0
 19 20  2  0  0  0
 20 21  1  0  0  0
 21 22  2  0  0  0
 22 23  1  0  0  0
 23 24  2  0  0  0
 22  1  1  0  0  0
  1  2  2  0  0  0
  2  3  1  0  0  0
  3  4  2  0  0  0
  4  5  1  0  0  0
  4  6  1  0  0  0
  6  7  1  0  0  0
  7  8  1  0  0  0
  8  9  1  0  0  0
  9 10  1  0  0  0
  9 11  1  0  0  0
 11 12  1  0  0  0
  6 13  1  0  0  0
 13 14  2  0  0  0
 13 15  1  0  0  0
 15 31  1  0  0  0
 31 32  1  0  0  0
 32 33  1  0  0  0
 15 16  1  0  0  0
 16 17  2  0  0  0
 24 19  1  0  0  0
  5  1  1  0  0  0
 12  6  1  0  0  0
 16  3  1  0  0  0
  5 18  1  0  0  0
M  END
> <minimizedAffinity>
-8.46297

> <CNNscore>
0.4541225731

> <CNNaffinity>
6.7925682068

> <CNN_VS>
3.0846586227

> <CNNaffinity_variance>
0.0180325042

$$$$
[H]c1c([H])c(N(C([H])([H])C([H])([H])[H])C([H])([H])C([H])([H])C([H])([H])[H])c([H])c([H])c1-c1c([H])c2c(n1[H])C1(C(=O)N(C([H])([H])C([H])([H])C([H])([H])[H])C2=O)C([H])([H])C([H])([H])N(C([H])([H])[H])C([H])([H])C1([H])[H]


 33 36  0  0  0  0  0  0  0  0999 V2000
  154.8045  138.8245  185.4956 C   0  0  0  0  0  0  0  0  0  0  0  0
  153.5473  138.2715  185.5373 C   0  0  0  0  0  0  0  0  0  0  0  0
  153.4117  137.5298  186.7178 C   0  0  0  0  0  0  0  0  0  0  0  0
  154.6007  137.6608  187.3659 C   0  0  0  0  0  0  0  0  0  0  0  0
  155.4239  138.4421  186.6097 N   0  0  0  0  0  0  0  0  0  0  0  0
  154.7670  137.0816  188.7317 C   0  0  0  0  0  0  0  0  0  0  0  0
  156.1633  136.5502  188.9292 C   0  0  0  0  0  0  0  0  0  0  0  0
  156.9329  137.2360  190.0095 C   0  0  0  0  0  0  0  0  0  0  0  0
  156.2862  137.3663  191.2667 N   0  0  0  0  0  0  0  0  0  0  0  0
  156.5614  136.3207  192.1990 C   0  0  0  0  0  0  0  0  0  0  0  0
  154.9115  137.7169  191.1145 C   0  0  0  0  0  0  0  0  0  0  0  0
  154.5553  138.2007  189.7524 C   0  0  0  0  0  0  0  0  0  0  0  0
  153.7947  136.0390  189.0085 C   0  0  0  0  0  0  0  0  0  0  0  0
  154.0438  135.1192  189.8981 O   0  0  0  0  0  0  0  0  0  0  0  0
  152.5322  135.9118  188.3700 N   0  0  0  0  0  0  0  0  0  0  0  0
  152.3152  136.6624  187.1863 C   0  0  0  0  0  0  0  0  0  0  0  0
  151.2459  136.5946  186.5670 O   0  0  0  0  0  0  0  0  0  0  0  0
  156.3974  138.6874  186.8886 H   0  0  0  0  0  0  0  0  0  0  0  0
  156.6104  141.2801  182.4832 C   0  0  0  0  0  0  0  0  0  0  0  0
  157.3722  140.5568  183.3618 C   0  0  0  0  0  0  0  0  0  0  0  0
  156.7812  139.7679  184.3270 C   0  0  0  0  0  0  0  0  0  0  0  0
  155.3905  139.6735  184.4496 C   0  0  0  0  0  0  0  0  0  0  0  0
  154.6381  140.3984  183.5689 C   0  0  0  0  0  0  0  0  0  0  0  0
  155.2419  141.1964  182.5923 C   0  0  0  0  0  0  0  0  0  0  0  0
  157.2586  142.1108  181.4859 N   0  0  0  0  0  0  0  0  0  0  0  0
  158.1165  141.4404  180.5434 C   0  0  0  0  0  0  0  0  0  0  0  0
  158.4479  142.3431  179.3587 C   0  0  0  0  0  0  0  0  0  0  0  0
  157.0104  143.4997  181.5190 C   0  0  0  0  0  0  0  0  0  0  0  0
  159.1262  144.8171  181.9666 C   0  0  0  0  0  0  0  0  0  0  0  0
  157.8669  144.2410  182.4884 C   0  0  0  0  0  0  0  0  0  0  0  0
  151.5119  135.0445  188.9390 C   0  0  0  0  0  0  0  0  0  0  0  0
  150.4475  135.8170  189.6772 C   0  0  0  0  0  0  0  0  0  0  0  0
  150.9764  136.1382  191.0571 C   0  0  0  0  0  0  0  0  0  0  0  0
 29 30  1  0  0  0
 30 28  1  0  0  0
 28 25  1  0  0  0
 25 26  1  0  0  0
 26 27  1  0  0  0
 25 19  1  0  0  0
 19 20  2  0  0  0
 20 21  1  0  0  0
 21 22  2  0  0  0
 22 23  1  0  0  0
 23 24  2  0  0  0
 22  1  1  0  0  0
  1  2  2  0  0  0
  2  3  1  0  0  0
  3  4  2  0  0  0
  4  5  1  0  0  0
  4  6  1  0  0  0
  6  7  1  0  0  0
  7  8  1  0  0  0
  8  9  1  0  0  0
  9 10  1  0  0  0
  9 11  1  0  0  0
 11 12  1  0  0  0
  6 13  1  0  0  0
 13 14  2  0  0  0
 13 15  1  0  0  0
 15 31  1  0  0  0
 31 32  1  0  0  0
 32 33  1  0  0  0
 15 16  1  0  0  0
 16 17  2  0  0  0
 24 19  1  0  0  0
  5  1  1  0  0  0
 12  6  1  0  0  0
 16  3  1  0  0  0
  5 18  1  0  0  0
M  END
> <minimizedAffinity>
-7.66439

> <CNNscore>
0.4433489740

> <CNNaffinity>
6.2252035141

> <CNN_VS>
2.7599375248

> <CNNaffinity_variance>
0.0220755767

$$$$
[H]c1c([H])c(N(C([H])([H])C([H])([H])[H])C([H])([H])C([H])([H])C([H])([H])[H])c([H])c([H])c1-c1c([H])c2c(n1[H])C1(C(=O)N(C([H])([H])C([H])([H])C([H])([H])[H])C2=O)C([H])([H])C([H])([H])N(C([H])([H])[H])C([H])([H])C1([H])[H]


 33 36  0  0  0  0  0  0  0  0999 V2000
  154.2048  139.4921  183.5401 C   0  0  0  0  0  0  0  0  0  0  0  0
  153.9407  138.5674  184.5216 C   0  0  0  0  0  0  0  0  0  0  0  0
  152.7013  137.9673  184.2645 C   0  0  0  0  0  0  0  0  0  0  0  0
  152.2486  138.5480  183.1205 C   0  0  0  0  0  0  0  0  0  0  0  0
  153.1692  139.4643  182.7047 N   0  0  0  0  0  0  0  0  0  0  0  0
  150.9878  138.0570  182.4899 C   0  0  0  0  0  0  0  0  0  0  0  0
  150.2137  139.1916  181.8698 C   0  0  0  0  0  0  0  0  0  0  0  0
  150.0405  139.0792  180.3909 C   0  0  0  0  0  0  0  0  0  0  0  0
  149.5521  137.8397  179.9000 N   0  0  0  0  0  0  0  0  0  0  0  0
  148.1360  137.7723  179.7317 C   0  0  0  0  0  0  0  0  0  0  0  0
  150.1503  136.7357  180.5779 C   0  0  0  0  0  0  0  0  0  0  0  0
  151.3631  137.0912  181.3649 C   0  0  0  0  0  0  0  0  0  0  0  0
  150.1471  137.3373  183.4303 C   0  0  0  0  0  0  0  0  0  0  0  0
  148.8616  137.2456  183.2349 O   0  0  0  0  0  0  0  0  0  0  0  0
  150.6097  136.6911  184.6076 N   0  0  0  0  0  0  0  0  0  0  0  0
  151.9166  137.0054  185.0602 C   0  0  0  0  0  0  0  0  0  0  0  0
  152.3848  136.4926  186.0846 O   0  0  0  0  0  0  0  0  0  0  0  0
  153.0513  140.0484  181.8500 H   0  0  0  0  0  0  0  0  0  0  0  0
  157.6990  141.9448  183.1655 C   0  0  0  0  0  0  0  0  0  0  0  0
  157.7951  140.6097  183.4549 C   0  0  0  0  0  0  0  0  0  0  0  0
  156.6642  139.8282  183.5717 C   0  0  0  0  0  0  0  0  0  0  0  0
  155.3815  140.3607  183.4017 C   0  0  0  0  0  0  0  0  0  0  0  0
  155.2947  141.6936  183.1132 C   0  0  0  0  0  0  0  0  0  0  0  0
  156.4440  142.4813  182.9957 C   0  0  0  0  0  0  0  0  0  0  0  0
  158.9044  142.7453  183.0604 N   0  0  0  0  0  0  0  0  0  0  0  0
  158.8132  143.9536  182.2823 C   0  0  0  0  0  0  0  0  0  0  0  0
  159.1023  143.6848  180.8084 C   0  0  0  0  0  0  0  0  0  0  0  0
  160.0662  142.2807  183.7132 C   0  0  0  0  0  0  0  0  0  0  0  0
  159.8292  142.1975  186.2330 C   0  0  0  0  0  0  0  0  0  0  0  0
  160.3105  142.9230  185.0363 C   0  0  0  0  0  0  0  0  0  0  0  0
  149.7565  135.7356  185.2977 C   0  0  0  0  0  0  0  0  0  0  0  0
  149.4226  136.1729  186.7019 C   0  0  0  0  0  0  0  0  0  0  0  0
  148.4276  137.3082  186.6129 C   0  0  0  0  0  0  0  0  0  0  0  0
 29 30  1  0  0  0
 30 28  1  0  0  0
 28 25  1  0  0  0
 25 26  1  0  0  0
 26 27  1  0  0  0
 25 19  1  0  0  0
 19 20  2  0  0  0
 20 21  1  0  0  0
 21 22  2  0  0  0
 22 23  1  0  0  0
 23 24  2  0  0  0
 22  1  1  0  0  0
  1  2  2  0  0  0
  2  3  1  0  0  0
  3  4  2  0  0  0
  4  5  1  0  0  0
  4  6  1  0  0  0
  6  7  1  0  0  0
  7  8  1  0  0  0
  8  9  1  0  0  0
  9 10  1  0  0  0
  9 11  1  0  0  0
 11 12  1  0  0  0
  6 13  1  0  0  0
 13 14  2  0  0  0
 13 15  1  0  0  0
 15 31  1  0  0  0
 31 32  1  0  0  0
 32 33  1  0  0  0
 15 16  1  0  0  0
 16 17  2  0  0  0
 24 19  1  0  0  0
  5  1  1  0  0  0
 12  6  1  0  0  0
 16  3  1  0  0  0
  5 18  1  0  0  0
M  END
> <minimizedAffinity>
-7.10261

> <CNNscore>
0.3759911358

> <CNNaffinity>
6.3850698471

> <CNN_VS>
2.4007296562

> <CNNaffinity_variance>
0.0207806248

$$$$
[H]c1c([H])c(N(C([H])([H])C([H])([H])[H])C([H])([H])C([H])([H])C([H])([H])[H])c([H])c([H])c1-c1c([H])c2c(n1[H])C1(C(=O)N(C([H])([H])C([H])([H])C([H])([H])[H])C2=O)C([H])([H])C([H])([H])N(C([H])([H])[H])C([H])([H])C1([H])[H]


 33 36  0  0  0  0  0  0  0  0999 V2000
  154.3309  138.1922  186.4551 C   0  0  0  0  0  0  0  0  0  0  0  0
  154.5964  138.0692  187.7977 C   0  0  0  0  0  0  0  0  0  0  0  0
  153.5912  137.2977  188.3949 C   0  0  0  0  0  0  0  0  0  0  0  0
  152.7404  136.9682  187.3858 C   0  0  0  0  0  0  0  0  0  0  0  0
  153.2049  137.5201  186.2284 N   0  0  0  0  0  0  0  0  0  0  0  0
  151.5999  136.0424  187.6518 C   0  0  0  0  0  0  0  0  0  0  0  0
  150.3876  136.4293  186.8445 C   0  0  0  0  0  0  0  0  0  0  0  0
  149.9451  135.3906  185.8672 C   0  0  0  0  0  0  0  0  0  0  0  0
  149.7876  134.0716  186.3684 N   0  0  0  0  0  0  0  0  0  0  0  0
  148.4673  133.7435  186.8014 C   0  0  0  0  0  0  0  0  0  0  0  0
  150.8403  133.7236  187.2665 C   0  0  0  0  0  0  0  0  0  0  0  0
  152.0139  134.6379  187.2102 C   0  0  0  0  0  0  0  0  0  0  0  0
  151.2590  135.9815  189.0621 C   0  0  0  0  0  0  0  0  0  0  0  0
  150.0611  135.6335  189.4404 O   0  0  0  0  0  0  0  0  0  0  0  0
  152.1473  136.2830  190.1288 N   0  0  0  0  0  0  0  0  0  0  0  0
  153.3487  136.9664  189.8111 C   0  0  0  0  0  0  0  0  0  0  0  0
  154.1662  137.2746  190.6877 O   0  0  0  0  0  0  0  0  0  0  0  0
  152.7240  137.4156  185.3099 H   0  0  0  0  0  0  0  0  0  0  0  0
  156.5066  140.3007  183.4244 C   0  0  0  0  0  0  0  0  0  0  0  0
  155.1575  140.0923  183.3162 C   0  0  0  0  0  0  0  0  0  0  0  0
  154.4657  139.4137  184.2982 C   0  0  0  0  0  0  0  0  0  0  0  0
  155.1066  138.9130  185.4368 C   0  0  0  0  0  0  0  0  0  0  0  0
  156.4528  139.1255  185.5367 C   0  0  0  0  0  0  0  0  0  0  0  0
  157.1492  139.8140  184.5388 C   0  0  0  0  0  0  0  0  0  0  0  0
  157.2108  141.0071  182.3708 N   0  0  0  0  0  0  0  0  0  0  0  0
  156.4838  142.0481  181.6914 C   0  0  0  0  0  0  0  0  0  0  0  0
  156.4359  143.3240  182.5267 C   0  0  0  0  0  0  0  0  0  0  0  0
  158.5379  140.6195  182.0868 C   0  0  0  0  0  0  0  0  0  0  0  0
  160.3921  141.4068  183.6212 C   0  0  0  0  0  0  0  0  0  0  0  0
  159.5535  141.6563  182.4277 C   0  0  0  0  0  0  0  0  0  0  0  0
  151.8167  135.8819  191.4879 C   0  0  0  0  0  0  0  0  0  0  0  0
  151.0756  136.9584  192.2405 C   0  0  0  0  0  0  0  0  0  0  0  0
  151.9735  137.4530  193.3523 C   0  0  0  0  0  0  0  0  0  0  0  0
 29 30  1  0  0  0
 30 28  1  0  0  0
 28 25  1  0  0  0
 25 26  1  0  0  0
 26 27  1  0  0  0
 25 19  1  0  0  0
 19 20  2  0  0  0
 20 21  1  0  0  0
 21 22  2  0  0  0
 22 23  1  0  0  0
 23 24  2  0  0  0
 22  1  1  0  0  0
  1  2  2  0  0  0
  2  3  1  0  0  0
  3  4  2  0  0  0
  4  5  1  0  0  0
  4  6  1  0  0  0
  6  7  1  0  0  0
  7  8  1  0  0  0
  8  9  1  0  0  0
  9 10  1  0  0  0
  9 11  1  0  0  0
 11 12  1  0  0  0
  6 13  1  0  0  0
 13 14  2  0  0  0
 13 15  1  0  0  0
 15 31  1  0  0  0
 31 32  1  0  0  0
 32 33  1  0  0  0
 15 16  1  0  0  0
 16 17  2  0  0  0
 24 19  1  0  0  0
  5  1  1  0  0  0
 12  6  1  0  0  0
 16  3  1  0  0  0
  5 18  1  0  0  0
M  END
> <minimizedAffinity>
-7.08152

> <CNNscore>
0.3534453809

> <CNNaffinity>
5.9575691223

> <CNN_VS>
2.1056752205

> <CNNaffinity_variance>
0.0090435240

$$$$
[H]c1c([H])c(N(C([H])([H])C([H])([H])[H])C([H])([H])C([H])([H])C([H])([H])[H])c([H])c([H])c1-c1c([H])c2c(n1[H])C1(C(=O)N(C([H])([H])C([H])([H])C([H])([H])[H])C2=O)C([H])([H])C([H])([H])N(C([H])([H])[H])C([H])([H])C1([H])[H]


 33 36  0  0  0  0  0  0  0  0999 V2000
  154.0349  140.3030  182.3204 C   0  0  0  0  0  0  0  0  0  0  0  0
  152.8732  140.6693  181.6842 C   0  0  0  0  0  0  0  0  0  0  0  0
  151.9805  139.5900  181.7029 C   0  0  0  0  0  0  0  0  0  0  0  0
  152.6318  138.5932  182.3609 C   0  0  0  0  0  0  0  0  0  0  0  0
  153.8674  139.0449  182.7205 N   0  0  0  0  0  0  0  0  0  0  0  0
  151.9188  137.3171  182.6640 C   0  0  0  0  0  0  0  0  0  0  0  0
  152.8520  136.1377  182.5658 C   0  0  0  0  0  0  0  0  0  0  0  0
  153.0363  135.3938  183.8473 C   0  0  0  0  0  0  0  0  0  0  0  0
  151.8554  135.0157  184.5389 N   0  0  0  0  0  0  0  0  0  0  0  0
  151.3730  133.7058  184.2394 C   0  0  0  0  0  0  0  0  0  0  0  0
  150.8799  136.0568  184.5173 C   0  0  0  0  0  0  0  0  0  0  0  0
  151.4165  137.3835  184.1070 C   0  0  0  0  0  0  0  0  0  0  0  0
  150.7676  137.1129  181.8025 C   0  0  0  0  0  0  0  0  0  0  0  0
  150.3117  135.9124  181.5785 O   0  0  0  0  0  0  0  0  0  0  0  0
  150.0517  138.1460  181.1408 N   0  0  0  0  0  0  0  0  0  0  0  0
  150.6590  139.4258  181.0699 C   0  0  0  0  0  0  0  0  0  0  0  0
  150.1027  140.3725  180.4990 O   0  0  0  0  0  0  0  0  0  0  0  0
  154.5632  138.4639  183.2342 H   0  0  0  0  0  0  0  0  0  0  0  0
  157.6211  142.5579  182.9680 C   0  0  0  0  0  0  0  0  0  0  0  0
  157.6396  141.1892  182.9268 C   0  0  0  0  0  0  0  0  0  0  0  0
  156.4798  140.4724  182.7161 C   0  0  0  0  0  0  0  0  0  0  0  0
  155.2454  141.1066  182.5372 C   0  0  0  0  0  0  0  0  0  0  0  0
  155.2362  142.4724  182.5798 C   0  0  0  0  0  0  0  0  0  0  0  0
  156.4144  143.1943  182.7935 C   0  0  0  0  0  0  0  0  0  0  0  0
  158.8539  143.2858  183.2033 N   0  0  0  0  0  0  0  0  0  0  0  0
  159.0446  144.4972  182.4483 C   0  0  0  0  0  0  0  0  0  0  0  0
  159.1361  144.2076  180.9530 C   0  0  0  0  0  0  0  0  0  0  0  0
  159.7686  142.7536  184.1371 C   0  0  0  0  0  0  0  0  0  0  0  0
  161.4314  143.4025  185.9334 C   0  0  0  0  0  0  0  0  0  0  0  0
  160.7247  143.7589  184.6829 C   0  0  0  0  0  0  0  0  0  0  0  0
  148.7384  137.8759  180.5757 C   0  0  0  0  0  0  0  0  0  0  0  0
  148.7499  137.8797  179.0676 C   0  0  0  0  0  0  0  0  0  0  0  0
  147.3307  137.6688  178.5897 C   0  0  0  0  0  0  0  0  0  0  0  0
 29 30  1  0  0  0
 30 28  1  0  0  0
 28 25  1  0  0  0
 25 26  1  0  0  0
 26 27  1  0  0  0
 25 19  1  0  0  0
 19 20  2  0  0  0
 20 21  1  0  0  0
 21 22  2  0  0  0
 22 23  1  0  0  0
 23 24  2  0  0  0
 22  1  1  0  0  0
  1  2  2  0  0  0
  2  3  1  0  0  0
  3  4  2  0  0  0
  4  5  1  0  0  0
  4  6  1  0  0  0
  6  7  1  0  0  0
  7  8  1  0  0  0
  8  9  1  0  0  0
  9 10  1  0  0  0
  9 11  1  0  0  0
 11 12  1  0  0  0
  6 13  1  0  0  0
 13 14  2  0  0  0
 13 15  1  0  0  0
 15 31  1  0  0  0
 31 32  1  0  0  0
 32 33  1  0  0  0
 15 16  1  0  0  0
 16 17  2  0  0  0
 24 19  1  0  0  0
  5  1  1  0  0  0
 12  6  1  0  0  0
 16  3  1  0  0  0
  5 18  1  0  0  0
M  END
> <minimizedAffinity>
-7.67025

> <CNNscore>
0.3037522435

> <CNNaffinity>
6.2336206436

> <CNN_VS>
1.8934762478

> <CNNaffinity_variance>
0.0163487010

$$$$
[H]c1c([H])c(N(C([H])([H])C([H])([H])[H])C([H])([H])C([H])([H])C([H])([H])[H])c([H])c([H])c1-c1c([H])c2c(n1[H])C1(C(=O)N(C([H])([H])C([H])([H])C([H])([H])[H])C2=O)C([H])([H])C([H])([H])N(C([H])([H])[H])C([H])([H])C1([H])[H]


 33 36  0  0  0  0  0  0  0  0999 V2000
  153.9552  139.3706  183.3815 C   0  0  0  0  0  0  0  0  0  0  0  0
  153.6639  138.4390  184.3487 C   0  0  0  0  0  0  0  0  0  0  0  0
  152.4059  137.8824  184.0848 C   0  0  0  0  0  0  0  0  0  0  0  0
  151.9696  138.4953  182.9513 C   0  0  0  0  0  0  0  0  0  0  0  0
  152.9178  139.3888  182.5481 N   0  0  0  0  0  0  0  0  0  0  0  0
  150.6929  138.0543  182.3158 C   0  0  0  0  0  0  0  0  0  0  0  0
  149.9537  139.2225  181.7157 C   0  0  0  0  0  0  0  0  0  0  0  0
  149.7744  139.1393  180.2356 C   0  0  0  0  0  0  0  0  0  0  0  0
  149.2465  137.9239  179.7260 N   0  0  0  0  0  0  0  0  0  0  0  0
  147.8286  137.9037  179.5599 C   0  0  0  0  0  0  0  0  0  0  0  0
  149.8109  136.7909  180.3848 C   0  0  0  0  0  0  0  0  0  0  0  0
  151.0356  137.0954  181.1746 C   0  0  0  0  0  0  0  0  0  0  0  0
  149.8316  137.3463  183.2464 C   0  0  0  0  0  0  0  0  0  0  0  0
  148.5435  137.2982  183.0525 O   0  0  0  0  0  0  0  0  0  0  0  0
  150.2758  136.6671  184.4122 N   0  0  0  0  0  0  0  0  0  0  0  0
  151.5927  136.9328  184.8668 C   0  0  0  0  0  0  0  0  0  0  0  0
  152.0463  136.3892  185.8818 O   0  0  0  0  0  0  0  0  0  0  0  0
  152.8168  139.9900  181.7032 H   0  0  0  0  0  0  0  0  0  0  0  0
  157.4131  141.8636  182.9419 C   0  0  0  0  0  0  0  0  0  0  0  0
  156.2269  142.1798  182.3352 C   0  0  0  0  0  0  0  0  0  0  0  0
  155.1188  141.3715  182.4842 C   0  0  0  0  0  0  0  0  0  0  0  0
  155.1584  140.2040  183.2544 C   0  0  0  0  0  0  0  0  0  0  0  0
  156.3459  139.8961  183.8562 C   0  0  0  0  0  0  0  0  0  0  0  0
  157.4660  140.7187  183.7022 C   0  0  0  0  0  0  0  0  0  0  0  0
  158.5657  142.7254  182.7582 N   0  0  0  0  0  0  0  0  0  0  0  0
  159.7987  142.2956  183.3655 C   0  0  0  0  0  0  0  0  0  0  0  0
  160.3111  143.3277  184.3656 C   0  0  0  0  0  0  0  0  0  0  0  0
  158.3926  143.9123  182.0144 C   0  0  0  0  0  0  0  0  0  0  0  0
  158.8132  142.9286  179.7192 C   0  0  0  0  0  0  0  0  0  0  0  0
  159.1648  143.9414  180.7394 C   0  0  0  0  0  0  0  0  0  0  0  0
  149.3942  135.7279  185.0888 C   0  0  0  0  0  0  0  0  0  0  0  0
  148.7000  136.3452  186.2769 C   0  0  0  0  0  0  0  0  0  0  0  0
  147.2787  135.8293  186.3067 C   0  0  0  0  0  0  0  0  0  0  0  0
 29 30  1  0  0  0
 30 28  1  0  0  0
 28 25  1  0  0  0
 25 26  1  0  0  0
 26 27  1  0  0  0
 25 19  1  0  0  0
 19 20  2  0  0  0
 20 21  1  0  0  0
 21 22  2  0  0  0
 22 23  1  0  0  0
 23 24  2  0  0  0
 22  1  1  0  0  0
  1  2  2  0  0  0
  2  3  1  0  0  0
  3  4  2  0  0  0
  4  5  1  0  0  0
  4  6  1  0  0  0
  6  7  1  0  0  0
  7  8  1  0  0  0
  8  9  1  0  0  0
  9 10  1  0  0  0
  9 11  1  0  0  0
 11 12  1  0  0  0
  6 13  1  0  0  0
 13 14  2  0  0  0
 13 15  1  0  0  0
 15 31  1  0  0  0
 31 32  1  0  0  0
 32 33  1  0  0  0
 15 16  1  0  0  0
 16 17  2  0  0  0
 24 19  1  0  0  0
  5  1  1  0  0  0
 12  6  1  0  0  0
 16  3  1  0  0  0
  5 18  1  0  0  0
M  END
> <minimizedAffinity>
-7.05051

> <CNNscore>
0.2864679694

> <CNNaffinity>
6.2742156982

> <CNN_VS>
1.7973618507

> <CNNaffinity_variance>
0.0227036439

$$$$
[H]c1c([H])c(N(C([H])([H])C([H])([H])[H])C([H])([H])C([H])([H])C([H])([H])[H])c([H])c([H])c1-c1c([H])c2c(n1[H])C1(C(=O)N(C([H])([H])C([H])([H])C([H])([H])[H])C2=O)C([H])([H])C([H])([H])N(C([H])([H])[H])C([H])([H])C1([H])[H]


 33 36  0  0  0  0  0  0  0  0999 V2000
  153.6798  138.7365  182.9698 C   0  0  0  0  0  0  0  0  0  0  0  0
  152.3622  139.0369  183.2183 C   0  0  0  0  0  0  0  0  0  0  0  0
  151.5737  137.9166  182.9261 C   0  0  0  0  0  0  0  0  0  0  0  0
  152.4458  136.9590  182.5100 C   0  0  0  0  0  0  0  0  0  0  0  0
  153.7071  137.4766  182.5422 N   0  0  0  0  0  0  0  0  0  0  0  0
  151.9496  135.5810  182.2212 C   0  0  0  0  0  0  0  0  0  0  0  0
  152.6945  134.9677  181.0636 C   0  0  0  0  0  0  0  0  0  0  0  0
  153.4687  133.7400  181.4144 C   0  0  0  0  0  0  0  0  0  0  0  0
  152.7704  132.7292  182.1259 N   0  0  0  0  0  0  0  0  0  0  0  0
  152.1801  131.7155  181.3120 C   0  0  0  0  0  0  0  0  0  0  0  0
  151.9275  133.2855  183.1339 C   0  0  0  0  0  0  0  0  0  0  0  0
  152.2184  134.7110  183.4500 C   0  0  0  0  0  0  0  0  0  0  0  0
  150.5208  135.5544  181.9628 C   0  0  0  0  0  0  0  0  0  0  0  0
  149.9923  134.5943  181.2570 O   0  0  0  0  0  0  0  0  0  0  0  0
  149.5911  136.5242  182.4241 N   0  0  0  0  0  0  0  0  0  0  0  0
  150.1087  137.7496  182.9162 C   0  0  0  0  0  0  0  0  0  0  0  0
  149.3611  138.6478  183.3238 O   0  0  0  0  0  0  0  0  0  0  0  0
  154.5549  136.9388  182.2634 H   0  0  0  0  0  0  0  0  0  0  0  0
  157.1212  141.2273  183.5337 C   0  0  0  0  0  0  0  0  0  0  0  0
  156.7177  140.3432  184.4985 C   0  0  0  0  0  0  0  0  0  0  0  0
  155.6093  139.5444  184.3067 C   0  0  0  0  0  0  0  0  0  0  0  0
  154.8558  139.6025  183.1291 C   0  0  0  0  0  0  0  0  0  0  0  0
  155.2655  140.4874  182.1717 C   0  0  0  0  0  0  0  0  0  0  0  0
  156.3898  141.2945  182.3710 C   0  0  0  0  0  0  0  0  0  0  0  0
  158.2836  142.0636  183.7671 N   0  0  0  0  0  0  0  0  0  0  0  0
  159.4813  141.3983  184.2104 C   0  0  0  0  0  0  0  0  0  0  0  0
  159.5204  139.9513  183.7278 C   0  0  0  0  0  0  0  0  0  0  0  0
  158.1528  143.4526  183.5540 C   0  0  0  0  0  0  0  0  0  0  0  0
  156.8193  145.1096  182.1798 C   0  0  0  0  0  0  0  0  0  0  0  0
  156.8466  143.8489  182.9543 C   0  0  0  0  0  0  0  0  0  0  0  0
  148.1646  136.2391  182.3929 C   0  0  0  0  0  0  0  0  0  0  0  0
  147.3280  137.4604  182.6807 C   0  0  0  0  0  0  0  0  0  0  0  0
  146.8129  137.3496  184.0982 C   0  0  0  0  0  0  0  0  0  0  0  0
 29 30  1  0  0  0
 30 28  1  0  0  0
 28 25  1  0  0  0
 25 26  1  0  0  0
 26 27  1  0  0  0
 25 19  1  0  0  0
 19 20  2  0  0  0
 20 21  1  0  0  0
 21 22  2  0  0  0
 22 23  1  0  0  0
 23 24  2  0  0  0
 22  1  1  0  0  0
  1  2  2  0  0  0
  2  3  1  0  0  0
  3  4  2  0  0  0
  4  5  1  0  0  0
  4  6  1  0  0  0
  6  7  1  0  0  0
  7  8  1  0  0  0
  8  9  1  0  0  0
  9 10  1  0  0  0
  9 11  1  0  0  0
 11 12  1  0  0  0
  6 13  1  0  0  0
 13 14  2  0  0  0
 13 15  1  0  0  0
 15 31  1  0  0  0
 31 32  1  0  0  0
 32 33  1  0  0  0
 15 16  1  0  0  0
 16 17  2  0  0  0
 24 19  1  0  0  0
  5  1  1  0  0  0
 12  6  1  0  0  0
 16  3  1  0  0  0
  5 18  1  0  0  0
M  END
> <minimizedAffinity>
-3.04111

> <CNNscore>
0.2616703808

> <CNNaffinity>
6.0534548759

> <CNN_VS>
1.5840098858

> <CNNaffinity_variance>
0.5702452064

$$$$
[H]c1nc([H])c([H])c(-c2c([H])c([H])nc(C#Cc3c([H])c([H])c([H])c([H])c3[H])c2[H])c1[H]


 20 22  0  0  0  0  0  0  0  0999 V2000
  155.1217  140.0407  183.9070 N   0  0  0  0  0  0  0  0  0  0  0  0
  156.2875  140.3539  184.4717 C   0  0  0  0  0  0  0  0  0  0  0  0
  157.1221  141.2037  183.8018 C   0  0  0  0  0  0  0  0  0  0  0  0
  156.7560  141.7261  182.5588 C   0  0  0  0  0  0  0  0  0  0  0  0
  155.5450  141.3827  182.0040 C   0  0  0  0  0  0  0  0  0  0  0  0
  154.7253  140.5252  182.7009 C   0  0  0  0  0  0  0  0  0  0  0  0
  157.6606  142.6342  181.8619 C   0  0  0  0  0  0  0  0  0  0  0  0
  158.0908  142.2651  180.5887 C   0  0  0  0  0  0  0  0  0  0  0  0
  158.9501  143.1018  179.8754 C   0  0  0  0  0  0  0  0  0  0  0  0
  159.3683  144.2676  180.4109 N   0  0  0  0  0  0  0  0  0  0  0  0
  158.9463  144.6001  181.6259 C   0  0  0  0  0  0  0  0  0  0  0  0
  158.0859  143.8145  182.4004 C   0  0  0  0  0  0  0  0  0  0  0  0
  153.4579  140.1653  182.1287 C   0  0  0  0  0  0  0  0  0  0  0  0
  152.3875  139.8457  181.6258 C   0  0  0  0  0  0  0  0  0  0  0  0
  151.1467  139.4642  181.0172 C   0  0  0  0  0  0  0  0  0  0  0  0
  150.0761  139.1188  181.8140 C   0  0  0  0  0  0  0  0  0  0  0  0
  148.8787  138.7542  181.2322 C   0  0  0  0  0  0  0  0  0  0  0  0
  148.6909  138.7162  179.8534 C   0  0  0  0  0  0  0  0  0  0  0  0
  149.7652  139.0623  179.0707 C   0  0  0  0  0  0  0  0  0  0  0  0
  150.9639  139.4277  179.6331 C   0  0  0  0  0  0  0  0  0  0  0  0
  1  2  2  0  0  0
  2  3  1  0  0  0
  3  4  2  0  0  0
  4  7  1  0  0  0
  7  8  2  0  0  0
  8  9  1  0  0  0
  9 10  2  0  0  0
 10 11  1  0  0  0
 11 12  2  0  0  0
  4  5  1  0  0  0
  5  6  2  0  0  0
  6 13  1  0  0  0
 13 14  3  0  0  0
 14 15  1  0  0  0
 15 16  2  0  0  0
 16 17  1  0  0  0
 17 18  2  0  0  0
 18 19  1  0  0  0
 19 20  2  0  0  0
  6  1  1  0  0  0
 20 15  1  0  0  0
 12  7  1  0  0  0
M  END
> <minimizedAffinity>
-7.67506

> <CNNscore>
0.5588265657

> <CNNaffinity>
5.6694397926

> <CNN_VS>
3.1682336330

> <CNNaffinity_variance>
0.0277548991

$$$$
[H]c1nc([H])c([H])c(-c2c([H])c([H])nc(C#Cc3c([H])c([H])c([H])c([H])c3[H])c2[H])c1[H]


 20 22  0  0  0  0  0  0  0  0999 V2000
  157.8344  143.5414  182.4071 N   0  0  0  0  0  0  0  0  0  0  0  0
  158.8374  144.4188  182.3969 C   0  0  0  0  0  0  0  0  0  0  0  0
  159.8752  144.2236  183.2642 C   0  0  0  0  0  0  0  0  0  0  0  0
  159.8776  143.1312  184.1352 C   0  0  0  0  0  0  0  0  0  0  0  0
  158.8265  142.2439  184.1199 C   0  0  0  0  0  0  0  0  0  0  0  0
  157.7954  142.4655  183.2363 C   0  0  0  0  0  0  0  0  0  0  0  0
  160.9970  142.9397  185.0510 C   0  0  0  0  0  0  0  0  0  0  0  0
  160.8208  143.3327  186.3764 C   0  0  0  0  0  0  0  0  0  0  0  0
  161.8571  143.1638  187.2954 C   0  0  0  0  0  0  0  0  0  0  0  0
  163.0309  142.6219  186.9089 N   0  0  0  0  0  0  0  0  0  0  0  0
  163.1778  142.2543  185.6408 C   0  0  0  0  0  0  0  0  0  0  0  0
  162.1860  142.3917  184.6637 C   0  0  0  0  0  0  0  0  0  0  0  0
  156.6965  141.5409  183.2129 C   0  0  0  0  0  0  0  0  0  0  0  0
  155.7466  140.7673  183.2031 C   0  0  0  0  0  0  0  0  0  0  0  0
  154.6240  139.8755  183.2089 C   0  0  0  0  0  0  0  0  0  0  0  0
  154.5783  138.8455  184.1240 C   0  0  0  0  0  0  0  0  0  0  0  0
  153.4977  137.9867  184.1353 C   0  0  0  0  0  0  0  0  0  0  0  0
  152.4283  138.1086  183.2524 C   0  0  0  0  0  0  0  0  0  0  0  0
  152.4862  139.1386  182.3456 C   0  0  0  0  0  0  0  0  0  0  0  0
  153.5539  140.0023  182.3206 C   0  0  0  0  0  0  0  0  0  0  0  0
  1  2  2  0  0  0
  2  3  1  0  0  0
  3  4  2  0  0  0
  4  7  1  0  0  0
  7  8  2  0  0  0
  8  9  1  0  0  0
  9 10  2  0  0  0
 10 11  1  0  0  0
 11 12  2  0  0  0
  4  5  1  0  0  0
  5  6  2  0  0  0
  6 13  1  0  0  0
 13 14  3  0  0  0
 14 15  1  0  0  0
 15 16  2  0  0  0
 16 17  1  0  0  0
 17 18  2  0  0  0
 18 19  1  0  0  0
 19 20  2  0  0  0
  6  1  1  0  0  0
 20 15  1  0  0  0
 12  7  1  0  0  0
M  END
> <minimizedAffinity>
-7.69201

> <CNNscore>
0.5504140854

> <CNNaffinity>
6.0451879501

> <CNN_VS>
3.3273565769

> <CNNaffinity_variance>
0.0747549757

$$$$
[H]c1nc([H])c([H])c(-c2c([H])c([H])nc(C#Cc3c([H])c([H])c([H])c([H])c3[H])c2[H])c1[H]


 20 22  0  0  0  0  0  0  0  0999 V2000
  154.5060  139.5822  183.7568 N   0  0  0  0  0  0  0  0  0  0  0  0
  153.5687  138.7088  184.1235 C   0  0  0  0  0  0  0  0  0  0  0  0
  152.4700  138.5663  183.3234 C   0  0  0  0  0  0  0  0  0  0  0  0
  152.3401  139.3195  182.1539 C   0  0  0  0  0  0  0  0  0  0  0  0
  153.3265  140.2124  181.8041 C   0  0  0  0  0  0  0  0  0  0  0  0
  154.4211  140.3349  182.6286 C   0  0  0  0  0  0  0  0  0  0  0  0
  151.1606  139.1498  181.3123 C   0  0  0  0  0  0  0  0  0  0  0  0
  151.2873  139.4465  179.9565 C   0  0  0  0  0  0  0  0  0  0  0  0
  150.1917  139.2933  179.1059 C   0  0  0  0  0  0  0  0  0  0  0  0
  149.0085  138.8593  179.5879 N   0  0  0  0  0  0  0  0  0  0  0  0
  148.9095  138.5823  180.8834 C   0  0  0  0  0  0  0  0  0  0  0  0
  149.9618  138.7109  181.7963 C   0  0  0  0  0  0  0  0  0  0  0  0
  155.4563  141.2628  182.2673 C   0  0  0  0  0  0  0  0  0  0  0  0
  156.3468  142.0396  181.9442 C   0  0  0  0  0  0  0  0  0  0  0  0
  157.4010  142.9301  181.5556 C   0  0  0  0  0  0  0  0  0  0  0  0
  158.1271  142.6673  180.4136 C   0  0  0  0  0  0  0  0  0  0  0  0
  159.1407  143.5239  180.0341 C   0  0  0  0  0  0  0  0  0  0  0  0
  159.4756  144.6641  180.7592 C   0  0  0  0  0  0  0  0  0  0  0  0
  158.7449  144.9145  181.8949 C   0  0  0  0  0  0  0  0  0  0  0  0
  157.7330  144.0726  182.2870 C   0  0  0  0  0  0  0  0  0  0  0  0
  1  2  2  0  0  0
  2  3  1  0  0  0
  3  4  2  0  0  0
  4  7  1  0  0  0
  7  8  2  0  0  0
  8  9  1  0  0  0
  9 10  2  0  0  0
 10 11  1  0  0  0
 11 12  2  0  0  0
  4  5  1  0  0  0
  5  6  2  0  0  0
  6 13  1  0  0  0
 13 14  3  0  0  0
 14 15  1  0  0  0
 15 16  2  0  0  0
 16 17  1  0  0  0
 17 18  2  0  0  0
 18 19  1  0  0  0
 19 20  2  0  0  0
  6  1  1  0  0  0
 20 15  1  0  0  0
 12  7  1  0  0  0
M  END
> <minimizedAffinity>
-7.26986

> <CNNscore>
0.5433337688

> <CNNaffinity>
5.3888788223

> <CNN_VS>
2.9279599190

> <CNNaffinity_variance>
0.0422951840

$$$$
[H]c1nc([H])c([H])c(-c2c([H])c([H])nc(C#Cc3c([H])c([H])c([H])c([H])c3[H])c2[H])c1[H]


 20 22  0  0  0  0  0  0  0  0999 V2000
  157.3280  140.2217  182.2383 N   0  0  0  0  0  0  0  0  0  0  0  0
  158.4117  140.7653  181.6851 C   0  0  0  0  0  0  0  0  0  0  0  0
  159.3622  141.2951  182.5117 C   0  0  0  0  0  0  0  0  0  0  0  0
  159.1952  141.2640  183.8985 C   0  0  0  0  0  0  0  0  0  0  0  0
  158.0646  140.6949  184.4372 C   0  0  0  0  0  0  0  0  0  0  0  0
  157.1245  140.1695  183.5809 C   0  0  0  0  0  0  0  0  0  0  0  0
  160.2237  141.8326  184.7631 C   0  0  0  0  0  0  0  0  0  0  0  0
  159.8271  142.3051  186.0128 C   0  0  0  0  0  0  0  0  0  0  0  0
  160.7726  142.8510  186.8818 C   0  0  0  0  0  0  0  0  0  0  0  0
  162.0704  142.9248  186.5198 N   0  0  0  0  0  0  0  0  0  0  0  0
  162.4269  142.4688  185.3241 C   0  0  0  0  0  0  0  0  0  0  0  0
  161.5377  141.9090  184.4004 C   0  0  0  0  0  0  0  0  0  0  0  0
  155.9433  139.5707  184.1370 C   0  0  0  0  0  0  0  0  0  0  0  0
  154.9483  139.0505  184.6271 C   0  0  0  0  0  0  0  0  0  0  0  0
  153.7982  138.4262  185.2128 C   0  0  0  0  0  0  0  0  0  0  0  0
  153.5553  138.5769  186.5614 C   0  0  0  0  0  0  0  0  0  0  0  0
  152.4474  137.9803  187.1287 C   0  0  0  0  0  0  0  0  0  0  0  0
  151.5426  137.2180  186.3950 C   0  0  0  0  0  0  0  0  0  0  0  0
  151.7961  137.0753  185.0526 C   0  0  0  0  0  0  0  0  0  0  0  0
  152.8939  137.6622  184.4720 C   0  0  0  0  0  0  0  0  0  0  0  0
  1  2  2  0  0  0
  2  3  1  0  0  0
  3  4  2  0  0  0
  4  7  1  0  0  0
  7  8  2  0  0  0
  8  9  1  0  0  0
  9 10  2  0  0  0
 10 11  1  0  0  0
 11 12  2  0  0  0
  4  5  1  0  0  0
  5  6  2  0  0  0
  6 13  1  0  0  0
 13 14  3  0  0  0
 14 15  1  0  0  0
 15 16  2  0  0  0
 16 17  1  0  0  0
 17 18  2  0  0  0
 18 19  1  0  0  0
 19 20  2  0  0  0
  6  1  1  0  0  0
 20 15  1  0  0  0
 12  7  1  0  0  0
M  END
> <minimizedAffinity>
-7.99664

> <CNNscore>
0.5280286670

> <CNNaffinity>
5.6795186996

> <CNN_VS>
2.9989485741

> <CNNaffinity_variance>
0.0348632261

$$$$
[H]c1nc([H])c([H])c(-c2c([H])c([H])nc(C#Cc3c([H])c([H])c([H])c([H])c3[H])c2[H])c1[H]


 20 22  0  0  0  0  0  0  0  0999 V2000
  156.9391  140.6727  182.1783 N   0  0  0  0  0  0  0  0  0  0  0  0
  157.9481  141.3263  181.6033 C   0  0  0  0  0  0  0  0  0  0  0  0
  158.9903  141.7274  182.3909 C   0  0  0  0  0  0  0  0  0  0  0  0
  158.9907  141.4560  183.7614 C   0  0  0  0  0  0  0  0  0  0  0  0
  157.9333  140.7789  184.3234 C   0  0  0  0  0  0  0  0  0  0  0  0
  156.8980  140.3873  183.5062 C   0  0  0  0  0  0  0  0  0  0  0  0
  160.1148  141.8906  184.5838 C   0  0  0  0  0  0  0  0  0  0  0  0
  161.3948  141.7585  184.0484 C   0  0  0  0  0  0  0  0  0  0  0  0
  162.5041  142.1667  184.7901 C   0  0  0  0  0  0  0  0  0  0  0  0
  162.3457  142.6890  186.0242 N   0  0  0  0  0  0  0  0  0  0  0  0
  161.1170  142.8057  186.5154 C   0  0  0  0  0  0  0  0  0  0  0  0
  159.9586  142.4194  185.8327 C   0  0  0  0  0  0  0  0  0  0  0  0
  155.7926  139.6768  184.0861 C   0  0  0  0  0  0  0  0  0  0  0  0
  154.8375  139.0894  184.5797 C   0  0  0  0  0  0  0  0  0  0  0  0
  153.7095  138.4235  185.1625 C   0  0  0  0  0  0  0  0  0  0  0  0
  153.4408  138.5890  186.5045 C   0  0  0  0  0  0  0  0  0  0  0  0
  152.3539  137.9524  187.0690 C   0  0  0  0  0  0  0  0  0  0  0  0
  151.4959  137.1346  186.3388 C   0  0  0  0  0  0  0  0  0  0  0  0
  151.7748  136.9778  185.0031 C   0  0  0  0  0  0  0  0  0  0  0  0
  152.8522  137.6039  184.4253 C   0  0  0  0  0  0  0  0  0  0  0  0
  1  2  2  0  0  0
  2  3  1  0  0  0
  3  4  2  0  0  0
  4  7  1  0  0  0
  7  8  2  0  0  0
  8  9  1  0  0  0
  9 10  2  0  0  0
 10 11  1  0  0  0
 11 12  2  0  0  0
  4  5  1  0  0  0
  5  6  2  0  0  0
  6 13  1  0  0  0
 13 14  3  0  0  0
 14 15  1  0  0  0
 15 16  2  0  0  0
 16 17  1  0  0  0
 17 18  2  0  0  0
 18 19  1  0  0  0
 19 20  2  0  0  0
  6  1  1  0  0  0
 20 15  1  0  0  0
 12  7  1  0  0  0
M  END
> <minimizedAffinity>
-7.69934

> <CNNscore>
0.5268403888

> <CNNaffinity>
5.7015857697

> <CNN_VS>
3.0038256645

> <CNNaffinity_variance>
0.0470742285

$$$$
[H]c1nc([H])c([H])c(-c2c([H])c([H])nc(C#Cc3c([H])c([H])c([H])c([H])c3[H])c2[H])c1[H]


 20 22  0  0  0  0  0  0  0  0999 V2000
  154.5613  139.3187  183.9356 N   0  0  0  0  0  0  0  0  0  0  0  0
  153.6691  138.3985  184.3005 C   0  0  0  0  0  0  0  0  0  0  0  0
  152.5679  138.2178  183.5117 C   0  0  0  0  0  0  0  0  0  0  0  0
  152.3892  138.9812  182.3553 C   0  0  0  0  0  0  0  0  0  0  0  0
  153.3297  139.9229  182.0070 C   0  0  0  0  0  0  0  0  0  0  0  0
  154.4281  140.0830  182.8199 C   0  0  0  0  0  0  0  0  0  0  0  0
  151.2078  138.7702  181.5257 C   0  0  0  0  0  0  0  0  0  0  0  0
  151.2102  139.3246  180.2469 C   0  0  0  0  0  0  0  0  0  0  0  0
  150.1084  139.1454  179.4095 C   0  0  0  0  0  0  0  0  0  0  0  0
  149.0390  138.4382  179.8300 N   0  0  0  0  0  0  0  0  0  0  0  0
  149.0574  137.9186  181.0525 C   0  0  0  0  0  0  0  0  0  0  0  0
  150.1239  138.0554  181.9475 C   0  0  0  0  0  0  0  0  0  0  0  0
  155.4155  141.0620  182.4600 C   0  0  0  0  0  0  0  0  0  0  0  0
  156.2688  141.8814  182.1417 C   0  0  0  0  0  0  0  0  0  0  0  0
  157.2825  142.8220  181.7634 C   0  0  0  0  0  0  0  0  0  0  0  0
  157.5095  143.9308  182.5506 C   0  0  0  0  0  0  0  0  0  0  0  0
  158.4868  144.8371  182.1918 C   0  0  0  0  0  0  0  0  0  0  0  0
  159.2726  144.6873  181.0525 C   0  0  0  0  0  0  0  0  0  0  0  0
  159.0364  143.5787  180.2767 C   0  0  0  0  0  0  0  0  0  0  0  0
  158.0679  142.6669  180.6191 C   0  0  0  0  0  0  0  0  0  0  0  0
  1  2  2  0  0  0
  2  3  1  0  0  0
  3  4  2  0  0  0
  4  7  1  0  0  0
  7  8  2  0  0  0
  8  9  1  0  0  0
  9 10  2  0  0  0
 10 11  1  0  0  0
 11 12  2  0  0  0
  4  5  1  0  0  0
  5  6  2  0  0  0
  6 13  1  0  0  0
 13 14  3  0  0  0
 14 15  1  0  0  0
 15 16  2  0  0  0
 16 17  1  0  0  0
 17 18  2  0  0  0
 18 19  1  0  0  0
 19 20  2  0  0  0
  6  1  1  0  0  0
 20 15  1  0  0  0
 12  7  1  0  0  0
M  END
> <minimizedAffinity>
-7.00488

> <CNNscore>
0.5117444396

> <CNNaffinity>
5.3901853561

> <CNN_VS>
2.7583973408

> <CNNaffinity_variance>
0.0560459793

$$$$
[H]c1nc([H])c([H])c(-c2c([H])c([H])nc(C#Cc3c([H])c([H])c([H])c([H])c3[H])c2[H])c1[H]


 20 22  0  0  0  0  0  0  0  0999 V2000
  155.8115  143.2261  182.9939 N   0  0  0  0  0  0  0  0  0  0  0  0
  154.5790  143.2027  182.4877 C   0  0  0  0  0  0  0  0  0  0  0  0
  153.8982  142.0178  182.4998 C   0  0  0  0  0  0  0  0  0  0  0  0
  154.4852  140.8663  183.0302 C   0  0  0  0  0  0  0  0  0  0  0  0
  155.7594  140.9251  183.5453 C   0  0  0  0  0  0  0  0  0  0  0  0
  156.4209  142.1313  183.5198 C   0  0  0  0  0  0  0  0  0  0  0  0
  153.7397  139.6122  183.0361 C   0  0  0  0  0  0  0  0  0  0  0  0
  154.0193  138.7002  184.0522 C   0  0  0  0  0  0  0  0  0  0  0  0
  153.3287  137.4890  184.1087 C   0  0  0  0  0  0  0  0  0  0  0  0
  152.3906  137.1941  183.1846 N   0  0  0  0  0  0  0  0  0  0  0  0
  152.1399  138.0774  182.2246 C   0  0  0  0  0  0  0  0  0  0  0  0
  152.7899  139.3103  182.1030 C   0  0  0  0  0  0  0  0  0  0  0  0
  157.7503  142.2003  184.0592 C   0  0  0  0  0  0  0  0  0  0  0  0
  158.8763  142.2699  184.5369 C   0  0  0  0  0  0  0  0  0  0  0  0
  160.1862  142.3690  185.1112 C   0  0  0  0  0  0  0  0  0  0  0  0
  160.3239  142.7466  186.4299 C   0  0  0  0  0  0  0  0  0  0  0  0
  161.5831  142.8400  186.9877 C   0  0  0  0  0  0  0  0  0  0  0  0
  162.7464  142.5670  186.2735 C   0  0  0  0  0  0  0  0  0  0  0  0
  162.5955  142.1922  184.9607 C   0  0  0  0  0  0  0  0  0  0  0  0
  161.3500  142.0942  184.3899 C   0  0  0  0  0  0  0  0  0  0  0  0
  1  2  2  0  0  0
  2  3  1  0  0  0
  3  4  2  0  0  0
  4  7  1  0  0  0
  7  8  2  0  0  0
  8  9  1  0  0  0
  9 10  2  0  0  0
 10 11  1  0  0  0
 11 12  2  0  0  0
  4  5  1  0  0  0
  5  6  2  0  0  0
  6 13  1  0  0  0
 13 14  3  0  0  0
 14 15  1  0  0  0
 15 16  2  0  0  0
 16 17  1  0  0  0
 17 18  2  0  0  0
 18 19  1  0  0  0
 19 20  2  0  0  0
  6  1  1  0  0  0
 20 15  1  0  0  0
 12  7  1  0  0  0
M  END
> <minimizedAffinity>
-8.38104

> <CNNscore>
0.4909855723

> <CNNaffinity>
5.7625694275

> <CNN_VS>
2.8293385506

> <CNNaffinity_variance>
0.0910350382

$$$$
[H]c1nc([H])c([H])c(-c2c([H])c([H])nc(C#Cc3c([H])c([H])c([H])c([H])c3[H])c2[H])c1[H]


 20 22  0  0  0  0  0  0  0  0999 V2000
  155.8597  143.2448  183.0145 N   0  0  0  0  0  0  0  0  0  0  0  0
  154.6374  143.2372  182.4835 C   0  0  0  0  0  0  0  0  0  0  0  0
  153.9314  142.0674  182.5042 C   0  0  0  0  0  0  0  0  0  0  0  0
  154.4828  140.9144  183.0687 C   0  0  0  0  0  0  0  0  0  0  0  0
  155.7473  140.9566  183.6087 C   0  0  0  0  0  0  0  0  0  0  0  0
  156.4348  142.1479  183.5738 C   0  0  0  0  0  0  0  0  0  0  0  0
  153.7107  139.6766  183.0832 C   0  0  0  0  0  0  0  0  0  0  0  0
  152.7233  139.5207  182.1121 C   0  0  0  0  0  0  0  0  0  0  0  0
  151.9616  138.3521  182.0763 C   0  0  0  0  0  0  0  0  0  0  0  0
  152.1747  137.3704  182.9772 N   0  0  0  0  0  0  0  0  0  0  0  0
  153.1206  137.5395  183.8944 C   0  0  0  0  0  0  0  0  0  0  0  0
  153.9233  138.6812  183.9930 C   0  0  0  0  0  0  0  0  0  0  0  0
  157.7542  142.1996  184.1391 C   0  0  0  0  0  0  0  0  0  0  0  0
  158.8786  142.2659  184.6209 C   0  0  0  0  0  0  0  0  0  0  0  0
  160.1959  142.3669  185.1777 C   0  0  0  0  0  0  0  0  0  0  0  0
  161.2909  142.0840  184.3895 C   0  0  0  0  0  0  0  0  0  0  0  0
  162.5611  142.1832  184.9206 C   0  0  0  0  0  0  0  0  0  0  0  0
  162.7999  142.5623  186.2387 C   0  0  0  0  0  0  0  0  0  0  0  0
  161.7005  142.8410  187.0134 C   0  0  0  0  0  0  0  0  0  0  0  0
  160.4297  142.7474  186.5009 C   0  0  0  0  0  0  0  0  0  0  0  0
  1  2  2  0  0  0
  2  3  1  0  0  0
  3  4  2  0  0  0
  4  7  1  0  0  0
  7  8  2  0  0  0
  8  9  1  0  0  0
  9 10  2  0  0  0
 10 11  1  0  0  0
 11 12  2  0  0  0
  4  5  1  0  0  0
  5  6  2  0  0  0
  6 13  1  0  0  0
 13 14  3  0  0  0
 14 15  1  0  0  0
 15 16  2  0  0  0
 16 17  1  0  0  0
 17 18  2  0  0  0
 18 19  1  0  0  0
 19 20  2  0  0  0
  6  1  1  0  0  0
 20 15  1  0  0  0
 12  7  1  0  0  0
M  END
> <minimizedAffinity>
-8.43763

> <CNNscore>
0.4856043160

> <CNNaffinity>
5.7551388741

> <CNN_VS>
2.7947201729

> <CNNaffinity_variance>
0.0852327496

$$$$
[H]c1nc([H])c([H])c(-c2c([H])c([H])nc(C#Cc3c([H])c([H])c([H])c([H])c3[H])c2[H])c1[H]


 20 22  0  0  0  0  0  0  0  0999 V2000
  154.4706  139.0703  183.9590 N   0  0  0  0  0  0  0  0  0  0  0  0
  155.6003  139.2210  184.6498 C   0  0  0  0  0  0  0  0  0  0  0  0
  156.4122  140.2752  184.3384 C   0  0  0  0  0  0  0  0  0  0  0  0
  156.0607  141.1668  183.3218 C   0  0  0  0  0  0  0  0  0  0  0  0
  154.8871  140.9826  182.6281 C   0  0  0  0  0  0  0  0  0  0  0  0
  154.0895  139.9128  182.9632 C   0  0  0  0  0  0  0  0  0  0  0  0
  156.9403  142.2874  183.0074 C   0  0  0  0  0  0  0  0  0  0  0  0
  158.2813  142.1766  183.3707 C   0  0  0  0  0  0  0  0  0  0  0  0
  159.1670  143.2165  183.0857 C   0  0  0  0  0  0  0  0  0  0  0  0
  158.7334  144.3306  182.4600 N   0  0  0  0  0  0  0  0  0  0  0  0
  157.4513  144.4157  182.1227 C   0  0  0  0  0  0  0  0  0  0  0  0
  156.5054  143.4162  182.3745 C   0  0  0  0  0  0  0  0  0  0  0  0
  152.8610  139.7168  182.2452 C   0  0  0  0  0  0  0  0  0  0  0  0
  151.8123  139.5289  181.6404 C   0  0  0  0  0  0  0  0  0  0  0  0
  150.5882  139.2848  180.9352 C   0  0  0  0  0  0  0  0  0  0  0  0
  150.6083  139.1532  179.5631 C   0  0  0  0  0  0  0  0  0  0  0  0
  149.4324  138.9147  178.8805 C   0  0  0  0  0  0  0  0  0  0  0  0
  148.2007  138.7973  179.5184 C   0  0  0  0  0  0  0  0  0  0  0  0
  148.1942  138.9307  180.8855 C   0  0  0  0  0  0  0  0  0  0  0  0
  149.3550  139.1681  181.5802 C   0  0  0  0  0  0  0  0  0  0  0  0
  1  2  2  0  0  0
  2  3  1  0  0  0
  3  4  2  0  0  0
  4  7  1  0  0  0
  7  8  2  0  0  0
  8  9  1  0  0  0
  9 10  2  0  0  0
 10 11  1  0  0  0
 11 12  2  0  0  0
  4  5  1  0  0  0
  5  6  2  0  0  0
  6 13  1  0  0  0
 13 14  3  0  0  0
 14 15  1  0  0  0
 15 16  2  0  0  0
 16 17  1  0  0  0
 17 18  2  0  0  0
 18 19  1  0  0  0
 19 20  2  0  0  0
  6  1  1  0  0  0
 20 15  1  0  0  0
 12  7  1  0  0  0
M  END
> <minimizedAffinity>
-7.52665

> <CNNscore>
0.4111540914

> <CNNaffinity>
5.4217305183

> <CNN_VS>
2.2291667461

> <CNNaffinity_variance>
0.0559039898

$$$$
[H]c1c([H])c([H])c2c(c1[H])c1c3c(c4c5c([H])c([H])c([H])c([H])c5n5c4c1n2[C@@]1(C([H])([H])[H])O[C@]5([H])C([H])([H])[C@@]([H])(N([H])C([H])([H])[H])[C@@]1([H])OC([H])([H])[H])C(=O)N([H])C3([H])[H]


 37 44  0  0  0  0  0  0  0  0999 V2000
  155.8082  134.3274  190.5847 C   0  0  0  0  0  0  0  0  0  0  0  0
  154.7647  134.3931  191.6094 C   0  0  0  0  0  0  0  0  0  0  0  0
  154.1948  135.7459  191.7757 C   0  0  0  0  0  0  0  0  0  0  0  0
  154.7771  136.8080  191.2883 O   0  0  0  0  0  0  0  0  0  0  0  0
  155.4774  136.8034  190.0850 C   0  0  0  0  0  0  0  0  0  0  0  0
  156.3323  138.0670  190.2491 C   0  0  0  0  0  0  0  0  0  0  0  0
  156.3225  135.6178  190.0113 C   0  0  0  0  0  0  0  0  0  0  0  0
  154.4987  136.9554  188.9939 N   0  0  0  0  0  0  0  0  0  0  0  0
  154.7009  137.4687  187.7819 C   0  0  0  0  0  0  0  0  0  0  0  0
  155.8119  137.9607  187.1551 C   0  0  0  0  0  0  0  0  0  0  0  0
  155.7619  138.4420  185.8660 C   0  0  0  0  0  0  0  0  0  0  0  0
  154.5661  138.4473  185.1411 C   0  0  0  0  0  0  0  0  0  0  0  0
  153.4590  137.9587  185.7600 C   0  0  0  0  0  0  0  0  0  0  0  0
  153.5211  137.4825  187.0427 C   0  0  0  0  0  0  0  0  0  0  0  0
  152.5576  136.9457  187.8552 C   0  0  0  0  0  0  0  0  0  0  0  0
  151.1936  136.6963  187.6891 C   0  0  0  0  0  0  0  0  0  0  0  0
  150.3157  136.9480  186.5234 C   0  0  0  0  0  0  0  0  0  0  0  0
  149.0078  136.5079  186.8815 N   0  0  0  0  0  0  0  0  0  0  0  0
  149.0585  136.0003  188.2188 C   0  0  0  0  0  0  0  0  0  0  0  0
  148.0495  135.5550  188.7690 O   0  0  0  0  0  0  0  0  0  0  0  0
  150.4214  136.1264  188.7002 C   0  0  0  0  0  0  0  0  0  0  0  0
  151.0661  135.8171  189.8765 C   0  0  0  0  0  0  0  0  0  0  0  0
  150.6721  135.2471  191.0736 C   0  0  0  0  0  0  0  0  0  0  0  0
  149.4688  134.7875  191.5300 C   0  0  0  0  0  0  0  0  0  0  0  0
  149.3882  134.2587  192.8034 C   0  0  0  0  0  0  0  0  0  0  0  0
  150.4968  134.1914  193.6078 C   0  0  0  0  0  0  0  0  0  0  0  0
  151.7163  134.6508  193.1612 C   0  0  0  0  0  0  0  0  0  0  0  0
  151.7858  135.1724  191.8996 C   0  0  0  0  0  0  0  0  0  0  0  0
  152.8169  135.6702  191.2496 N   0  0  0  0  0  0  0  0  0  0  0  0
  152.4395  136.0722  190.0340 C   0  0  0  0  0  0  0  0  0  0  0  0
  153.1886  136.6411  189.0182 C   0  0  0  0  0  0  0  0  0  0  0  0
  148.1709  136.5590  186.2542 H   0  0  0  0  0  0  0  0  0  0  0  0
  154.3002  132.5444  190.0310 C   0  0  0  0  0  0  0  0  0  0  0  0
  155.3155  133.4395  189.5073 N   0  0  0  0  0  0  0  0  0  0  0  0
  154.8478  133.9897  188.7554 H   0  0  0  0  0  0  0  0  0  0  0  0
  156.7812  135.2641  188.7445 O   0  0  0  0  0  0  0  0  0  0  0  0
  158.1557  135.0670  188.6956 C   0  0  0  0  0  0  0  0  0  0  0  0
 33 34  1  0  0  0
 34  1  1  0  0  0
  1  2  1  0  0  0
  2  3  1  0  0  0
  3  4  1  0  0  0
  4  5  1  0  0  0
  5  6  1  0  0  0
  5  7  1  0  0  0
  7 36  1  0  0  0
 36 37  1  0  0  0
  5  8  1  0  0  0
  8  9  1  0  0  0
  9 10  2  0  0  0
 10 11  1  0  0  0
 11 12  2  0  0  0
 12 13  1  0  0  0
 13 14  2  0  0  0
 14 15  1  0  0  0
 15 16  2  0  0  0
 16 17  1  0  0  0
 17 18  1  0  0  0
 18 19  1  0  0  0
 19 20  2  0  0  0
 19 21  1  0  0  0
 21 22  2  0  0  0
 22 23  1  0  0  0
 23 24  2  0  0  0
 24 25  1  0  0  0
 25 26  2  0  0  0
 26 27  1  0  0  0
 27 28  2  0  0  0
 28 29  1  0  0  0
 29 30  1  0  0  0
 30 31  2  0  0  0
  7  1  1  0  0  0
 31  8  1  0  0  0
 29  3  1  0  0  0
 14  9  1  0  0  0
 31 15  1  0  0  0
 21 16  1  0  0  0
 30 22  1  0  0  0
 28 23  1  0  0  0
 34 35  1  0  0  0
 18 32  1  0  0  0
M  END
> <minimizedAffinity>
-6.93643

> <CNNscore>
0.5065079331

> <CNNaffinity>
5.6453967094

> <CNN_VS>
2.8594381809

> <CNNaffinity_variance>
0.5896255970

$$$$
[H]c1c([H])c([H])c2c(c1[H])c1c3c(c4c5c([H])c([H])c([H])c([H])c5n5c4c1n2[C@@]1(C([H])([H])[H])O[C@]5([H])C([H])([H])[C@@]([H])(N([H])C([H])([H])[H])[C@@]1([H])OC([H])([H])[H])C(=O)N([H])C3([H])[H]


 37 44  0  0  0  0  0  0  0  0999 V2000
  155.2996  135.1919  191.4873 C   0  0  0  0  0  0  0  0  0  0  0  0
  154.2943  135.2025  192.5515 C   0  0  0  0  0  0  0  0  0  0  0  0
  153.4156  136.3895  192.5120 C   0  0  0  0  0  0  0  0  0  0  0  0
  153.7107  137.4471  191.8054 O   0  0  0  0  0  0  0  0  0  0  0  0
  154.3644  137.3801  190.5779 C   0  0  0  0  0  0  0  0  0  0  0  0
  154.8889  138.8170  190.4568 C   0  0  0  0  0  0  0  0  0  0  0  0
  155.4711  136.4348  190.6601 C   0  0  0  0  0  0  0  0  0  0  0  0
  153.3545  137.0885  189.5453 N   0  0  0  0  0  0  0  0  0  0  0  0
  153.3988  137.3965  188.2504 C   0  0  0  0  0  0  0  0  0  0  0  0
  154.3424  138.0085  187.4731 C   0  0  0  0  0  0  0  0  0  0  0  0
  154.1483  138.2121  186.1252 C   0  0  0  0  0  0  0  0  0  0  0  0
  152.9717  137.7987  185.4926 C   0  0  0  0  0  0  0  0  0  0  0  0
  152.0309  137.1893  186.2614 C   0  0  0  0  0  0  0  0  0  0  0  0
  152.2353  136.9922  187.6013 C   0  0  0  0  0  0  0  0  0  0  0  0
  151.4498  136.4072  188.5591 C   0  0  0  0  0  0  0  0  0  0  0  0
  150.1844  135.8170  188.5317 C   0  0  0  0  0  0  0  0  0  0  0  0
  149.2463  135.6300  187.4013 C   0  0  0  0  0  0  0  0  0  0  0  0
  148.0932  134.9704  187.9188 N   0  0  0  0  0  0  0  0  0  0  0  0
  148.2955  134.7510  189.3187 C   0  0  0  0  0  0  0  0  0  0  0  0
  147.4377  134.1930  190.0057 O   0  0  0  0  0  0  0  0  0  0  0  0
  149.5968  135.2830  189.6776 C   0  0  0  0  0  0  0  0  0  0  0  0
  150.3230  135.3622  190.8443 C   0  0  0  0  0  0  0  0  0  0  0  0
  150.1062  134.9523  192.1474 C   0  0  0  0  0  0  0  0  0  0  0  0
  149.0615  134.3171  192.7579 C   0  0  0  0  0  0  0  0  0  0  0  0
  149.1402  134.0346  194.1076 C   0  0  0  0  0  0  0  0  0  0  0  0
  150.2492  134.3834  194.8351 C   0  0  0  0  0  0  0  0  0  0  0  0
  151.3098  135.0240  194.2332 C   0  0  0  0  0  0  0  0  0  0  0  0
  151.2224  135.2992  192.8970 C   0  0  0  0  0  0  0  0  0  0  0  0
  152.0865  135.8937  192.1013 N   0  0  0  0  0  0  0  0  0  0  0  0
  151.5960  135.9584  190.8615 C   0  0  0  0  0  0  0  0  0  0  0  0
  152.1614  136.4851  189.7128 C   0  0  0  0  0  0  0  0  0  0  0  0
  147.2556  134.7036  187.3499 H   0  0  0  0  0  0  0  0  0  0  0  0
  154.2864  133.0194  191.3710 C   0  0  0  0  0  0  0  0  0  0  0  0
  155.0146  134.0258  190.6206 N   0  0  0  0  0  0  0  0  0  0  0  0
  154.3927  134.2936  189.8280 H   0  0  0  0  0  0  0  0  0  0  0  0
  155.9743  135.9662  189.4487 O   0  0  0  0  0  0  0  0  0  0  0  0
  157.3048  136.3080  189.2399 C   0  0  0  0  0  0  0  0  0  0  0  0
 33 34  1  0  0  0
 34  1  1  0  0  0
  1  2  1  0  0  0
  2  3  1  0  0  0
  3  4  1  0  0  0
  4  5  1  0  0  0
  5  6  1  0  0  0
  5  7  1  0  0  0
  7 36  1  0  0  0
 36 37  1  0  0  0
  5  8  1  0  0  0
  8  9  1  0  0  0
  9 10  2  0  0  0
 10 11  1  0  0  0
 11 12  2  0  0  0
 12 13  1  0  0  0
 13 14  2  0  0  0
 14 15  1  0  0  0
 15 16  2  0  0  0
 16 17  1  0  0  0
 17 18  1  0  0  0
 18 19  1  0  0  0
 19 20  2  0  0  0
 19 21  1  0  0  0
 21 22  2  0  0  0
 22 23  1  0  0  0
 23 24  2  0  0  0
 24 25  1  0  0  0
 25 26  2  0  0  0
 26 27  1  0  0  0
 27 28  2  0  0  0
 28 29  1  0  0  0
 29 30  1  0  0  0
 30 31  2  0  0  0
  7  1  1  0  0  0
 31  8  1  0  0  0
 29  3  1  0  0  0
 14  9  1  0  0  0
 31 15  1  0  0  0
 21 16  1  0  0  0
 30 22  1  0  0  0
 28 23  1  0  0  0
 34 35  1  0  0  0
 18 32  1  0  0  0
M  END
> <minimizedAffinity>
-7.09945

> <CNNscore>
0.4181268513

> <CNNaffinity>
5.4948554039

> <CNN_VS>
2.2975466251

> <CNNaffinity_variance>
0.7027847171

$$$$
[H]c1c([H])c([H])c2c(c1[H])c1c3c(c4c5c([H])c([H])c([H])c([H])c5n5c4c1n2[C@@]1(C([H])([H])[H])O[C@]5([H])C([H])([H])[C@@]([H])(N([H])C([H])([H])[H])[C@@]1([H])OC([H])([H])[H])C(=O)N([H])C3([H])[H]


 37 44  0  0  0  0  0  0  0  0999 V2000
  156.1313  135.2552  189.8884 C   0  0  0  0  0  0  0  0  0  0  0  0
  155.3331  135.8190  190.9784 C   0  0  0  0  0  0  0  0  0  0  0  0
  154.5259  136.9860  190.5671 C   0  0  0  0  0  0  0  0  0  0  0  0
  154.7466  137.6217  189.4483 O   0  0  0  0  0  0  0  0  0  0  0  0
  155.1672  136.9837  188.2844 C   0  0  0  0  0  0  0  0  0  0  0  0
  155.7376  138.1723  187.4993 C   0  0  0  0  0  0  0  0  0  0  0  0
  156.2190  136.0251  188.6007 C   0  0  0  0  0  0  0  0  0  0  0  0
  153.9758  136.4247  187.6216 N   0  0  0  0  0  0  0  0  0  0  0  0
  153.8056  136.1736  186.3249 C   0  0  0  0  0  0  0  0  0  0  0  0
  154.6272  136.2977  185.2392 C   0  0  0  0  0  0  0  0  0  0  0  0
  154.2077  135.9598  183.9720 C   0  0  0  0  0  0  0  0  0  0  0  0
  152.9171  135.4729  183.7424 C   0  0  0  0  0  0  0  0  0  0  0  0
  152.0968  135.3474  184.8189 C   0  0  0  0  0  0  0  0  0  0  0  0
  152.5254  135.6868  186.0748 C   0  0  0  0  0  0  0  0  0  0  0  0
  151.8926  135.6410  187.2889 C   0  0  0  0  0  0  0  0  0  0  0  0
  150.6128  135.2501  187.6886 C   0  0  0  0  0  0  0  0  0  0  0  0
  149.4801  134.7375  186.8842 C   0  0  0  0  0  0  0  0  0  0  0  0
  148.4040  134.4906  187.7861 N   0  0  0  0  0  0  0  0  0  0  0  0
  148.8398  134.8344  189.1054 C   0  0  0  0  0  0  0  0  0  0  0  0
  148.0893  134.7121  190.0754 O   0  0  0  0  0  0  0  0  0  0  0  0
  150.2106  135.3024  189.0224 C   0  0  0  0  0  0  0  0  0  0  0  0
  151.1359  135.7580  189.9342 C   0  0  0  0  0  0  0  0  0  0  0  0
  151.1326  135.9412  191.3052 C   0  0  0  0  0  0  0  0  0  0  0  0
  150.1807  135.7409  192.2651 C   0  0  0  0  0  0  0  0  0  0  0  0
  150.4828  136.0222  193.5831 C   0  0  0  0  0  0  0  0  0  0  0  0
  151.7205  136.4973  193.9344 C   0  0  0  0  0  0  0  0  0  0  0  0
  152.6898  136.7040  192.9777 C   0  0  0  0  0  0  0  0  0  0  0  0
  152.3811  136.4226  191.6761 C   0  0  0  0  0  0  0  0  0  0  0  0
  153.1205  136.5330  190.5923 N   0  0  0  0  0  0  0  0  0  0  0  0
  152.4215  136.1493  189.5218 C   0  0  0  0  0  0  0  0  0  0  0  0
  152.8010  136.0919  188.1916 C   0  0  0  0  0  0  0  0  0  0  0  0
  147.4655  134.1209  187.5047 H   0  0  0  0  0  0  0  0  0  0  0  0
  154.9492  133.3852  190.8189 C   0  0  0  0  0  0  0  0  0  0  0  0
  155.6350  133.8824  189.6405 N   0  0  0  0  0  0  0  0  0  0  0  0
  154.9267  133.8745  188.8757 H   0  0  0  0  0  0  0  0  0  0  0  0
  156.4732  135.0481  187.6409 O   0  0  0  0  0  0  0  0  0  0  0  0
  157.8273  134.8736  187.3830 C   0  0  0  0  0  0  0  0  0  0  0  0
 33 34  1  0  0  0
 34  1  1  0  0  0
  1  2  1  0  0  0
  2  3  1  0  0  0
  3  4  1  0  0  0
  4  5  1  0  0  0
  5  6  1  0  0  0
  5  7  1  0  0  0
  7 36  1  0  0  0
 36 37  1  0  0  0
  5  8  1  0  0  0
  8  9  1  0  0  0
  9 10  2  0  0  0
 10 11  1  0  0  0
 11 12  2  0  0  0
 12 13  1  0  0  0
 13 14  2  0  0  0
 14 15  1  0  0  0
 15 16  2  0  0  0
 16 17  1  0  0  0
 17 18  1  0  0  0
 18 19  1  0  0  0
 19 20  2  0  0  0
 19 21  1  0  0  0
 21 22  2  0  0  0
 22 23  1  0  0  0
 23 24  2  0  0  0
 24 25  1  0  0  0
 25 26  2  0  0  0
 26 27  1  0  0  0
 27 28  2  0  0  0
 28 29  1  0  0  0
 29 30  1  0  0  0
 30 31  2  0  0  0
  7  1  1  0  0  0
 31  8  1  0  0  0
 29  3  1  0  0  0
 14  9  1  0  0  0
 31 15  1  0  0  0
 21 16  1  0  0  0
 30 22  1  0  0  0
 28 23  1  0  0  0
 34 35  1  0  0  0
 18 32  1  0  0  0
M  END
> <minimizedAffinity>
-6.41668

> <CNNscore>
0.4063960314

> <CNNaffinity>
5.6586070061

> <CNN_VS>
2.2996354103

> <CNNaffinity_variance>
0.2307473123

$$$$
[H]c1c([H])c([H])c2c(c1[H])c1c3c(c4c5c([H])c([H])c([H])c([H])c5n5c4c1n2[C@@]1(C([H])([H])[H])O[C@]5([H])C([H])([H])[C@@]([H])(N([H])C([H])([H])[H])[C@@]1([H])OC([H])([H])[H])C(=O)N([H])C3([H])[H]


 37 44  0  0  0  0  0  0  0  0999 V2000
  151.9552  135.4507  183.7824 C   0  0  0  0  0  0  0  0  0  0  0  0
  152.7455  134.7950  184.8258 C   0  0  0  0  0  0  0  0  0  0  0  0
  152.7785  133.3238  184.6947 C   0  0  0  0  0  0  0  0  0  0  0  0
  151.9434  132.6775  183.9270 O   0  0  0  0  0  0  0  0  0  0  0  0
  151.4763  133.1863  182.7180 C   0  0  0  0  0  0  0  0  0  0  0  0
  150.2215  132.3269  182.5141 C   0  0  0  0  0  0  0  0  0  0  0  0
  151.1166  134.5897  182.8802 C   0  0  0  0  0  0  0  0  0  0  0  0
  152.4925  132.9052  181.6886 N   0  0  0  0  0  0  0  0  0  0  0  0
  152.3080  132.7612  180.3776 C   0  0  0  0  0  0  0  0  0  0  0  0
  151.2022  132.8563  179.5793 C   0  0  0  0  0  0  0  0  0  0  0  0
  151.2737  132.6629  178.2179 C   0  0  0  0  0  0  0  0  0  0  0  0
  152.4872  132.3598  177.5926 C   0  0  0  0  0  0  0  0  0  0  0  0
  153.5895  132.2646  178.3822 C   0  0  0  0  0  0  0  0  0  0  0  0
  153.5058  132.4592  179.7354 C   0  0  0  0  0  0  0  0  0  0  0  0
  154.4629  132.4219  180.7148 C   0  0  0  0  0  0  0  0  0  0  0  0
  155.8372  132.1735  180.7031 C   0  0  0  0  0  0  0  0  0  0  0  0
  156.7366  131.8548  179.5707 C   0  0  0  0  0  0  0  0  0  0  0  0
  158.0468  131.6938  180.1091 N   0  0  0  0  0  0  0  0  0  0  0  0
  157.9764  131.9015  181.5235 C   0  0  0  0  0  0  0  0  0  0  0  0
  158.9831  131.8175  182.2297 O   0  0  0  0  0  0  0  0  0  0  0  0
  156.5990  132.1972  181.8703 C   0  0  0  0  0  0  0  0  0  0  0  0
  155.9339  132.4790  183.0422 C   0  0  0  0  0  0  0  0  0  0  0  0
  156.3179  132.6060  184.3649 C   0  0  0  0  0  0  0  0  0  0  0  0
  157.5234  132.4817  184.9965 C   0  0  0  0  0  0  0  0  0  0  0  0
  157.5916  132.6726  186.3627 C   0  0  0  0  0  0  0  0  0  0  0  0
  156.4684  132.9834  187.0857 C   0  0  0  0  0  0  0  0  0  0  0  0
  155.2466  133.1119  186.4626 C   0  0  0  0  0  0  0  0  0  0  0  0
  155.1894  132.9211  185.1103 C   0  0  0  0  0  0  0  0  0  0  0  0
  154.1590  132.9859  184.2933 N   0  0  0  0  0  0  0  0  0  0  0  0
  154.5503  132.7276  183.0435 C   0  0  0  0  0  0  0  0  0  0  0  0
  153.8109  132.6971  181.8735 C   0  0  0  0  0  0  0  0  0  0  0  0
  158.8974  131.4630  179.5438 H   0  0  0  0  0  0  0  0  0  0  0  0
  152.9830  137.6101  183.5810 C   0  0  0  0  0  0  0  0  0  0  0  0
  152.8806  136.2897  182.9875 N   0  0  0  0  0  0  0  0  0  0  0  0
  153.8460  135.8966  183.0021 H   0  0  0  0  0  0  0  0  0  0  0  0
  151.0038  135.3375  181.7104 O   0  0  0  0  0  0  0  0  0  0  0  0
  149.7142  135.7999  181.4788 C   0  0  0  0  0  0  0  0  0  0  0  0
 33 34  1  0  0  0
 34  1  1  0  0  0
  1  2  1  0  0  0
  2  3  1  0  0  0
  3  4  1  0  0  0
  4  5  1  0  0  0
  5  6  1  0  0  0
  5  7  1  0  0  0
  7 36  1  0  0  0
 36 37  1  0  0  0
  5  8  1  0  0  0
  8  9  1  0  0  0
  9 10  2  0  0  0
 10 11  1  0  0  0
 11 12  2  0  0  0
 12 13  1  0  0  0
 13 14  2  0  0  0
 14 15  1  0  0  0
 15 16  2  0  0  0
 16 17  1  0  0  0
 17 18  1  0  0  0
 18 19  1  0  0  0
 19 20  2  0  0  0
 19 21  1  0  0  0
 21 22  2  0  0  0
 22 23  1  0  0  0
 23 24  2  0  0  0
 24 25  1  0  0  0
 25 26  2  0  0  0
 26 27  1  0  0  0
 27 28  2  0  0  0
 28 29  1  0  0  0
 29 30  1  0  0  0
 30 31  2  0  0  0
  7  1  1  0  0  0
 31  8  1  0  0  0
 29  3  1  0  0  0
 14  9  1  0  0  0
 31 15  1  0  0  0
 21 16  1  0  0  0
 30 22  1  0  0  0
 28 23  1  0  0  0
 34 35  1  0  0  0
 18 32  1  0  0  0
M  END
> <minimizedAffinity>
-4.56636

> <CNNscore>
0.3909642994

> <CNNaffinity>
5.4528136253

> <CNN_VS>
2.1318554878

> <CNNaffinity_variance>
0.2468531877

$$$$
[H]c1c([H])c([H])c2c(c1[H])c1c3c(c4c5c([H])c([H])c([H])c([H])c5n5c4c1n2[C@@]1(C([H])([H])[H])O[C@]5([H])C([H])([H])[C@@]([H])(N([H])C([H])([H])[H])[C@@]1([H])OC([H])([H])[H])C(=O)N([H])C3([H])[H]


 37 44  0  0  0  0  0  0  0  0999 V2000
  151.1293  133.7754  191.6293 C   0  0  0  0  0  0  0  0  0  0  0  0
  149.8714  134.0737  190.9422 C   0  0  0  0  0  0  0  0  0  0  0  0
  149.6317  135.5208  190.7664 C   0  0  0  0  0  0  0  0  0  0  0  0
  150.3092  136.4208  191.4266 O   0  0  0  0  0  0  0  0  0  0  0  0
  151.6523  136.2653  191.7590 C   0  0  0  0  0  0  0  0  0  0  0  0
  151.7840  137.2885  192.8949 C   0  0  0  0  0  0  0  0  0  0  0  0
  151.8837  134.9143  192.2556 C   0  0  0  0  0  0  0  0  0  0  0  0
  152.4545  136.6580  190.5871 N   0  0  0  0  0  0  0  0  0  0  0  0
  153.7020  137.1238  190.5710 C   0  0  0  0  0  0  0  0  0  0  0  0
  154.6230  137.3464  191.5566 C   0  0  0  0  0  0  0  0  0  0  0  0
  155.8769  137.8417  191.2767 C   0  0  0  0  0  0  0  0  0  0  0  0
  156.2619  138.1388  189.9656 C   0  0  0  0  0  0  0  0  0  0  0  0
  155.3496  137.9186  188.9823 C   0  0  0  0  0  0  0  0  0  0  0  0
  154.1053  137.4255  189.2730 C   0  0  0  0  0  0  0  0  0  0  0  0
  153.0417  137.1222  188.4648 C   0  0  0  0  0  0  0  0  0  0  0  0
  152.8309  137.2049  187.0867 C   0  0  0  0  0  0  0  0  0  0  0  0
  153.7367  137.6715  186.0121 C   0  0  0  0  0  0  0  0  0  0  0  0
  153.0255  137.5493  184.7826 N   0  0  0  0  0  0  0  0  0  0  0  0
  151.7240  137.0276  185.0700 C   0  0  0  0  0  0  0  0  0  0  0  0
  150.9059  136.8272  184.1701 O   0  0  0  0  0  0  0  0  0  0  0  0
  151.6244  136.8216  186.5027 C   0  0  0  0  0  0  0  0  0  0  0  0
  150.6441  136.3540  187.3486 C   0  0  0  0  0  0  0  0  0  0  0  0
  149.3578  135.8789  187.1682 C   0  0  0  0  0  0  0  0  0  0  0  0
  148.5783  135.7117  186.0581 C   0  0  0  0  0  0  0  0  0  0  0  0
  147.3028  135.2014  186.2007 C   0  0  0  0  0  0  0  0  0  0  0  0
  146.8152  134.8636  187.4373 C   0  0  0  0  0  0  0  0  0  0  0  0
  147.5894  135.0268  188.5649 C   0  0  0  0  0  0  0  0  0  0  0  0
  148.8504  135.5325  188.4135 C   0  0  0  0  0  0  0  0  0  0  0  0
  149.7730  135.7800  189.3194 N   0  0  0  0  0  0  0  0  0  0  0  0
  150.8661  136.2748  188.7345 C   0  0  0  0  0  0  0  0  0  0  0  0
  152.0710  136.6626  189.2954 C   0  0  0  0  0  0  0  0  0  0  0  0
  153.4130  137.8047  183.8439 H   0  0  0  0  0  0  0  0  0  0  0  0
  151.1739  132.3970  189.6652 C   0  0  0  0  0  0  0  0  0  0  0  0
  151.9921  133.0427  190.6749 N   0  0  0  0  0  0  0  0  0  0  0  0
  152.6162  133.6981  190.1576 H   0  0  0  0  0  0  0  0  0  0  0  0
  153.2064  134.4777  192.2643 O   0  0  0  0  0  0  0  0  0  0  0  0
  153.5076  133.6665  193.3515 C   0  0  0  0  0  0  0  0  0  0  0  0
 33 34  1  0  0  0
 34  1  1  0  0  0
  1  2  1  0  0  0
  2  3  1  0  0  0
  3  4  1  0  0  0
  4  5  1  0  0  0
  5  6  1  0  0  0
  5  7  1  0  0  0
  7 36  1  0  0  0
 36 37  1  0  0  0
  5  8  1  0  0  0
  8  9  1  0  0  0
  9 10  2  0  0  0
 10 11  1  0  0  0
 11 12  2  0  0  0
 12 13  1  0  0  0
 13 14  2  0  0  0
 14 15  1  0  0  0
 15 16  2  0  0  0
 16 17  1  0  0  0
 17 18  1  0  0  0
 18 19  1  0  0  0
 19 20  2  0  0  0
 19 21  1  0  0  0
 21 22  2  0  0  0
 22 23  1  0  0  0
 23 24  2  0  0  0
 24 25  1  0  0  0
 25 26  2  0  0  0
 26 27  1  0  0  0
 27 28  2  0  0  0
 28 29  1  0  0  0
 29 30  1  0  0  0
 30 31  2  0  0  0
  7  1  1  0  0  0
 31  8  1  0  0  0
 29  3  1  0  0  0
 14  9  1  0  0  0
 31 15  1  0  0  0
 21 16  1  0  0  0
 30 22  1  0  0  0
 28 23  1  0  0  0
 34 35  1  0  0  0
 18 32  1  0  0  0
M  END
> <minimizedAffinity>
-6.48123

> <CNNscore>
0.3873999715

> <CNNaffinity>
5.1826043129

> <CNN_VS>
2.0077407360

> <CNNaffinity_variance>
0.9549571872

$$$$
[H]c1c([H])c([H])c2c(c1[H])c1c3c(c4c5c([H])c([H])c([H])c([H])c5n5c4c1n2[C@@]1(C([H])([H])[H])O[C@]5([H])C([H])([H])[C@@]([H])(N([H])C([H])([H])[H])[C@@]1([H])OC([H])([H])[H])C(=O)N([H])C3([H])[H]


 37 44  0  0  0  0  0  0  0  0999 V2000
  155.0643  135.4784  190.2812 C   0  0  0  0  0  0  0  0  0  0  0  0
  154.3343  135.6346  191.5406 C   0  0  0  0  0  0  0  0  0  0  0  0
  153.3358  136.7229  191.5049 C   0  0  0  0  0  0  0  0  0  0  0  0
  153.3347  137.6320  190.5677 O   0  0  0  0  0  0  0  0  0  0  0  0
  153.6942  137.3623  189.2500 C   0  0  0  0  0  0  0  0  0  0  0  0
  154.0035  138.7778  188.7447 C   0  0  0  0  0  0  0  0  0  0  0  0
  154.8943  136.5350  189.2262 C   0  0  0  0  0  0  0  0  0  0  0  0
  152.5171  136.7947  188.5692 N   0  0  0  0  0  0  0  0  0  0  0  0
  152.2280  136.8339  187.2699 C   0  0  0  0  0  0  0  0  0  0  0  0
  152.8900  137.3398  186.1859 C   0  0  0  0  0  0  0  0  0  0  0  0
  152.3708  137.2493  184.9139 C   0  0  0  0  0  0  0  0  0  0  0  0
  151.1383  136.6326  184.6772 C   0  0  0  0  0  0  0  0  0  0  0  0
  150.4766  136.1277  185.7518 C   0  0  0  0  0  0  0  0  0  0  0  0
  151.0032  136.2237  187.0126 C   0  0  0  0  0  0  0  0  0  0  0  0
  150.5319  135.7924  188.2243 C   0  0  0  0  0  0  0  0  0  0  0  0
  149.3725  135.1205  188.6178 C   0  0  0  0  0  0  0  0  0  0  0  0
  148.2301  134.6401  187.8073 C   0  0  0  0  0  0  0  0  0  0  0  0
  147.3119  134.0197  188.7042 N   0  0  0  0  0  0  0  0  0  0  0  0
  147.8528  134.1060  190.0266 C   0  0  0  0  0  0  0  0  0  0  0  0
  147.2465  133.6405  190.9935 O   0  0  0  0  0  0  0  0  0  0  0  0
  149.1293  134.7914  189.9504 C   0  0  0  0  0  0  0  0  0  0  0  0
  150.0881  135.1588  190.8674 C   0  0  0  0  0  0  0  0  0  0  0  0
  150.2244  135.0095  192.2356 C   0  0  0  0  0  0  0  0  0  0  0  0
  149.4292  134.4397  193.1899 C   0  0  0  0  0  0  0  0  0  0  0  0
  149.8466  134.4453  194.5065 C   0  0  0  0  0  0  0  0  0  0  0  0
  151.0432  135.0134  194.8619 C   0  0  0  0  0  0  0  0  0  0  0  0
  151.8550  135.5914  193.9109 C   0  0  0  0  0  0  0  0  0  0  0  0
  151.4331  135.5809  192.6107 C   0  0  0  0  0  0  0  0  0  0  0  0
  152.0163  136.0602  191.5320 N   0  0  0  0  0  0  0  0  0  0  0  0
  151.2517  135.8351  190.4613 C   0  0  0  0  0  0  0  0  0  0  0  0
  151.4736  136.1549  189.1327 C   0  0  0  0  0  0  0  0  0  0  0  0
  146.4041  133.5833  188.4178 H   0  0  0  0  0  0  0  0  0  0  0  0
  154.2918  133.2688  190.8110 C   0  0  0  0  0  0  0  0  0  0  0  0
  154.7290  134.1425  189.7379 N   0  0  0  0  0  0  0  0  0  0  0  0
  153.9267  134.2004  189.0748 H   0  0  0  0  0  0  0  0  0  0  0  0
  155.1596  135.8658  188.0336 O   0  0  0  0  0  0  0  0  0  0  0  0
  156.3153  136.3093  187.4027 C   0  0  0  0  0  0  0  0  0  0  0  0
 33 34  1  0  0  0
 34  1  1  0  0  0
  1  2  1  0  0  0
  2  3  1  0  0  0
  3  4  1  0  0  0
  4  5  1  0  0  0
  5  6  1  0  0  0
  5  7  1  0  0  0
  7 36  1  0  0  0
 36 37  1  0  0  0
  5  8  1  0  0  0
  8  9  1  0  0  0
  9 10  2  0  0  0
 10 11  1  0  0  0
 11 12  2  0  0  0
 12 13  1  0  0  0
 13 14  2  0  0  0
 14 15  1  0  0  0
 15 16  2  0  0  0
 16 17  1  0  0  0
 17 18  1  0  0  0
 18 19  1  0  0  0
 19 20  2  0  0  0
 19 21  1  0  0  0
 21 22  2  0  0  0
 22 23  1  0  0  0
 23 24  2  0  0  0
 24 25  1  0  0  0
 25 26  2  0  0  0
 26 27  1  0  0  0
 27 28  2  0  0  0
 28 29  1  0  0  0
 29 30  1  0  0  0
 30 31  2  0  0  0
  7  1  1  0  0  0
 31  8  1  0  0  0
 29  3  1  0  0  0
 14  9  1  0  0  0
 31 15  1  0  0  0
 21 16  1  0  0  0
 30 22  1  0  0  0
 28 23  1  0  0  0
 34 35  1  0  0  0
 18 32  1  0  0  0
M  END
> <minimizedAffinity>
-6.57128

> <CNNscore>
0.3829299510

> <CNNaffinity>
5.5805754662

> <CNN_VS>
2.1369695663

> <CNNaffinity_variance>
0.2541295886

$$$$
[H]c1c([H])c([H])c2c(c1[H])c1c3c(c4c5c([H])c([H])c([H])c([H])c5n5c4c1n2[C@@]1(C([H])([H])[H])O[C@]5([H])C([H])([H])[C@@]([H])(N([H])C([H])([H])[H])[C@@]1([H])OC([H])([H])[H])C(=O)N([H])C3([H])[H]


 37 44  0  0  0  0  0  0  0  0999 V2000
  152.6602  136.9416  189.6454 C   0  0  0  0  0  0  0  0  0  0  0  0
  152.6640  137.4597  188.2761 C   0  0  0  0  0  0  0  0  0  0  0  0
  154.0182  137.7700  187.7736 C   0  0  0  0  0  0  0  0  0  0  0  0
  155.0479  137.8662  188.5705 O   0  0  0  0  0  0  0  0  0  0  0  0
  155.2034  137.0764  189.7065 C   0  0  0  0  0  0  0  0  0  0  0  0
  156.2272  137.9069  190.4918 C   0  0  0  0  0  0  0  0  0  0  0  0
  153.9403  137.0006  190.4305 C   0  0  0  0  0  0  0  0  0  0  0  0
  155.7718  135.7847  189.2827 N   0  0  0  0  0  0  0  0  0  0  0  0
  156.5108  134.9427  190.0025 C   0  0  0  0  0  0  0  0  0  0  0  0
  156.9363  134.9580  191.3017 C   0  0  0  0  0  0  0  0  0  0  0  0
  157.7061  133.9423  191.8230 C   0  0  0  0  0  0  0  0  0  0  0  0
  158.0862  132.8474  191.0406 C   0  0  0  0  0  0  0  0  0  0  0  0
  157.6651  132.8276  189.7484 C   0  0  0  0  0  0  0  0  0  0  0  0
  156.8995  133.8438  189.2411 C   0  0  0  0  0  0  0  0  0  0  0  0
  156.3624  134.0357  187.9956 C   0  0  0  0  0  0  0  0  0  0  0  0
  156.3975  133.2950  186.8121 C   0  0  0  0  0  0  0  0  0  0  0  0
  157.0613  132.0047  186.5169 C   0  0  0  0  0  0  0  0  0  0  0  0
  156.7820  131.6923  185.1542 N   0  0  0  0  0  0  0  0  0  0  0  0
  155.9757  132.7433  184.6119 C   0  0  0  0  0  0  0  0  0  0  0  0
  155.5952  132.7130  183.4399 O   0  0  0  0  0  0  0  0  0  0  0  0
  155.7493  133.7255  185.6554 C   0  0  0  0  0  0  0  0  0  0  0  0
  155.0681  134.9193  185.7311 C   0  0  0  0  0  0  0  0  0  0  0  0
  154.3114  135.6585  184.8400 C   0  0  0  0  0  0  0  0  0  0  0  0
  153.9724  135.4672  183.5300 C   0  0  0  0  0  0  0  0  0  0  0  0
  153.1834  136.4055  182.8938 C   0  0  0  0  0  0  0  0  0  0  0  0
  152.7404  137.5192  183.5603 C   0  0  0  0  0  0  0  0  0  0  0  0
  153.0742  137.7253  184.8808 C   0  0  0  0  0  0  0  0  0  0  0  0
  153.8555  136.7911  185.5016 C   0  0  0  0  0  0  0  0  0  0  0  0
  154.3058  136.7570  186.7383 N   0  0  0  0  0  0  0  0  0  0  0  0
  155.0389  135.6575  186.9271 C   0  0  0  0  0  0  0  0  0  0  0  0
  155.6911  135.2138  188.0648 C   0  0  0  0  0  0  0  0  0  0  0  0
  157.1213  130.8340  184.6595 H   0  0  0  0  0  0  0  0  0  0  0  0
  151.2065  135.4174  188.4949 C   0  0  0  0  0  0  0  0  0  0  0  0
  152.1464  135.5540  189.5922 N   0  0  0  0  0  0  0  0  0  0  0  0
  152.9155  134.8791  189.3924 H   0  0  0  0  0  0  0  0  0  0  0  0
  153.8180  135.9635  191.3523 O   0  0  0  0  0  0  0  0  0  0  0  0
  153.4246  136.3954  192.6129 C   0  0  0  0  0  0  0  0  0  0  0  0
 33 34  1  0  0  0
 34  1  1  0  0  0
  1  2  1  0  0  0
  2  3  1  0  0  0
  3  4  1  0  0  0
  4  5  1  0  0  0
  5  6  1  0  0  0
  5  7  1  0  0  0
  7 36  1  0  0  0
 36 37  1  0  0  0
  5  8  1  0  0  0
  8  9  1  0  0  0
  9 10  2  0  0  0
 10 11  1  0  0  0
 11 12  2  0  0  0
 12 13  1  0  0  0
 13 14  2  0  0  0
 14 15  1  0  0  0
 15 16  2  0  0  0
 16 17  1  0  0  0
 17 18  1  0  0  0
 18 19  1  0  0  0
 19 20  2  0  0  0
 19 21  1  0  0  0
 21 22  2  0  0  0
 22 23  1  0  0  0
 23 24  2  0  0  0
 24 25  1  0  0  0
 25 26  2  0  0  0
 26 27  1  0  0  0
 27 28  2  0  0  0
 28 29  1  0  0  0
 29 30  1  0  0  0
 30 31  2  0  0  0
  7  1  1  0  0  0
 31  8  1  0  0  0
 29  3  1  0  0  0
 14  9  1  0  0  0
 31 15  1  0  0  0
 21 16  1  0  0  0
 30 22  1  0  0  0
 28 23  1  0  0  0
 34 35  1  0  0  0
 18 32  1  0  0  0
M  END
> <minimizedAffinity>
-6.54632

> <CNNscore>
0.3815449178

> <CNNaffinity>
5.4932885170

> <CNN_VS>
2.0959362984

> <CNNaffinity_variance>
0.5275545716

$$$$
[H]c1c([H])c([H])c2c(c1[H])c1c3c(c4c5c([H])c([H])c([H])c([H])c5n5c4c1n2[C@@]1(C([H])([H])[H])O[C@]5([H])C([H])([H])[C@@]([H])(N([H])C([H])([H])[H])[C@@]1([H])OC([H])([H])[H])C(=O)N([H])C3([H])[H]


 37 44  0  0  0  0  0  0  0  0999 V2000
  156.1270  137.5594  188.5324 C   0  0  0  0  0  0  0  0  0  0  0  0
  156.5600  136.3723  187.7931 C   0  0  0  0  0  0  0  0  0  0  0  0
  156.3491  135.1131  188.5364 C   0  0  0  0  0  0  0  0  0  0  0  0
  156.1007  135.0981  189.8181 O   0  0  0  0  0  0  0  0  0  0  0  0
  155.3489  136.0813  190.4558 C   0  0  0  0  0  0  0  0  0  0  0  0
  155.7878  135.8748  191.9116 C   0  0  0  0  0  0  0  0  0  0  0  0
  155.7543  137.3980  189.9793 C   0  0  0  0  0  0  0  0  0  0  0  0
  153.9251  135.7492  190.2722 N   0  0  0  0  0  0  0  0  0  0  0  0
  152.9015  136.0833  191.0559 C   0  0  0  0  0  0  0  0  0  0  0  0
  152.8110  136.8296  192.1978 C   0  0  0  0  0  0  0  0  0  0  0  0
  151.6072  137.0368  192.8333 C   0  0  0  0  0  0  0  0  0  0  0  0
  150.4213  136.4895  192.3338 C   0  0  0  0  0  0  0  0  0  0  0  0
  150.5063  135.7471  191.1984 C   0  0  0  0  0  0  0  0  0  0  0  0
  151.7095  135.5480  190.5751 C   0  0  0  0  0  0  0  0  0  0  0  0
  152.0352  134.8560  189.4386 C   0  0  0  0  0  0  0  0  0  0  0  0
  151.2885  134.1125  188.5220 C   0  0  0  0  0  0  0  0  0  0  0  0
  149.8366  133.8232  188.4902 C   0  0  0  0  0  0  0  0  0  0  0  0
  149.5953  133.0175  187.3390 N   0  0  0  0  0  0  0  0  0  0  0  0
  150.8443  132.8066  186.6725 C   0  0  0  0  0  0  0  0  0  0  0  0
  150.9094  132.1356  185.6406 O   0  0  0  0  0  0  0  0  0  0  0  0
  151.8797  133.4933  187.4218 C   0  0  0  0  0  0  0  0  0  0  0  0
  153.2398  133.6484  187.2765 C   0  0  0  0  0  0  0  0  0  0  0  0
  154.1674  133.2190  186.3447 C   0  0  0  0  0  0  0  0  0  0  0  0
  154.0623  132.4582  185.2143 C   0  0  0  0  0  0  0  0  0  0  0  0
  155.1965  132.1935  184.4720 C   0  0  0  0  0  0  0  0  0  0  0  0
  156.4183  132.6837  184.8565 C   0  0  0  0  0  0  0  0  0  0  0  0
  156.5394  133.4519  185.9936 C   0  0  0  0  0  0  0  0  0  0  0  0
  155.4111  133.7083  186.7215 C   0  0  0  0  0  0  0  0  0  0  0  0
  155.2635  134.4045  187.8291 N   0  0  0  0  0  0  0  0  0  0  0  0
  153.9825  134.3987  188.2047 C   0  0  0  0  0  0  0  0  0  0  0  0
  153.3769  135.0042  189.2924 C   0  0  0  0  0  0  0  0  0  0  0  0
  148.6552  132.6555  187.0533 H   0  0  0  0  0  0  0  0  0  0  0  0
  155.1942  137.9352  186.3533 C   0  0  0  0  0  0  0  0  0  0  0  0
  155.0126  138.1713  187.7736 N   0  0  0  0  0  0  0  0  0  0  0  0
  154.1036  137.7250  188.0212 H   0  0  0  0  0  0  0  0  0  0  0  0
  154.8627  138.4418  190.2158 O   0  0  0  0  0  0  0  0  0  0  0  0
  155.2014  139.2106  191.3225 C   0  0  0  0  0  0  0  0  0  0  0  0
 33 34  1  0  0  0
 34  1  1  0  0  0
  1  2  1  0  0  0
  2  3  1  0  0  0
  3  4  1  0  0  0
  4  5  1  0  0  0
  5  6  1  0  0  0
  5  7  1  0  0  0
  7 36  1  0  0  0
 36 37  1  0  0  0
  5  8  1  0  0  0
  8  9  1  0  0  0
  9 10  2  0  0  0
 10 11  1  0  0  0
 11 12  2  0  0  0
 12 13  1  0  0  0
 13 14  2  0  0  0
 14 15  1  0  0  0
 15 16  2  0  0  0
 16 17  1  0  0  0
 17 18  1  0  0  0
 18 19  1  0  0  0
 19 20  2  0  0  0
 19 21  1  0  0  0
 21 22  2  0  0  0
 22 23  1  0  0  0
 23 24  2  0  0  0
 24 25  1  0  0  0
 25 26  2  0  0  0
 26 27  1  0  0  0
 27 28  2  0  0  0
 28 29  1  0  0  0
 29 30  1  0  0  0
 30 31  2  0  0  0
  7  1  1  0  0  0
 31  8  1  0  0  0
 29  3  1  0  0  0
 14  9  1  0  0  0
 31 15  1  0  0  0
 21 16  1  0  0  0
 30 22  1  0  0  0
 28 23  1  0  0  0
 34 35  1  0  0  0
 18 32  1  0  0  0
M  END
> <minimizedAffinity>
-6.12197

> <CNNscore>
0.3754363358

> <CNNaffinity>
5.5581469536

> <CNN_VS>
2.0867302418

> <CNNaffinity_variance>
0.2899683416

$$$$
[H]c1c([H])c([H])c2c(c1[H])c1c3c(c4c5c([H])c([H])c([H])c([H])c5n5c4c1n2[C@@]1(C([H])([H])[H])O[C@]5([H])C([H])([H])[C@@]([H])(N([H])C([H])([H])[H])[C@@]1([H])OC([H])([H])[H])C(=O)N([H])C3([H])[H]


 37 44  0  0  0  0  0  0  0  0999 V2000
  155.5625  137.2616  188.0164 C   0  0  0  0  0  0  0  0  0  0  0  0
  155.3045  136.3641  186.8889 C   0  0  0  0  0  0  0  0  0  0  0  0
  154.7977  135.0393  187.3019 C   0  0  0  0  0  0  0  0  0  0  0  0
  154.8751  134.6217  188.5366 O   0  0  0  0  0  0  0  0  0  0  0  0
  154.7456  135.4701  189.6330 C   0  0  0  0  0  0  0  0  0  0  0  0
  155.3993  134.6187  190.7295 C   0  0  0  0  0  0  0  0  0  0  0  0
  155.5110  136.6897  189.4053 C   0  0  0  0  0  0  0  0  0  0  0  0
  153.3068  135.6606  189.8875 N   0  0  0  0  0  0  0  0  0  0  0  0
  152.7150  135.9617  191.0418 C   0  0  0  0  0  0  0  0  0  0  0  0
  153.1992  136.2211  192.2938 C   0  0  0  0  0  0  0  0  0  0  0  0
  152.3623  136.5180  193.3461 C   0  0  0  0  0  0  0  0  0  0  0  0
  150.9751  136.5670  193.1763 C   0  0  0  0  0  0  0  0  0  0  0  0
  150.4891  136.3102  191.9332 C   0  0  0  0  0  0  0  0  0  0  0  0
  151.3316  136.0161  190.8941 C   0  0  0  0  0  0  0  0  0  0  0  0
  151.0790  135.7339  189.5776 C   0  0  0  0  0  0  0  0  0  0  0  0
  149.9058  135.6372  188.8261 C   0  0  0  0  0  0  0  0  0  0  0  0
  148.4948  135.8170  189.2379 C   0  0  0  0  0  0  0  0  0  0  0  0
  147.6905  135.6055  188.0801 N   0  0  0  0  0  0  0  0  0  0  0  0
  148.5587  135.3036  186.9828 C   0  0  0  0  0  0  0  0  0  0  0  0
  148.1077  135.0771  185.8584 O   0  0  0  0  0  0  0  0  0  0  0  0
  149.9263  135.3285  187.4668 C   0  0  0  0  0  0  0  0  0  0  0  0
  151.1608  135.1230  186.8935 C   0  0  0  0  0  0  0  0  0  0  0  0
  151.5948  134.8208  185.6155 C   0  0  0  0  0  0  0  0  0  0  0  0
  150.9339  134.6014  184.4395 C   0  0  0  0  0  0  0  0  0  0  0  0
  151.6611  134.3138  183.3011 C   0  0  0  0  0  0  0  0  0  0  0  0
  153.0303  134.2469  183.3401 C   0  0  0  0  0  0  0  0  0  0  0  0
  153.7099  134.4657  184.5182 C   0  0  0  0  0  0  0  0  0  0  0  0
  152.9813  134.7496  185.6394 C   0  0  0  0  0  0  0  0  0  0  0  0
  153.3868  134.9943  186.8678 N   0  0  0  0  0  0  0  0  0  0  0  0
  152.3360  135.2226  187.6586 C   0  0  0  0  0  0  0  0  0  0  0  0
  152.2943  135.5281  189.0083 C   0  0  0  0  0  0  0  0  0  0  0  0
  146.6452  135.6666  188.0631 H   0  0  0  0  0  0  0  0  0  0  0  0
  154.0689  138.4420  186.5550 C   0  0  0  0  0  0  0  0  0  0  0  0
  154.6337  138.4078  187.8914 N   0  0  0  0  0  0  0  0  0  0  0  0
  153.8235  138.3035  188.5390 H   0  0  0  0  0  0  0  0  0  0  0  0
  155.1861  137.7815  190.2071 O   0  0  0  0  0  0  0  0  0  0  0  0
  156.1864  138.1120  191.1130 C   0  0  0  0  0  0  0  0  0  0  0  0
 33 34  1  0  0  0
 34  1  1  0  0  0
  1  2  1  0  0  0
  2  3  1  0  0  0
  3  4  1  0  0  0
  4  5  1  0  0  0
  5  6  1  0  0  0
  5  7  1  0  0  0
  7 36  1  0  0  0
 36 37  1  0  0  0
  5  8  1  0  0  0
  8  9  1  0  0  0
  9 10  2  0  0  0
 10 11  1  0  0  0
 11 12  2  0  0  0
 12 13  1  0  0  0
 13 14  2  0  0  0
 14 15  1  0  0  0
 15 16  2  0  0  0
 16 17  1  0  0  0
 17 18  1  0  0  0
 18 19  1  0  0  0
 19 20  2  0  0  0
 19 21  1  0  0  0
 21 22  2  0  0  0
 22 23  1  0  0  0
 23 24  2  0  0  0
 24 25  1  0  0  0
 25 26  2  0  0  0
 26 27  1  0  0  0
 27 28  2  0  0  0
 28 29  1  0  0  0
 29 30  1  0  0  0
 30 31  2  0  0  0
  7  1  1  0  0  0
 31  8  1  0  0  0
 29  3  1  0  0  0
 14  9  1  0  0  0
 31 15  1  0  0  0
 21 16  1  0  0  0
 30 22  1  0  0  0
 28 23  1  0  0  0
 34 35  1  0  0  0
 18 32  1  0  0  0
M  END
> <minimizedAffinity>
-6.04046

> <CNNscore>
0.3742502928

> <CNNaffinity>
5.7383918762

> <CNN_VS>
2.1475949287

> <CNNaffinity_variance>
0.1378102005

$$$$
[H]C(=O)C1=N[C@]([H])(N([H])C(=O)c2c([H])c([H])c([H])c3c2C([H])([H])C([H])([H])C([H])([H])C3([H])[H])C(=O)N(C([H])([H])[H])c2c([H])c([H])c([H])c([H])c21


 29 32  0  0  0  0  0  0  0  0999 V2000
  155.0697  138.8136  190.7971 C   0  0  0  0  0  0  0  0  0  0  0  0
  155.2960  137.7451  189.8517 N   0  0  0  0  0  0  0  0  0  0  0  0
  156.0594  136.6211  190.3008 C   0  0  0  0  0  0  0  0  0  0  0  0
  156.0001  136.4952  191.6792 C   0  0  0  0  0  0  0  0  0  0  0  0
  156.6418  135.4584  192.3001 C   0  0  0  0  0  0  0  0  0  0  0  0
  157.3358  134.5622  191.5154 C   0  0  0  0  0  0  0  0  0  0  0  0
  157.4078  134.6733  190.1271 C   0  0  0  0  0  0  0  0  0  0  0  0
  156.7623  135.7182  189.5096 C   0  0  0  0  0  0  0  0  0  0  0  0
  156.9524  135.7373  188.0487 C   0  0  0  0  0  0  0  0  0  0  0  0
  156.2428  136.4240  187.2546 N   0  0  0  0  0  0  0  0  0  0  0  0
  155.1604  137.3291  187.2532 C   0  0  0  0  0  0  0  0  0  0  0  0
  154.7413  137.8670  188.5482 C   0  0  0  0  0  0  0  0  0  0  0  0
  153.6823  138.5767  188.5009 O   0  0  0  0  0  0  0  0  0  0  0  0
  155.5171  138.4973  186.4459 N   0  0  0  0  0  0  0  0  0  0  0  0
  155.0229  138.6318  185.1467 C   0  0  0  0  0  0  0  0  0  0  0  0
  154.2594  137.6964  184.6715 O   0  0  0  0  0  0  0  0  0  0  0  0
  156.1538  139.1905  186.8571 H   0  0  0  0  0  0  0  0  0  0  0  0
  155.2446  139.6942  184.2009 C   0  0  0  0  0  0  0  0  0  0  0  0
  154.1622  140.1315  183.4115 C   0  0  0  0  0  0  0  0  0  0  0  0
  154.2962  141.0635  182.4108 C   0  0  0  0  0  0  0  0  0  0  0  0
  155.5549  141.5913  182.1734 C   0  0  0  0  0  0  0  0  0  0  0  0
  156.6340  141.1891  182.9253 C   0  0  0  0  0  0  0  0  0  0  0  0
  158.0204  141.6698  182.7496 C   0  0  0  0  0  0  0  0  0  0  0  0
  158.9138  140.4349  182.6404 C   0  0  0  0  0  0  0  0  0  0  0  0
  158.6984  139.4467  183.7505 C   0  0  0  0  0  0  0  0  0  0  0  0
  157.6513  139.9501  184.7454 C   0  0  0  0  0  0  0  0  0  0  0  0
  156.4486  140.2288  183.9472 C   0  0  0  0  0  0  0  0  0  0  0  0
  158.0284  134.9398  187.5322 C   0  0  0  0  0  0  0  0  0  0  0  0
  157.6764  133.8871  186.8741 O   0  0  0  0  0  0  0  0  0  0  0  0
  1  2  1  0  0  0
  2  3  1  0  0  0
  3  4  2  0  0  0
  4  5  1  0  0  0
  5  6  2  0  0  0
  6  7  1  0  0  0
  7  8  2  0  0  0
  8  9  1  0  0  0
  9 10  2  0  0  0
 10 11  1  0  0  0
 11 14  1  0  0  0
 14 15  1  0  0  0
 15 16  2  0  0  0
 15 18  1  0  0  0
 18 19  2  0  0  0
 19 20  1  0  0  0
 20 21  2  0  0  0
 21 22  1  0  0  0
 22 23  1  0  0  0
 23 24  1  0  0  0
 24 25  1  0  0  0
 25 26  1  0  0  0
 26 27  1  0  0  0
 11 12  1  0  0  0
 12 13  2  0  0  0
  9 28  1  0  0  0
 28 29  2  0  0  0
 12  2  1  0  0  0
  8  3  1  0  0  0
 27 18  1  0  0  0
 27 22  2  0  0  0
 14 17  1  0  0  0
M  END
> <minimizedAffinity>
-8.71571

> <CNNscore>
0.4916833639

> <CNNaffinity>
5.7584700584

> <CNN_VS>
2.8313438892

> <CNNaffinity_variance>
0.0913042575

$$$$
[H]C(=O)C1=N[C@]([H])(N([H])C(=O)c2c([H])c([H])c([H])c3c2C([H])([H])C([H])([H])C([H])([H])C3([H])[H])C(=O)N(C([H])([H])[H])c2c([H])c([H])c([H])c([H])c21


 29 32  0  0  0  0  0  0  0  0999 V2000
  155.0462  138.8121  190.3422 C   0  0  0  0  0  0  0  0  0  0  0  0
  155.1029  137.6062  189.5490 N   0  0  0  0  0  0  0  0  0  0  0  0
  155.9046  136.5300  190.0459 C   0  0  0  0  0  0  0  0  0  0  0  0
  156.0567  136.6132  191.4204 C   0  0  0  0  0  0  0  0  0  0  0  0
  156.7664  135.6539  192.0900 C   0  0  0  0  0  0  0  0  0  0  0  0
  157.3133  134.6222  191.3572 C   0  0  0  0  0  0  0  0  0  0  0  0
  157.1719  134.5223  189.9734 C   0  0  0  0  0  0  0  0  0  0  0  0
  156.4591  135.4902  189.3065 C   0  0  0  0  0  0  0  0  0  0  0  0
  156.4214  135.2837  187.8481 C   0  0  0  0  0  0  0  0  0  0  0  0
  155.6111  135.8742  187.0734 N   0  0  0  0  0  0  0  0  0  0  0  0
  154.5593  136.8143  187.0952 C   0  0  0  0  0  0  0  0  0  0  0  0
  154.3559  137.5563  188.3402 C   0  0  0  0  0  0  0  0  0  0  0  0
  153.3162  138.2956  188.3438 O   0  0  0  0  0  0  0  0  0  0  0  0
  154.8094  137.8331  186.0739 N   0  0  0  0  0  0  0  0  0  0  0  0
  153.8011  138.1920  185.1768 C   0  0  0  0  0  0  0  0  0  0  0  0
  152.6525  137.5943  185.2602 O   0  0  0  0  0  0  0  0  0  0  0  0
  155.7474  138.2491  186.0285 H   0  0  0  0  0  0  0  0  0  0  0  0
  153.8397  139.1640  184.1154 C   0  0  0  0  0  0  0  0  0  0  0  0
  154.5367  140.3698  184.3301 C   0  0  0  0  0  0  0  0  0  0  0  0
  154.5435  141.4004  183.4212 C   0  0  0  0  0  0  0  0  0  0  0  0
  153.8303  141.2390  182.2447 C   0  0  0  0  0  0  0  0  0  0  0  0
  153.1395  140.0749  182.0007 C   0  0  0  0  0  0  0  0  0  0  0  0
  152.3336  139.8006  180.7927 C   0  0  0  0  0  0  0  0  0  0  0  0
  150.9582  139.3330  181.2668 C   0  0  0  0  0  0  0  0  0  0  0  0
  151.0242  138.2234  182.2766 C   0  0  0  0  0  0  0  0  0  0  0  0
  152.4709  137.8095  182.5516 C   0  0  0  0  0  0  0  0  0  0  0  0
  153.1630  139.0392  182.9639 C   0  0  0  0  0  0  0  0  0  0  0  0
  157.3891  134.3730  187.3050 C   0  0  0  0  0  0  0  0  0  0  0  0
  156.9076  133.3889  186.6230 O   0  0  0  0  0  0  0  0  0  0  0  0
  1  2  1  0  0  0
  2  3  1  0  0  0
  3  4  2  0  0  0
  4  5  1  0  0  0
  5  6  2  0  0  0
  6  7  1  0  0  0
  7  8  2  0  0  0
  8  9  1  0  0  0
  9 10  2  0  0  0
 10 11  1  0  0  0
 11 14  1  0  0  0
 14 15  1  0  0  0
 15 16  2  0  0  0
 15 18  1  0  0  0
 18 19  2  0  0  0
 19 20  1  0  0  0
 20 21  2  0  0  0
 21 22  1  0  0  0
 22 23  1  0  0  0
 23 24  1  0  0  0
 24 25  1  0  0  0
 25 26  1  0  0  0
 26 27  1  0  0  0
 11 12  1  0  0  0
 12 13  2  0  0  0
  9 28  1  0  0  0
 28 29  2  0  0  0
 12  2  1  0  0  0
  8  3  1  0  0  0
 27 18  1  0  0  0
 27 22  2  0  0  0
 14 17  1  0  0  0
M  END
> <minimizedAffinity>
-7.96974

> <CNNscore>
0.4472589493

> <CNNaffinity>
5.4350228310

> <CNN_VS>
2.4308626652

> <CNNaffinity_variance>
0.1179010645

$$$$
[H]C(=O)C1=N[C@]([H])(N([H])C(=O)c2c([H])c([H])c([H])c3c2C([H])([H])C([H])([H])C([H])([H])C3([H])[H])C(=O)N(C([H])([H])[H])c2c([H])c([H])c([H])c([H])c21


 29 32  0  0  0  0  0  0  0  0999 V2000
  154.3364  138.1637  186.8858 C   0  0  0  0  0  0  0  0  0  0  0  0
  154.7058  136.9341  187.5479 N   0  0  0  0  0  0  0  0  0  0  0  0
  155.2929  137.0390  188.8487 C   0  0  0  0  0  0  0  0  0  0  0  0
  154.9290  138.2240  189.4672 C   0  0  0  0  0  0  0  0  0  0  0  0
  155.3646  138.4962  190.7355 C   0  0  0  0  0  0  0  0  0  0  0  0
  156.1642  137.5633  191.3606 C   0  0  0  0  0  0  0  0  0  0  0  0
  156.5418  136.3657  190.7538 C   0  0  0  0  0  0  0  0  0  0  0  0
  156.1021  136.0991  189.4789 C   0  0  0  0  0  0  0  0  0  0  0  0
  156.6058  134.8215  188.9453 C   0  0  0  0  0  0  0  0  0  0  0  0
  156.1231  134.2442  187.9258 N   0  0  0  0  0  0  0  0  0  0  0  0
  155.1163  134.4008  186.9498 C   0  0  0  0  0  0  0  0  0  0  0  0
  154.4549  135.7045  186.8795 C   0  0  0  0  0  0  0  0  0  0  0  0
  153.4705  135.7477  186.0692 O   0  0  0  0  0  0  0  0  0  0  0  0
  155.7011  134.1914  185.6240 N   0  0  0  0  0  0  0  0  0  0  0  0
  155.5610  132.9601  184.9800 C   0  0  0  0  0  0  0  0  0  0  0  0
  154.9191  132.0100  185.5872 O   0  0  0  0  0  0  0  0  0  0  0  0
  156.2302  134.9649  185.2036 H   0  0  0  0  0  0  0  0  0  0  0  0
  156.0481  132.5560  183.6870 C   0  0  0  0  0  0  0  0  0  0  0  0
  157.3442  132.0104  183.5948 C   0  0  0  0  0  0  0  0  0  0  0  0
  157.9372  131.6928  182.3966 C   0  0  0  0  0  0  0  0  0  0  0  0
  157.2227  131.9231  181.2323 C   0  0  0  0  0  0  0  0  0  0  0  0
  155.9545  132.4529  181.2843 C   0  0  0  0  0  0  0  0  0  0  0  0
  155.1097  132.7556  180.1102 C   0  0  0  0  0  0  0  0  0  0  0  0
  154.6319  134.1993  180.2605 C   0  0  0  0  0  0  0  0  0  0  0  0
  154.0177  134.4845  181.6010 C   0  0  0  0  0  0  0  0  0  0  0  0
  153.9905  133.2304  182.4764 C   0  0  0  0  0  0  0  0  0  0  0  0
  155.3826  132.7621  182.5406 C   0  0  0  0  0  0  0  0  0  0  0  0
  157.7247  134.2381  189.6297 C   0  0  0  0  0  0  0  0  0  0  0  0
  158.8500  134.2848  188.9998 O   0  0  0  0  0  0  0  0  0  0  0  0
  1  2  1  0  0  0
  2  3  1  0  0  0
  3  4  2  0  0  0
  4  5  1  0  0  0
  5  6  2  0  0  0
  6  7  1  0  0  0
  7  8  2  0  0  0
  8  9  1  0  0  0
  9 10  2  0  0  0
 10 11  1  0  0  0
 11 14  1  0  0  0
 14 15  1  0  0  0
 15 16  2  0  0  0
 15 18  1  0  0  0
 18 19  2  0  0  0
 19 20  1  0  0  0
 20 21  2  0  0  0
 21 22  1  0  0  0
 22 23  1  0  0  0
 23 24  1  0  0  0
 24 25  1  0  0  0
 25 26  1  0  0  0
 26 27  1  0  0  0
 11 12  1  0  0  0
 12 13  2  0  0  0
  9 28  1  0  0  0
 28 29  2  0  0  0
 12  2  1  0  0  0
  8  3  1  0  0  0
 27 18  1  0  0  0
 27 22  2  0  0  0
 14 17  1  0  0  0
M  END
> <minimizedAffinity>
-5.94961

> <CNNscore>
0.4014098048

> <CNNaffinity>
5.1419515610

> <CNN_VS>
2.0640296936

> <CNNaffinity_variance>
0.1076494679

$$$$
[H]C(=O)C1=N[C@]([H])(N([H])C(=O)c2c([H])c([H])c([H])c3c2C([H])([H])C([H])([H])C([H])([H])C3([H])[H])C(=O)N(C([H])([H])[H])c2c([H])c([H])c([H])c([H])c21


 29 32  0  0  0  0  0  0  0  0999 V2000
  153.9479  136.8664  184.1476 C   0  0  0  0  0  0  0  0  0  0  0  0
  153.2092  137.8621  183.4063 N   0  0  0  0  0  0  0  0  0  0  0  0
  152.1591  137.3998  182.5512 C   0  0  0  0  0  0  0  0  0  0  0  0
  151.6807  136.1683  182.9681 C   0  0  0  0  0  0  0  0  0  0  0  0
  150.6488  135.5715  182.2962 C   0  0  0  0  0  0  0  0  0  0  0  0
  150.1151  136.2311  181.2096 C   0  0  0  0  0  0  0  0  0  0  0  0
  150.5841  137.4703  180.7745 C   0  0  0  0  0  0  0  0  0  0  0  0
  151.6221  138.0637  181.4529 C   0  0  0  0  0  0  0  0  0  0  0  0
  152.0425  139.3476  180.8651 C   0  0  0  0  0  0  0  0  0  0  0  0
  152.7730  140.1917  181.4647 N   0  0  0  0  0  0  0  0  0  0  0  0
  153.4461  140.3867  182.6893 C   0  0  0  0  0  0  0  0  0  0  0  0
  153.5579  139.2298  183.5787 C   0  0  0  0  0  0  0  0  0  0  0  0
  154.0606  139.4956  184.7206 O   0  0  0  0  0  0  0  0  0  0  0  0
  154.8240  140.7989  182.4153 N   0  0  0  0  0  0  0  0  0  0  0  0
  155.3194  141.9927  182.9443 C   0  0  0  0  0  0  0  0  0  0  0  0
  154.5303  142.7286  183.6650 O   0  0  0  0  0  0  0  0  0  0  0  0
  155.3949  140.1975  181.8091 H   0  0  0  0  0  0  0  0  0  0  0  0
  156.6312  142.5686  182.8021 C   0  0  0  0  0  0  0  0  0  0  0  0
  156.8349  143.5448  181.8064 C   0  0  0  0  0  0  0  0  0  0  0  0
  158.0701  144.0762  181.5233 C   0  0  0  0  0  0  0  0  0  0  0  0
  159.1582  143.6263  182.2532 C   0  0  0  0  0  0  0  0  0  0  0  0
  158.9964  142.6755  183.2338 C   0  0  0  0  0  0  0  0  0  0  0  0
  160.0840  142.1113  184.0601 C   0  0  0  0  0  0  0  0  0  0  0  0
  159.9721  140.5898  183.9724 C   0  0  0  0  0  0  0  0  0  0  0  0
  158.5914  140.0785  184.2683 C   0  0  0  0  0  0  0  0  0  0  0  0
  157.6410  141.2228  184.6250 C   0  0  0  0  0  0  0  0  0  0  0  0
  157.7055  142.1584  183.4928 C   0  0  0  0  0  0  0  0  0  0  0  0
  151.6015  139.6136  179.5252 C   0  0  0  0  0  0  0  0  0  0  0  0
  150.8885  140.6785  179.3737 O   0  0  0  0  0  0  0  0  0  0  0  0
  1  2  1  0  0  0
  2  3  1  0  0  0
  3  4  2  0  0  0
  4  5  1  0  0  0
  5  6  2  0  0  0
  6  7  1  0  0  0
  7  8  2  0  0  0
  8  9  1  0  0  0
  9 10  2  0  0  0
 10 11  1  0  0  0
 11 14  1  0  0  0
 14 15  1  0  0  0
 15 16  2  0  0  0
 15 18  1  0  0  0
 18 19  2  0  0  0
 19 20  1  0  0  0
 20 21  2  0  0  0
 21 22  1  0  0  0
 22 23  1  0  0  0
 23 24  1  0  0  0
 24 25  1  0  0  0
 25 26  1  0  0  0
 26 27  1  0  0  0
 11 12  1  0  0  0
 12 13  2  0  0  0
  9 28  1  0  0  0
 28 29  2  0  0  0
 12  2  1  0  0  0
  8  3  1  0  0  0
 27 18  1  0  0  0
 27 22  2  0  0  0
 14 17  1  0  0  0
M  END
> <minimizedAffinity>
-8.54578

> <CNNscore>
0.3847368956

> <CNNaffinity>
5.9725236893

> <CNN_VS>
2.2978501320

> <CNNaffinity_variance>
0.0856892094

$$$$
[H]C(=O)C1=N[C@]([H])(N([H])C(=O)c2c([H])c([H])c([H])c3c2C([H])([H])C([H])([H])C([H])([H])C3([H])[H])C(=O)N(C([H])([H])[H])c2c([H])c([H])c([H])c([H])c21


 29 32  0  0  0  0  0  0  0  0999 V2000
  154.2261  141.4311  182.8948 C   0  0  0  0  0  0  0  0  0  0  0  0
  153.8912  140.0319  183.0237 N   0  0  0  0  0  0  0  0  0  0  0  0
  152.7997  139.5424  182.2383 C   0  0  0  0  0  0  0  0  0  0  0  0
  152.5951  140.3330  181.1192 C   0  0  0  0  0  0  0  0  0  0  0  0
  151.6135  140.0093  180.2225 C   0  0  0  0  0  0  0  0  0  0  0  0
  150.8514  138.8879  180.4721 C   0  0  0  0  0  0  0  0  0  0  0  0
  151.0417  138.0809  181.5934 C   0  0  0  0  0  0  0  0  0  0  0  0
  152.0285  138.4125  182.4913 C   0  0  0  0  0  0  0  0  0  0  0  0
  152.0947  137.4999  183.6461 C   0  0  0  0  0  0  0  0  0  0  0  0
  153.0790  137.4402  184.4417 N   0  0  0  0  0  0  0  0  0  0  0  0
  154.3433  138.0238  184.6690 C   0  0  0  0  0  0  0  0  0  0  0  0
  154.6666  139.2296  183.9051 C   0  0  0  0  0  0  0  0  0  0  0  0
  155.8658  139.6377  184.0562 O   0  0  0  0  0  0  0  0  0  0  0  0
  154.4397  138.4193  186.0754 N   0  0  0  0  0  0  0  0  0  0  0  0
  154.9406  137.5256  187.0246 C   0  0  0  0  0  0  0  0  0  0  0  0
  155.3005  136.3414  186.6350 O   0  0  0  0  0  0  0  0  0  0  0  0
  154.1075  139.3556  186.3361 H   0  0  0  0  0  0  0  0  0  0  0  0
  155.1222  137.7181  188.4397 C   0  0  0  0  0  0  0  0  0  0  0  0
  156.4004  138.0759  188.9131 C   0  0  0  0  0  0  0  0  0  0  0  0
  156.6994  138.1796  190.2503 C   0  0  0  0  0  0  0  0  0  0  0  0
  155.6941  137.9185  191.1670 C   0  0  0  0  0  0  0  0  0  0  0  0
  154.4342  137.5681  190.7410 C   0  0  0  0  0  0  0  0  0  0  0  0
  153.2938  137.2515  191.6261 C   0  0  0  0  0  0  0  0  0  0  0  0
  152.7283  135.9081  191.1672 C   0  0  0  0  0  0  0  0  0  0  0  0
  152.4483  135.8547  189.6927 C   0  0  0  0  0  0  0  0  0  0  0  0
  152.7686  137.1900  189.0189 C   0  0  0  0  0  0  0  0  0  0  0  0
  154.1711  137.4763  189.3542 C   0  0  0  0  0  0  0  0  0  0  0  0
  150.9500  136.6622  183.8669 C   0  0  0  0  0  0  0  0  0  0  0  0
  150.2247  136.9671  184.8898 O   0  0  0  0  0  0  0  0  0  0  0  0
  1  2  1  0  0  0
  2  3  1  0  0  0
  3  4  2  0  0  0
  4  5  1  0  0  0
  5  6  2  0  0  0
  6  7  1  0  0  0
  7  8  2  0  0  0
  8  9  1  0  0  0
  9 10  2  0  0  0
 10 11  1  0  0  0
 11 14  1  0  0  0
 14 15  1  0  0  0
 15 16  2  0  0  0
 15 18  1  0  0  0
 18 19  2  0  0  0
 19 20  1  0  0  0
 20 21  2  0  0  0
 21 22  1  0  0  0
 22 23  1  0  0  0
 23 24  1  0  0  0
 24 25  1  0  0  0
 25 26  1  0  0  0
 26 27  1  0  0  0
 11 12  1  0  0  0
 12 13  2  0  0  0
  9 28  1  0  0  0
 28 29  2  0  0  0
 12  2  1  0  0  0
  8  3  1  0  0  0
 27 18  1  0  0  0
 27 22  2  0  0  0
 14 17  1  0  0  0
M  END
> <minimizedAffinity>
-8.28932

> <CNNscore>
0.3728921115

> <CNNaffinity>
5.3652091026

> <CNN_VS>
2.0006442070

> <CNNaffinity_variance>
0.1281284988

$$$$
[H]C(=O)C1=N[C@]([H])(N([H])C(=O)c2c([H])c([H])c([H])c3c2C([H])([H])C([H])([H])C([H])([H])C3([H])[H])C(=O)N(C([H])([H])[H])c2c([H])c([H])c([H])c([H])c21


 29 32  0  0  0  0  0  0  0  0999 V2000
  153.9770  139.9497  183.2092 C   0  0  0  0  0  0  0  0  0  0  0  0
  153.0131  138.8790  183.1033 N   0  0  0  0  0  0  0  0  0  0  0  0
  152.0242  138.9844  182.0744 C   0  0  0  0  0  0  0  0  0  0  0  0
  152.4631  139.7955  181.0405 C   0  0  0  0  0  0  0  0  0  0  0  0
  151.6700  139.9960  179.9436 C   0  0  0  0  0  0  0  0  0  0  0  0
  150.4414  139.3715  179.9090 C   0  0  0  0  0  0  0  0  0  0  0  0
  149.9821  138.5527  180.9403 C   0  0  0  0  0  0  0  0  0  0  0  0
  150.7831  138.3568  182.0403 C   0  0  0  0  0  0  0  0  0  0  0  0
  150.1610  137.5041  183.0683 C   0  0  0  0  0  0  0  0  0  0  0  0
  150.8015  136.9675  184.0208 N   0  0  0  0  0  0  0  0  0  0  0  0
  152.1061  136.8715  184.5494 C   0  0  0  0  0  0  0  0  0  0  0  0
  153.1114  137.7886  184.0106 C   0  0  0  0  0  0  0  0  0  0  0  0
  154.2959  137.5710  184.4315 O   0  0  0  0  0  0  0  0  0  0  0  0
  152.0597  137.1487  185.9863 N   0  0  0  0  0  0  0  0  0  0  0  0
  152.2581  136.1185  186.9081 C   0  0  0  0  0  0  0  0  0  0  0  0
  152.4669  134.9176  186.4635 O   0  0  0  0  0  0  0  0  0  0  0  0
  151.8551  138.1100  186.2848 H   0  0  0  0  0  0  0  0  0  0  0  0
  152.2594  136.1806  188.3464 C   0  0  0  0  0  0  0  0  0  0  0  0
  151.0864  135.8179  189.0382 C   0  0  0  0  0  0  0  0  0  0  0  0
  150.9539  135.9431  190.4002 C   0  0  0  0  0  0  0  0  0  0  0  0
  152.0253  136.4498  191.1174 C   0  0  0  0  0  0  0  0  0  0  0  0
  153.1864  136.8127  190.4755 C   0  0  0  0  0  0  0  0  0  0  0  0
  154.3822  137.3784  191.1344 C   0  0  0  0  0  0  0  0  0  0  0  0
  154.7524  138.6526  190.3764 C   0  0  0  0  0  0  0  0  0  0  0  0
  154.8557  138.4510  188.8918 C   0  0  0  0  0  0  0  0  0  0  0  0
  154.5978  136.9920  188.5112 C   0  0  0  0  0  0  0  0  0  0  0  0
  153.2791  136.6637  189.0719 C   0  0  0  0  0  0  0  0  0  0  0  0
  148.7419  137.3122  182.9683 C   0  0  0  0  0  0  0  0  0  0  0  0
  148.0343  137.9020  183.8721 O   0  0  0  0  0  0  0  0  0  0  0  0
  1  2  1  0  0  0
  2  3  1  0  0  0
  3  4  2  0  0  0
  4  5  1  0  0  0
  5  6  2  0  0  0
  6  7  1  0  0  0
  7  8  2  0  0  0
  8  9  1  0  0  0
  9 10  2  0  0  0
 10 11  1  0  0  0
 11 14  1  0  0  0
 14 15  1  0  0  0
 15 16  2  0  0  0
 15 18  1  0  0  0
 18 19  2  0  0  0
 19 20  1  0  0  0
 20 21  2  0  0  0
 21 22  1  0  0  0
 22 23  1  0  0  0
 23 24  1  0  0  0
 24 25  1  0  0  0
 25 26  1  0  0  0
 26 27  1  0  0  0
 11 12  1  0  0  0
 12 13  2  0  0  0
  9 28  1  0  0  0
 28 29  2  0  0  0
 12  2  1  0  0  0
  8  3  1  0  0  0
 27 18  1  0  0  0
 27 22  2  0  0  0
 14 17  1  0  0  0
M  END
> <minimizedAffinity>
-7.32618

> <CNNscore>
0.3435879946

> <CNNaffinity>
5.3043751717

> <CNN_VS>
1.8225196600

> <CNNaffinity_variance>
0.0768299550

$$$$
[H]C(=O)C1=N[C@]([H])(N([H])C(=O)c2c([H])c([H])c([H])c3c2C([H])([H])C([H])([H])C([H])([H])C3([H])[H])C(=O)N(C([H])([H])[H])c2c([H])c([H])c([H])c([H])c21


 29 32  0  0  0  0  0  0  0  0999 V2000
  149.8864  137.8188  182.4319 C   0  0  0  0  0  0  0  0  0  0  0  0
  151.0110  137.5601  183.3008 N   0  0  0  0  0  0  0  0  0  0  0  0
  150.7310  137.0116  184.5925 C   0  0  0  0  0  0  0  0  0  0  0  0
  149.5210  136.3369  184.5973 C   0  0  0  0  0  0  0  0  0  0  0  0
  149.0899  135.7125  185.7360 C   0  0  0  0  0  0  0  0  0  0  0  0
  149.8912  135.7805  186.8558 C   0  0  0  0  0  0  0  0  0  0  0  0
  151.1113  136.4558  186.8704 C   0  0  0  0  0  0  0  0  0  0  0  0
  151.5378  137.0824  185.7236 C   0  0  0  0  0  0  0  0  0  0  0  0
  152.8204  137.7884  185.8892 C   0  0  0  0  0  0  0  0  0  0  0  0
  153.5327  138.1922  184.9222 N   0  0  0  0  0  0  0  0  0  0  0  0
  153.5528  138.2226  183.5117 C   0  0  0  0  0  0  0  0  0  0  0  0
  152.3173  137.8512  182.8205 C   0  0  0  0  0  0  0  0  0  0  0  0
  152.4315  137.7732  181.5524 O   0  0  0  0  0  0  0  0  0  0  0  0
  153.8493  139.5862  183.0686 N   0  0  0  0  0  0  0  0  0  0  0  0
  155.1064  140.1456  183.3074 C   0  0  0  0  0  0  0  0  0  0  0  0
  155.9919  139.4388  183.9398 O   0  0  0  0  0  0  0  0  0  0  0  0
  153.1010  140.1150  182.6045 H   0  0  0  0  0  0  0  0  0  0  0  0
  155.5968  141.4515  182.9516 C   0  0  0  0  0  0  0  0  0  0  0  0
  154.7084  142.5439  183.0076 C   0  0  0  0  0  0  0  0  0  0  0  0
  155.0507  143.8071  182.5889 C   0  0  0  0  0  0  0  0  0  0  0  0
  156.3276  144.0068  182.0901 C   0  0  0  0  0  0  0  0  0  0  0  0
  157.2218  142.9639  182.0220 C   0  0  0  0  0  0  0  0  0  0  0  0
  158.5991  143.0567  181.4942 C   0  0  0  0  0  0  0  0  0  0  0  0
  158.7611  141.9410  180.4628 C   0  0  0  0  0  0  0  0  0  0  0  0
  158.3457  140.5926  180.9771 C   0  0  0  0  0  0  0  0  0  0  0  0
  157.8945  140.6708  182.4365 C   0  0  0  0  0  0  0  0  0  0  0  0
  156.8266  141.6808  182.4672 C   0  0  0  0  0  0  0  0  0  0  0  0
  153.2445  138.0383  187.2377 C   0  0  0  0  0  0  0  0  0  0  0  0
  154.4687  138.4228  187.3752 O   0  0  0  0  0  0  0  0  0  0  0  0
  1  2  1  0  0  0
  2  3  1  0  0  0
  3  4  2  0  0  0
  4  5  1  0  0  0
  5  6  2  0  0  0
  6  7  1  0  0  0
  7  8  2  0  0  0
  8  9  1  0  0  0
  9 10  2  0  0  0
 10 11  1  0  0  0
 11 14  1  0  0  0
 14 15  1  0  0  0
 15 16  2  0  0  0
 15 18  1  0  0  0
 18 19  2  0  0  0
 19 20  1  0  0  0
 20 21  2  0  0  0
 21 22  1  0  0  0
 22 23  1  0  0  0
 23 24  1  0  0  0
 24 25  1  0  0  0
 25 26  1  0  0  0
 26 27  1  0  0  0
 11 12  1  0  0  0
 12 13  2  0  0  0
  9 28  1  0  0  0
 28 29  2  0  0  0
 12  2  1  0  0  0
  8  3  1  0  0  0
 27 18  1  0  0  0
 27 22  2  0  0  0
 14 17  1  0  0  0
M  END
> <minimizedAffinity>
-7.71896

> <CNNscore>
0.3202165961

> <CNNaffinity>
5.7992010117

> <CNN_VS>
1.8570003510

> <CNNaffinity_variance>
0.0523311868

$$$$
[H]C(=O)C1=N[C@]([H])(N([H])C(=O)c2c([H])c([H])c([H])c3c2C([H])([H])C([H])([H])C([H])([H])C3([H])[H])C(=O)N(C([H])([H])[H])c2c([H])c([H])c([H])c([H])c21


 29 32  0  0  0  0  0  0  0  0999 V2000
  151.3344  136.9977  187.5639 C   0  0  0  0  0  0  0  0  0  0  0  0
  152.5953  137.0362  186.8601 N   0  0  0  0  0  0  0  0  0  0  0  0
  153.7686  137.3194  187.6288 C   0  0  0  0  0  0  0  0  0  0  0  0
  153.5851  136.9877  188.9614 C   0  0  0  0  0  0  0  0  0  0  0  0
  154.6073  137.1550  189.8555 C   0  0  0  0  0  0  0  0  0  0  0  0
  155.8029  137.6567  189.3871 C   0  0  0  0  0  0  0  0  0  0  0  0
  156.0059  137.9972  188.0500 C   0  0  0  0  0  0  0  0  0  0  0  0
  154.9744  137.8283  187.1572 C   0  0  0  0  0  0  0  0  0  0  0  0
  155.3114  138.2628  185.7903 C   0  0  0  0  0  0  0  0  0  0  0  0
  154.6347  137.9520  184.7650 N   0  0  0  0  0  0  0  0  0  0  0  0
  153.4858  137.2254  184.3872 C   0  0  0  0  0  0  0  0  0  0  0  0
  152.5970  136.7804  185.4614 C   0  0  0  0  0  0  0  0  0  0  0  0
  151.6474  136.0221  185.0731 O   0  0  0  0  0  0  0  0  0  0  0  0
  152.6556  138.0636  183.5202 N   0  0  0  0  0  0  0  0  0  0  0  0
  152.3375  137.6403  182.2279 C   0  0  0  0  0  0  0  0  0  0  0  0
  152.8049  136.5032  181.8130 O   0  0  0  0  0  0  0  0  0  0  0  0
  152.3416  138.9710  183.8850 H   0  0  0  0  0  0  0  0  0  0  0  0
  151.5393  138.3038  181.2303 C   0  0  0  0  0  0  0  0  0  0  0  0
  152.1912  139.0815  180.2525 C   0  0  0  0  0  0  0  0  0  0  0  0
  151.5141  139.8356  179.3246 C   0  0  0  0  0  0  0  0  0  0  0  0
  150.1292  139.8259  179.3593 C   0  0  0  0  0  0  0  0  0  0  0  0
  149.4594  139.0773  180.2988 C   0  0  0  0  0  0  0  0  0  0  0  0
  147.9900  139.0054  180.4399 C   0  0  0  0  0  0  0  0  0  0  0  0
  147.6647  139.2934  181.9050 C   0  0  0  0  0  0  0  0  0  0  0  0
  148.4574  138.4535  182.8650 C   0  0  0  0  0  0  0  0  0  0  0  0
  149.3759  137.4811  182.1230 C   0  0  0  0  0  0  0  0  0  0  0  0
  150.1978  138.3139  181.2330 C   0  0  0  0  0  0  0  0  0  0  0  0
  156.4648  139.1061  185.6522 C   0  0  0  0  0  0  0  0  0  0  0  0
  156.5608  139.7410  184.5328 O   0  0  0  0  0  0  0  0  0  0  0  0
  1  2  1  0  0  0
  2  3  1  0  0  0
  3  4  2  0  0  0
  4  5  1  0  0  0
  5  6  2  0  0  0
  6  7  1  0  0  0
  7  8  2  0  0  0
  8  9  1  0  0  0
  9 10  2  0  0  0
 10 11  1  0  0  0
 11 14  1  0  0  0
 14 15  1  0  0  0
 15 16  2  0  0  0
 15 18  1  0  0  0
 18 19  2  0  0  0
 19 20  1  0  0  0
 20 21  2  0  0  0
 21 22  1  0  0  0
 22 23  1  0  0  0
 23 24  1  0  0  0
 24 25  1  0  0  0
 25 26  1  0  0  0
 26 27  1  0  0  0
 11 12  1  0  0  0
 12 13  2  0  0  0
  9 28  1  0  0  0
 28 29  2  0  0  0
 12  2  1  0  0  0
  8  3  1  0  0  0
 27 18  1  0  0  0
 27 22  2  0  0  0
 14 17  1  0  0  0
M  END
> <minimizedAffinity>
-6.93531

> <CNNscore>
0.3165751994

> <CNNaffinity>
5.3812694550

> <CNN_VS>
1.7035764456

> <CNNaffinity_variance>
0.0886909962

$$$$
[H]C(=O)C1=N[C@]([H])(N([H])C(=O)c2c([H])c([H])c([H])c3c2C([H])([H])C([H])([H])C([H])([H])C3([H])[H])C(=O)N(C([H])([H])[H])c2c([H])c([H])c([H])c([H])c21


 29 32  0  0  0  0  0  0  0  0999 V2000
  154.6462  138.5384  190.6707 C   0  0  0  0  0  0  0  0  0  0  0  0
  154.6681  137.5485  189.6189 N   0  0  0  0  0  0  0  0  0  0  0  0
  154.8501  136.1827  190.0054 C   0  0  0  0  0  0  0  0  0  0  0  0
  154.4482  135.9763  191.3151 C   0  0  0  0  0  0  0  0  0  0  0  0
  154.5141  134.7237  191.8620 C   0  0  0  0  0  0  0  0  0  0  0  0
  154.9870  133.6962  191.0740 C   0  0  0  0  0  0  0  0  0  0  0  0
  155.3970  133.8849  189.7544 C   0  0  0  0  0  0  0  0  0  0  0  0
  155.3299  135.1460  189.2115 C   0  0  0  0  0  0  0  0  0  0  0  0
  155.8291  135.2104  187.8268 C   0  0  0  0  0  0  0  0  0  0  0  0
  155.6120  136.1827  187.0438 N   0  0  0  0  0  0  0  0  0  0  0  0
  154.9633  137.4350  187.0028 C   0  0  0  0  0  0  0  0  0  0  0  0
  154.4966  137.9846  188.2764 C   0  0  0  0  0  0  0  0  0  0  0  0
  153.8078  139.0524  188.1634 O   0  0  0  0  0  0  0  0  0  0  0  0
  155.8895  138.4341  186.4663 N   0  0  0  0  0  0  0  0  0  0  0  0
  155.7819  138.8513  185.1379 C   0  0  0  0  0  0  0  0  0  0  0  0
  154.8590  138.3246  184.3933 O   0  0  0  0  0  0  0  0  0  0  0  0
  156.6244  138.7922  187.0882 H   0  0  0  0  0  0  0  0  0  0  0  0
  156.5787  139.8162  184.4263 C   0  0  0  0  0  0  0  0  0  0  0  0
  157.9691  139.8427  184.6547 C   0  0  0  0  0  0  0  0  0  0  0  0
  158.7981  140.7912  184.1056 C   0  0  0  0  0  0  0  0  0  0  0  0
  158.2339  141.7611  183.2933 C   0  0  0  0  0  0  0  0  0  0  0  0
  156.8807  141.7652  183.0470 C   0  0  0  0  0  0  0  0  0  0  0  0
  156.1702  142.7576  182.2138 C   0  0  0  0  0  0  0  0  0  0  0  0
  155.0018  143.2874  183.0441 C   0  0  0  0  0  0  0  0  0  0  0  0
  154.1522  142.1992  183.6350 C   0  0  0  0  0  0  0  0  0  0  0  0
  154.6555  140.8157  183.2196 C   0  0  0  0  0  0  0  0  0  0  0  0
  156.0660  140.7675  183.6315 C   0  0  0  0  0  0  0  0  0  0  0  0
  156.6248  134.1021  187.3806 C   0  0  0  0  0  0  0  0  0  0  0  0
  157.8885  134.3349  187.2614 O   0  0  0  0  0  0  0  0  0  0  0  0
  1  2  1  0  0  0
  2  3  1  0  0  0
  3  4  2  0  0  0
  4  5  1  0  0  0
  5  6  2  0  0  0
  6  7  1  0  0  0
  7  8  2  0  0  0
  8  9  1  0  0  0
  9 10  2  0  0  0
 10 11  1  0  0  0
 11 14  1  0  0  0
 14 15  1  0  0  0
 15 16  2  0  0  0
 15 18  1  0  0  0
 18 19  2  0  0  0
 19 20  1  0  0  0
 20 21  2  0  0  0
 21 22  1  0  0  0
 22 23  1  0  0  0
 23 24  1  0  0  0
 24 25  1  0  0  0
 25 26  1  0  0  0
 26 27  1  0  0  0
 11 12  1  0  0  0
 12 13  2  0  0  0
  9 28  1  0  0  0
 28 29  2  0  0  0
 12  2  1  0  0  0
  8  3  1  0  0  0
 27 18  1  0  0  0
 27 22  2  0  0  0
 14 17  1  0  0  0
M  END
> <minimizedAffinity>
-7.26873

> <CNNscore>
0.3143556118

> <CNNaffinity>
5.6604390144

> <CNN_VS>
1.7793908119

> <CNNaffinity_variance>
0.0865891129

$$$$
[H]c1nc([H])n(-c2nc(C(=O)N([H])C([H])(C(=O)N([H])[C@@]([H])(c3c([H])c([H])c(-c4c([H])nc(N([H])[H])nc4[H])c([H])c3[H])C([H])([H])[H])C(C([H])([H])[H])(C([H])([H])[H])C([H])([H])[H])c([H])c([H])c2[H])n1


 41 44  0  0  0  0  0  0  0  0999 V2000
  155.3784  137.4918  187.7005 N   0  0  0  0  0  0  0  0  0  0  0  0
  154.3098  138.1258  187.0474 C   0  0  0  0  0  0  0  0  0  0  0  0
  153.3179  138.4333  187.8341 O   0  0  0  0  0  0  0  0  0  0  0  0
  156.2193  137.2182  187.1793 H   0  0  0  0  0  0  0  0  0  0  0  0
  155.9654  138.4254  189.8617 C   0  0  0  0  0  0  0  0  0  0  0  0
  155.3436  137.2111  189.1160 C   0  0  0  0  0  0  0  0  0  0  0  0
  156.1702  136.0595  189.5287 C   0  0  0  0  0  0  0  0  0  0  0  0
  157.0725  135.5571  188.6148 C   0  0  0  0  0  0  0  0  0  0  0  0
  157.8726  134.4550  188.9482 C   0  0  0  0  0  0  0  0  0  0  0  0
  157.7693  133.8554  190.1970 C   0  0  0  0  0  0  0  0  0  0  0  0
  156.8618  134.3766  191.0911 C   0  0  0  0  0  0  0  0  0  0  0  0
  156.0708  135.4633  190.7658 C   0  0  0  0  0  0  0  0  0  0  0  0
  158.5817  132.6979  190.5457 C   0  0  0  0  0  0  0  0  0  0  0  0
  158.4788  132.0491  191.7761 C   0  0  0  0  0  0  0  0  0  0  0  0
  159.2855  130.9670  192.0325 N   0  0  0  0  0  0  0  0  0  0  0  0
  160.1649  130.5164  191.1397 C   0  0  0  0  0  0  0  0  0  0  0  0
  161.0122  129.3965  191.3822 N   0  0  0  0  0  0  0  0  0  0  0  0
  160.2743  131.1368  189.9410 N   0  0  0  0  0  0  0  0  0  0  0  0
  159.5039  132.2018  189.6466 C   0  0  0  0  0  0  0  0  0  0  0  0
  160.5741  128.5260  191.7379 H   0  0  0  0  0  0  0  0  0  0  0  0
  162.0371  129.4041  191.2210 H   0  0  0  0  0  0  0  0  0  0  0  0
  154.1547  138.4850  185.6509 C   0  0  0  0  0  0  0  0  0  0  0  0
  155.4835  138.8332  185.1143 N   0  0  0  0  0  0  0  0  0  0  0  0
  155.7808  139.9867  184.3950 C   0  0  0  0  0  0  0  0  0  0  0  0
  154.8707  140.8213  184.1681 O   0  0  0  0  0  0  0  0  0  0  0  0
  156.2760  138.1371  185.2943 H   0  0  0  0  0  0  0  0  0  0  0  0
  157.1160  140.2757  183.8808 C   0  0  0  0  0  0  0  0  0  0  0  0
  157.5116  139.9496  182.6065 C   0  0  0  0  0  0  0  0  0  0  0  0
  158.7749  140.2616  182.1689 C   0  0  0  0  0  0  0  0  0  0  0  0
  159.6389  140.9026  183.0185 C   0  0  0  0  0  0  0  0  0  0  0  0
  159.2582  141.2424  184.3154 C   0  0  0  0  0  0  0  0  0  0  0  0
  158.0226  140.9110  184.6733 N   0  0  0  0  0  0  0  0  0  0  0  0
  160.1572  141.9162  185.1866 N   0  0  0  0  0  0  0  0  0  0  0  0
  159.8788  142.3318  186.4347 C   0  0  0  0  0  0  0  0  0  0  0  0
  160.9884  142.9271  186.9448 N   0  0  0  0  0  0  0  0  0  0  0  0
  161.9437  142.8730  186.0032 C   0  0  0  0  0  0  0  0  0  0  0  0
  161.3952  142.2482  184.9476 N   0  0  0  0  0  0  0  0  0  0  0  0
  153.5588  137.5062  184.7125 C   0  0  0  0  0  0  0  0  0  0  0  0
  152.4183  136.8063  185.4883 C   0  0  0  0  0  0  0  0  0  0  0  0
  154.4516  136.3945  184.2553 C   0  0  0  0  0  0  0  0  0  0  0  0
  152.9634  138.2469  183.5449 C   0  0  0  0  0  0  0  0  0  0  0  0
  5  6  1  0  0  0
  6  1  1  0  0  0
  1  2  1  0  0  0
  2  3  2  0  0  0
  2 22  1  0  0  0
 22 23  1  0  0  0
 23 24  1  0  0  0
 24 25  2  0  0  0
 24 27  1  0  0  0
 27 28  2  0  0  0
 28 29  1  0  0  0
 29 30  2  0  0  0
 30 31  1  0  0  0
 31 32  2  0  0  0
 31 33  1  0  0  0
 33 34  1  0  0  0
 34 35  2  0  0  0
 35 36  1  0  0  0
 36 37  2  0  0  0
 22 38  1  0  0  0
 38 39  1  0  0  0
 38 40  1  0  0  0
 38 41  1  0  0  0
  6  7  1  0  0  0
  7  8  2  0  0  0
  8  9  1  0  0  0
  9 10  2  0  0  0
 10 11  1  0  0  0
 11 12  2  0  0  0
 10 13  1  0  0  0
 13 14  2  0  0  0
 14 15  1  0  0  0
 15 16  2  0  0  0
 16 17  1  0  0  0
 16 18  1  0  0  0
 18 19  2  0  0  0
 32 27  1  0  0  0
 37 33  1  0  0  0
 12  7  1  0  0  0
 19 13  1  0  0  0
  1  4  1  0  0  0
 23 26  1  0  0  0
 17 20  1  0  0  0
 17 21  1  0  0  0
M  END
> <minimizedAffinity>
-8.17068

> <CNNscore>
0.3576465547

> <CNNaffinity>
6.5375328064

> <CNN_VS>
2.3381261826

> <CNNaffinity_variance>
0.0529294834

$$$$
[H]c1nc([H])n(-c2nc(C(=O)N([H])C([H])(C(=O)N([H])[C@@]([H])(c3c([H])c([H])c(-c4c([H])nc(N([H])[H])nc4[H])c([H])c3[H])C([H])([H])[H])C(C([H])([H])[H])(C([H])([H])[H])C([H])([H])[H])c([H])c([H])c2[H])n1


 41 44  0  0  0  0  0  0  0  0999 V2000
  155.3010  137.6563  186.5731 N   0  0  0  0  0  0  0  0  0  0  0  0
  154.9304  137.4576  187.9124 C   0  0  0  0  0  0  0  0  0  0  0  0
  153.8534  138.1012  188.2633 O   0  0  0  0  0  0  0  0  0  0  0  0
  156.1264  137.1852  186.1854 H   0  0  0  0  0  0  0  0  0  0  0  0
  153.6951  137.6068  184.7550 C   0  0  0  0  0  0  0  0  0  0  0  0
  154.5405  138.5124  185.6943 C   0  0  0  0  0  0  0  0  0  0  0  0
  155.3622  139.3303  184.7802 C   0  0  0  0  0  0  0  0  0  0  0  0
  154.7305  139.9250  183.7082 C   0  0  0  0  0  0  0  0  0  0  0  0
  155.4651  140.7005  182.7999 C   0  0  0  0  0  0  0  0  0  0  0  0
  156.8326  140.8804  182.9646 C   0  0  0  0  0  0  0  0  0  0  0  0
  157.4387  140.2770  184.0430 C   0  0  0  0  0  0  0  0  0  0  0  0
  156.7176  139.5113  184.9408 C   0  0  0  0  0  0  0  0  0  0  0  0
  157.6078  141.6676  182.0154 C   0  0  0  0  0  0  0  0  0  0  0  0
  157.9320  141.2037  180.7405 C   0  0  0  0  0  0  0  0  0  0  0  0
  158.6729  142.0038  179.9048 N   0  0  0  0  0  0  0  0  0  0  0  0
  159.0919  143.2125  180.2751 C   0  0  0  0  0  0  0  0  0  0  0  0
  159.8613  144.0605  179.4266 N   0  0  0  0  0  0  0  0  0  0  0  0
  158.7833  143.6750  181.5098 N   0  0  0  0  0  0  0  0  0  0  0  0
  158.0593  142.9247  182.3626 C   0  0  0  0  0  0  0  0  0  0  0  0
  159.5185  144.2184  178.4603 H   0  0  0  0  0  0  0  0  0  0  0  0
  160.7393  144.5276  179.7222 H   0  0  0  0  0  0  0  0  0  0  0  0
  155.5586  136.6515  188.9414 C   0  0  0  0  0  0  0  0  0  0  0  0
  154.5417  136.3306  189.9603 N   0  0  0  0  0  0  0  0  0  0  0  0
  154.4769  136.8904  191.2327 C   0  0  0  0  0  0  0  0  0  0  0  0
  155.3343  137.7417  191.5741 O   0  0  0  0  0  0  0  0  0  0  0  0
  153.7999  135.6071  189.6931 H   0  0  0  0  0  0  0  0  0  0  0  0
  153.4496  136.5283  192.2043 C   0  0  0  0  0  0  0  0  0  0  0  0
  152.5275  137.4258  192.6848 C   0  0  0  0  0  0  0  0  0  0  0  0
  151.5710  137.0259  193.5849 C   0  0  0  0  0  0  0  0  0  0  0  0
  151.5462  135.7198  194.0002 C   0  0  0  0  0  0  0  0  0  0  0  0
  152.4725  134.7928  193.5257 C   0  0  0  0  0  0  0  0  0  0  0  0
  153.3695  135.2469  192.6576 N   0  0  0  0  0  0  0  0  0  0  0  0
  152.4332  133.4378  193.9539 N   0  0  0  0  0  0  0  0  0  0  0  0
  153.0254  132.4009  193.3357 C   0  0  0  0  0  0  0  0  0  0  0  0
  152.7637  131.2730  194.0465 N   0  0  0  0  0  0  0  0  0  0  0  0
  152.0100  131.6262  195.0997 C   0  0  0  0  0  0  0  0  0  0  0  0
  151.8324  132.9547  195.0055 N   0  0  0  0  0  0  0  0  0  0  0  0
  156.2051  135.3726  188.5667 C   0  0  0  0  0  0  0  0  0  0  0  0
  156.7368  134.7580  189.8828 C   0  0  0  0  0  0  0  0  0  0  0  0
  157.4044  135.4696  187.6755 C   0  0  0  0  0  0  0  0  0  0  0  0
  155.1658  134.4491  187.9892 C   0  0  0  0  0  0  0  0  0  0  0  0
  5  6  1  0  0  0
  6  1  1  0  0  0
  1  2  1  0  0  0
  2  3  2  0  0  0
  2 22  1  0  0  0
 22 23  1  0  0  0
 23 24  1  0  0  0
 24 25  2  0  0  0
 24 27  1  0  0  0
 27 28  2  0  0  0
 28 29  1  0  0  0
 29 30  2  0  0  0
 30 31  1  0  0  0
 31 32  2  0  0  0
 31 33  1  0  0  0
 33 34  1  0  0  0
 34 35  2  0  0  0
 35 36  1  0  0  0
 36 37  2  0  0  0
 22 38  1  0  0  0
 38 39  1  0  0  0
 38 40  1  0  0  0
 38 41  1  0  0  0
  6  7  1  0  0  0
  7  8  2  0  0  0
  8  9  1  0  0  0
  9 10  2  0  0  0
 10 11  1  0  0  0
 11 12  2  0  0  0
 10 13  1  0  0  0
 13 14  2  0  0  0
 14 15  1  0  0  0
 15 16  2  0  0  0
 16 17  1  0  0  0
 16 18  1  0  0  0
 18 19  2  0  0  0
 32 27  1  0  0  0
 37 33  1  0  0  0
 12  7  1  0  0  0
 19 13  1  0  0  0
  1  4  1  0  0  0
 23 26  1  0  0  0
 17 20  1  0  0  0
 17 21  1  0  0  0
M  END
> <minimizedAffinity>
-7.96428

> <CNNscore>
0.2663170099

> <CNNaffinity>
6.0094289780

> <CNN_VS>
1.6004132032

> <CNNaffinity_variance>
0.0819519535

$$$$
[H]c1nc([H])n(-c2nc(C(=O)N([H])C([H])(C(=O)N([H])[C@@]([H])(c3c([H])c([H])c(-c4c([H])nc(N([H])[H])nc4[H])c([H])c3[H])C([H])([H])[H])C(C([H])([H])[H])(C([H])([H])[H])C([H])([H])[H])c([H])c([H])c2[H])n1


 41 44  0  0  0  0  0  0  0  0999 V2000
  155.0079  134.6215  186.5506 N   0  0  0  0  0  0  0  0  0  0  0  0
  154.3051  135.8114  186.3045 C   0  0  0  0  0  0  0  0  0  0  0  0
  153.2482  135.6558  185.5589 O   0  0  0  0  0  0  0  0  0  0  0  0
  155.8491  134.6252  187.1388 H   0  0  0  0  0  0  0  0  0  0  0  0
  154.7634  132.2702  187.0970 C   0  0  0  0  0  0  0  0  0  0  0  0
  154.5765  133.3579  186.0020 C   0  0  0  0  0  0  0  0  0  0  0  0
  155.3858  132.8808  184.8631 C   0  0  0  0  0  0  0  0  0  0  0  0
  154.9943  133.2572  183.5955 C   0  0  0  0  0  0  0  0  0  0  0  0
  155.7177  132.8204  182.4766 C   0  0  0  0  0  0  0  0  0  0  0  0
  156.8332  132.0063  182.6266 C   0  0  0  0  0  0  0  0  0  0  0  0
  157.2033  131.6458  183.9024 C   0  0  0  0  0  0  0  0  0  0  0  0
  156.4923  132.0744  185.0083 C   0  0  0  0  0  0  0  0  0  0  0  0
  157.5792  131.5311  181.4694 C   0  0  0  0  0  0  0  0  0  0  0  0
  157.1879  131.8025  180.1584 C   0  0  0  0  0  0  0  0  0  0  0  0
  157.9416  131.3128  179.1193 N   0  0  0  0  0  0  0  0  0  0  0  0
  159.0380  130.5856  179.3256 C   0  0  0  0  0  0  0  0  0  0  0  0
  159.8359  130.0668  178.2648 N   0  0  0  0  0  0  0  0  0  0  0  0
  159.4292  130.3156  180.5936 N   0  0  0  0  0  0  0  0  0  0  0  0
  158.7205  130.7748  181.6430 C   0  0  0  0  0  0  0  0  0  0  0  0
  160.1276  130.7207  177.5141 H   0  0  0  0  0  0  0  0  0  0  0  0
  160.1409  129.0770  178.2045 H   0  0  0  0  0  0  0  0  0  0  0  0
  154.5777  137.1628  186.7549 C   0  0  0  0  0  0  0  0  0  0  0  0
  154.1700  138.0953  185.6876 N   0  0  0  0  0  0  0  0  0  0  0  0
  155.0292  138.9333  184.9835 C   0  0  0  0  0  0  0  0  0  0  0  0
  156.2562  138.9192  185.2493 O   0  0  0  0  0  0  0  0  0  0  0  0
  153.1286  138.1259  185.4430 H   0  0  0  0  0  0  0  0  0  0  0  0
  154.5671  139.8431  183.9399 C   0  0  0  0  0  0  0  0  0  0  0  0
  155.1276  141.0786  183.7252 C   0  0  0  0  0  0  0  0  0  0  0  0
  154.6646  141.8868  182.7165 C   0  0  0  0  0  0  0  0  0  0  0  0
  153.6353  141.4474  181.9249 C   0  0  0  0  0  0  0  0  0  0  0  0
  153.0520  140.1977  182.1256 C   0  0  0  0  0  0  0  0  0  0  0  0
  153.5483  139.4678  183.1183 N   0  0  0  0  0  0  0  0  0  0  0  0
  151.9917  139.7456  181.2935 N   0  0  0  0  0  0  0  0  0  0  0  0
  152.0288  139.6561  179.9524 C   0  0  0  0  0  0  0  0  0  0  0  0
  150.8310  139.1809  179.5221 N   0  0  0  0  0  0  0  0  0  0  0  0
  150.0639  138.9813  180.6056 C   0  0  0  0  0  0  0  0  0  0  0  0
  150.8102  139.3376  181.6646 N   0  0  0  0  0  0  0  0  0  0  0  0
  153.9541  137.6491  188.0073 C   0  0  0  0  0  0  0  0  0  0  0  0
  152.9344  138.7335  187.5868 C   0  0  0  0  0  0  0  0  0  0  0  0
  154.8631  138.3329  188.9811 C   0  0  0  0  0  0  0  0  0  0  0  0
  153.2093  136.5134  188.6568 C   0  0  0  0  0  0  0  0  0  0  0  0
  5  6  1  0  0  0
  6  1  1  0  0  0
  1  2  1  0  0  0
  2  3  2  0  0  0
  2 22  1  0  0  0
 22 23  1  0  0  0
 23 24  1  0  0  0
 24 25  2  0  0  0
 24 27  1  0  0  0
 27 28  2  0  0  0
 28 29  1  0  0  0
 29 30  2  0  0  0
 30 31  1  0  0  0
 31 32  2  0  0  0
 31 33  1  0  0  0
 33 34  1  0  0  0
 34 35  2  0  0  0
 35 36  1  0  0  0
 36 37  2  0  0  0
 22 38  1  0  0  0
 38 39  1  0  0  0
 38 40  1  0  0  0
 38 41  1  0  0  0
  6  7  1  0  0  0
  7  8  2  0  0  0
  8  9  1  0  0  0
  9 10  2  0  0  0
 10 11  1  0  0  0
 11 12  2  0  0  0
 10 13  1  0  0  0
 13 14  2  0  0  0
 14 15  1  0  0  0
 15 16  2  0  0  0
 16 17  1  0  0  0
 16 18  1  0  0  0
 18 19  2  0  0  0
 32 27  1  0  0  0
 37 33  1  0  0  0
 12  7  1  0  0  0
 19 13  1  0  0  0
  1  4  1  0  0  0
 23 26  1  0  0  0
 17 20  1  0  0  0
 17 21  1  0  0  0
M  END
> <minimizedAffinity>
-7.02678

> <CNNscore>
0.2611659169

> <CNNaffinity>
6.0281295776

> <CNN_VS>
1.5743420124

> <CNNaffinity_variance>
0.1220346913

$$$$
[H]c1nc([H])n(-c2nc(C(=O)N([H])C([H])(C(=O)N([H])[C@@]([H])(c3c([H])c([H])c(-c4c([H])nc(N([H])[H])nc4[H])c([H])c3[H])C([H])([H])[H])C(C([H])([H])[H])(C([H])([H])[H])C([H])([H])[H])c([H])c([H])c2[H])n1


 41 44  0  0  0  0  0  0  0  0999 V2000
  154.5298  137.8579  187.3086 N   0  0  0  0  0  0  0  0  0  0  0  0
  153.4590  138.0199  186.4154 C   0  0  0  0  0  0  0  0  0  0  0  0
  152.2908  137.7903  186.9445 O   0  0  0  0  0  0  0  0  0  0  0  0
  155.4945  138.0276  187.0018 H   0  0  0  0  0  0  0  0  0  0  0  0
  154.6382  138.6830  189.5877 C   0  0  0  0  0  0  0  0  0  0  0  0
  154.3203  137.4610  188.6805 C   0  0  0  0  0  0  0  0  0  0  0  0
  155.2323  136.4007  189.1535 C   0  0  0  0  0  0  0  0  0  0  0  0
  156.4195  136.2254  188.4740 C   0  0  0  0  0  0  0  0  0  0  0  0
  157.3164  135.2233  188.8708 C   0  0  0  0  0  0  0  0  0  0  0  0
  157.0246  134.3962  189.9480 C   0  0  0  0  0  0  0  0  0  0  0  0
  155.8337  134.5926  190.6097 C   0  0  0  0  0  0  0  0  0  0  0  0
  154.9465  135.5797  190.2211 C   0  0  0  0  0  0  0  0  0  0  0  0
  157.9406  133.3396  190.3554 C   0  0  0  0  0  0  0  0  0  0  0  0
  157.8529  132.7033  191.5935 C   0  0  0  0  0  0  0  0  0  0  0  0
  158.7592  131.7195  191.9069 N   0  0  0  0  0  0  0  0  0  0  0  0
  159.7215  131.3529  191.0623 C   0  0  0  0  0  0  0  0  0  0  0  0
  160.6729  130.3358  191.3644 N   0  0  0  0  0  0  0  0  0  0  0  0
  159.8172  131.9622  189.8568 N   0  0  0  0  0  0  0  0  0  0  0  0
  158.9504  132.9323  189.5073 C   0  0  0  0  0  0  0  0  0  0  0  0
  160.3157  129.4286  191.7189 H   0  0  0  0  0  0  0  0  0  0  0  0
  161.6972  130.4521  191.2473 H   0  0  0  0  0  0  0  0  0  0  0  0
  153.4644  138.4025  185.0166 C   0  0  0  0  0  0  0  0  0  0  0  0
  154.8588  138.6693  184.6171 N   0  0  0  0  0  0  0  0  0  0  0  0
  155.3564  139.9065  184.2196 C   0  0  0  0  0  0  0  0  0  0  0  0
  154.5864  140.8977  184.1891 O   0  0  0  0  0  0  0  0  0  0  0  0
  155.5347  137.8398  184.6346 H   0  0  0  0  0  0  0  0  0  0  0  0
  156.7475  140.1101  183.8272 C   0  0  0  0  0  0  0  0  0  0  0  0
  157.8043  139.5650  184.5149 C   0  0  0  0  0  0  0  0  0  0  0  0
  159.0930  139.7745  184.0901 C   0  0  0  0  0  0  0  0  0  0  0  0
  159.3144  140.5349  182.9713 C   0  0  0  0  0  0  0  0  0  0  0  0
  158.2569  141.0975  182.2589 C   0  0  0  0  0  0  0  0  0  0  0  0
  157.0368  140.8550  182.7248 N   0  0  0  0  0  0  0  0  0  0  0  0
  158.4949  141.8763  181.0936 N   0  0  0  0  0  0  0  0  0  0  0  0
  158.0284  141.6091  179.8611 C   0  0  0  0  0  0  0  0  0  0  0  0
  158.4655  142.5810  179.0184 N   0  0  0  0  0  0  0  0  0  0  0  0
  159.2000  143.4411  179.7415 C   0  0  0  0  0  0  0  0  0  0  0  0
  159.1918  142.9745  181.0016 N   0  0  0  0  0  0  0  0  0  0  0  0
  152.9024  137.4739  184.0088 C   0  0  0  0  0  0  0  0  0  0  0  0
  152.8601  138.2593  182.6769 C   0  0  0  0  0  0  0  0  0  0  0  0
  151.4927  137.0220  184.2337 C   0  0  0  0  0  0  0  0  0  0  0  0
  153.8346  136.3028  183.8480 C   0  0  0  0  0  0  0  0  0  0  0  0
  5  6  1  0  0  0
  6  1  1  0  0  0
  1  2  1  0  0  0
  2  3  2  0  0  0
  2 22  1  0  0  0
 22 23  1  0  0  0
 23 24  1  0  0  0
 24 25  2  0  0  0
 24 27  1  0  0  0
 27 28  2  0  0  0
 28 29  1  0  0  0
 29 30  2  0  0  0
 30 31  1  0  0  0
 31 32  2  0  0  0
 31 33  1  0  0  0
 33 34  1  0  0  0
 34 35  2  0  0  0
 35 36  1  0  0  0
 36 37  2  0  0  0
 22 38  1  0  0  0
 38 39  1  0  0  0
 38 40  1  0  0  0
 38 41  1  0  0  0
  6  7  1  0  0  0
  7  8  2  0  0  0
  8  9  1  0  0  0
  9 10  2  0  0  0
 10 11  1  0  0  0
 11 12  2  0  0  0
 10 13  1  0  0  0
 13 14  2  0  0  0
 14 15  1  0  0  0
 15 16  2  0  0  0
 16 17  1  0  0  0
 16 18  1  0  0  0
 18 19  2  0  0  0
 32 27  1  0  0  0
 37 33  1  0  0  0
 12  7  1  0  0  0
 19 13  1  0  0  0
  1  4  1  0  0  0
 23 26  1  0  0  0
 17 20  1  0  0  0
 17 21  1  0  0  0
M  END
> <minimizedAffinity>
-8.04160

> <CNNscore>
0.2456543744

> <CNNaffinity>
6.1557402611

> <CNN_VS>
1.5121845007

> <CNNaffinity_variance>
0.1089468971

$$$$
[H]c1nc([H])n(-c2nc(C(=O)N([H])C([H])(C(=O)N([H])[C@@]([H])(c3c([H])c([H])c(-c4c([H])nc(N([H])[H])nc4[H])c([H])c3[H])C([H])([H])[H])C(C([H])([H])[H])(C([H])([H])[H])C([H])([H])[H])c([H])c([H])c2[H])n1


 41 44  0  0  0  0  0  0  0  0999 V2000
  153.8052  134.3689  186.0816 N   0  0  0  0  0  0  0  0  0  0  0  0
  153.5398  135.7413  185.9525 C   0  0  0  0  0  0  0  0  0  0  0  0
  152.7763  136.0385  184.9395 O   0  0  0  0  0  0  0  0  0  0  0  0
  154.3845  134.0206  186.8539 H   0  0  0  0  0  0  0  0  0  0  0  0
  152.9909  132.0882  185.9327 C   0  0  0  0  0  0  0  0  0  0  0  0
  153.2730  133.4023  185.1510 C   0  0  0  0  0  0  0  0  0  0  0  0
  154.2116  133.0044  184.0832 C   0  0  0  0  0  0  0  0  0  0  0  0
  154.9023  131.8217  184.2439 C   0  0  0  0  0  0  0  0  0  0  0  0
  155.8176  131.4027  183.2678 C   0  0  0  0  0  0  0  0  0  0  0  0
  156.0419  132.1682  182.1306 C   0  0  0  0  0  0  0  0  0  0  0  0
  155.3392  133.3438  181.9939 C   0  0  0  0  0  0  0  0  0  0  0  0
  154.4357  133.7604  182.9545 C   0  0  0  0  0  0  0  0  0  0  0  0
  157.0053  131.7515  181.1208 C   0  0  0  0  0  0  0  0  0  0  0  0
  156.6226  131.2677  179.8698 C   0  0  0  0  0  0  0  0  0  0  0  0
  157.5918  130.8881  178.9732 N   0  0  0  0  0  0  0  0  0  0  0  0
  158.8894  130.9685  179.2620 C   0  0  0  0  0  0  0  0  0  0  0  0
  159.9129  130.5810  178.3492 N   0  0  0  0  0  0  0  0  0  0  0  0
  159.2743  131.4371  180.4728 N   0  0  0  0  0  0  0  0  0  0  0  0
  158.3585  131.8204  181.3832 C   0  0  0  0  0  0  0  0  0  0  0  0
  159.8658  130.9537  177.3822 H   0  0  0  0  0  0  0  0  0  0  0  0
  160.6994  129.9519  178.5989 H   0  0  0  0  0  0  0  0  0  0  0  0
  153.9805  136.8548  186.7705 C   0  0  0  0  0  0  0  0  0  0  0  0
  154.5153  137.8995  185.8773 N   0  0  0  0  0  0  0  0  0  0  0  0
  155.7872  138.4568  185.9665 C   0  0  0  0  0  0  0  0  0  0  0  0
  156.5700  138.0612  186.8650 O   0  0  0  0  0  0  0  0  0  0  0  0
  153.8665  138.2535  185.1034 H   0  0  0  0  0  0  0  0  0  0  0  0
  156.2607  139.4957  185.0571 C   0  0  0  0  0  0  0  0  0  0  0  0
  155.4868  140.0123  184.0467 C   0  0  0  0  0  0  0  0  0  0  0  0
  155.9773  141.0022  183.2315 C   0  0  0  0  0  0  0  0  0  0  0  0
  157.2494  141.4699  183.4364 C   0  0  0  0  0  0  0  0  0  0  0  0
  158.0516  140.9596  184.4554 C   0  0  0  0  0  0  0  0  0  0  0  0
  157.5149  140.0043  185.2062 N   0  0  0  0  0  0  0  0  0  0  0  0
  159.3662  141.4576  184.6673 N   0  0  0  0  0  0  0  0  0  0  0  0
  159.7825  142.1422  185.7472 C   0  0  0  0  0  0  0  0  0  0  0  0
  161.0977  142.4409  185.5835 N   0  0  0  0  0  0  0  0  0  0  0  0
  161.4812  141.9361  184.4001 C   0  0  0  0  0  0  0  0  0  0  0  0
  160.3953  141.3444  183.8747 N   0  0  0  0  0  0  0  0  0  0  0  0
  153.0120  137.5198  187.6725 C   0  0  0  0  0  0  0  0  0  0  0  0
  153.7742  137.8021  188.9885 C   0  0  0  0  0  0  0  0  0  0  0  0
  151.8216  136.7099  188.0837 C   0  0  0  0  0  0  0  0  0  0  0  0
  152.5982  138.8332  187.0643 C   0  0  0  0  0  0  0  0  0  0  0  0
  5  6  1  0  0  0
  6  1  1  0  0  0
  1  2  1  0  0  0
  2  3  2  0  0  0
  2 22  1  0  0  0
 22 23  1  0  0  0
 23 24  1  0  0  0
 24 25  2  0  0  0
 24 27  1  0  0  0
 27 28  2  0  0  0
 28 29  1  0  0  0
 29 30  2  0  0  0
 30 31  1  0  0  0
 31 32  2  0  0  0
 31 33  1  0  0  0
 33 34  1  0  0  0
 34 35  2  0  0  0
 35 36  1  0  0  0
 36 37  2  0  0  0
 22 38  1  0  0  0
 38 39  1  0  0  0
 38 40  1  0  0  0
 38 41  1  0  0  0
  6  7  1  0  0  0
  7  8  2  0  0  0
  8  9  1  0  0  0
  9 10  2  0  0  0
 10 11  1  0  0  0
 11 12  2  0  0  0
 10 13  1  0  0  0
 13 14  2  0  0  0
 14 15  1  0  0  0
 15 16  2  0  0  0
 16 17  1  0  0  0
 16 18  1  0  0  0
 18 19  2  0  0  0
 32 27  1  0  0  0
 37 33  1  0  0  0
 12  7  1  0  0  0
 19 13  1  0  0  0
  1  4  1  0  0  0
 23 26  1  0  0  0
 17 20  1  0  0  0
 17 21  1  0  0  0
M  END
> <minimizedAffinity>
-6.47410

> <CNNscore>
0.2235038728

> <CNNaffinity>
6.1534409523

> <CNN_VS>
1.3753179312

> <CNNaffinity_variance>
0.0908458978

$$$$
[H]c1nc([H])n(-c2nc(C(=O)N([H])C([H])(C(=O)N([H])[C@@]([H])(c3c([H])c([H])c(-c4c([H])nc(N([H])[H])nc4[H])c([H])c3[H])C([H])([H])[H])C(C([H])([H])[H])(C([H])([H])[H])C([H])([H])[H])c([H])c([H])c2[H])n1


 41 44  0  0  0  0  0  0  0  0999 V2000
  154.8465  137.5694  187.1045 N   0  0  0  0  0  0  0  0  0  0  0  0
  154.2507  137.2260  188.3282 C   0  0  0  0  0  0  0  0  0  0  0  0
  152.9963  137.5662  188.4187 O   0  0  0  0  0  0  0  0  0  0  0  0
  155.8286  137.3355  186.9192 H   0  0  0  0  0  0  0  0  0  0  0  0
  153.4417  137.1690  185.1672 C   0  0  0  0  0  0  0  0  0  0  0  0
  154.1093  138.2482  186.0655 C   0  0  0  0  0  0  0  0  0  0  0  0
  154.9473  139.0352  185.1393 C   0  0  0  0  0  0  0  0  0  0  0  0
  154.3234  139.6490  184.0736 C   0  0  0  0  0  0  0  0  0  0  0  0
  155.0730  140.3966  183.1543 C   0  0  0  0  0  0  0  0  0  0  0  0
  156.4479  140.5297  183.3017 C   0  0  0  0  0  0  0  0  0  0  0  0
  157.0460  139.9081  184.3743 C   0  0  0  0  0  0  0  0  0  0  0  0
  156.3100  139.1697  185.2829 C   0  0  0  0  0  0  0  0  0  0  0  0
  157.2380  141.2876  182.3410 C   0  0  0  0  0  0  0  0  0  0  0  0
  158.1487  140.6848  181.4734 C   0  0  0  0  0  0  0  0  0  0  0  0
  158.8619  141.4695  180.5999 N   0  0  0  0  0  0  0  0  0  0  0  0
  158.7097  142.7917  180.5551 C   0  0  0  0  0  0  0  0  0  0  0  0
  159.4376  143.6266  179.6584 N   0  0  0  0  0  0  0  0  0  0  0  0
  157.8282  143.3893  181.3916 N   0  0  0  0  0  0  0  0  0  0  0  0
  157.1078  142.6594  182.2649 C   0  0  0  0  0  0  0  0  0  0  0  0
  159.4563  143.3600  178.6560 H   0  0  0  0  0  0  0  0  0  0  0  0
  159.9447  144.4829  179.9518 H   0  0  0  0  0  0  0  0  0  0  0  0
  154.8174  136.5562  189.4830 C   0  0  0  0  0  0  0  0  0  0  0  0
  156.1211  135.9880  189.0925 N   0  0  0  0  0  0  0  0  0  0  0  0
  156.3198  134.7029  188.5972 C   0  0  0  0  0  0  0  0  0  0  0  0
  155.3332  133.9393  188.4557 O   0  0  0  0  0  0  0  0  0  0  0  0
  156.9776  136.6196  189.2043 H   0  0  0  0  0  0  0  0  0  0  0  0
  157.6373  134.1908  188.2332 C   0  0  0  0  0  0  0  0  0  0  0  0
  158.7926  134.9133  188.4064 C   0  0  0  0  0  0  0  0  0  0  0  0
  160.0080  134.3748  188.0629 C   0  0  0  0  0  0  0  0  0  0  0  0
  160.0565  133.1070  187.5441 C   0  0  0  0  0  0  0  0  0  0  0  0
  158.8965  132.3567  187.3597 C   0  0  0  0  0  0  0  0  0  0  0  0
  157.7556  132.9382  187.7129 N   0  0  0  0  0  0  0  0  0  0  0  0
  158.9569  131.0387  186.8304 N   0  0  0  0  0  0  0  0  0  0  0  0
  160.0792  130.3722  186.5076 C   0  0  0  0  0  0  0  0  0  0  0  0
  159.7288  129.1459  186.0394 N   0  0  0  0  0  0  0  0  0  0  0  0
  158.3892  129.0675  186.0780 C   0  0  0  0  0  0  0  0  0  0  0  0
  157.9584  130.2425  186.5671 N   0  0  0  0  0  0  0  0  0  0  0  0
  155.0432  137.3251  190.7286 C   0  0  0  0  0  0  0  0  0  0  0  0
  153.8845  136.9491  191.6819 C   0  0  0  0  0  0  0  0  0  0  0  0
  154.9761  138.8163  190.6113 C   0  0  0  0  0  0  0  0  0  0  0  0
  156.3410  136.8817  191.3495 C   0  0  0  0  0  0  0  0  0  0  0  0
  5  6  1  0  0  0
  6  1  1  0  0  0
  1  2  1  0  0  0
  2  3  2  0  0  0
  2 22  1  0  0  0
 22 23  1  0  0  0
 23 24  1  0  0  0
 24 25  2  0  0  0
 24 27  1  0  0  0
 27 28  2  0  0  0
 28 29  1  0  0  0
 29 30  2  0  0  0
 30 31  1  0  0  0
 31 32  2  0  0  0
 31 33  1  0  0  0
 33 34  1  0  0  0
 34 35  2  0  0  0
 35 36  1  0  0  0
 36 37  2  0  0  0
 22 38  1  0  0  0
 38 39  1  0  0  0
 38 40  1  0  0  0
 38 41  1  0  0  0
  6  7  1  0  0  0
  7  8  2  0  0  0
  8  9  1  0  0  0
  9 10  2  0  0  0
 10 11  1  0  0  0
 11 12  2  0  0  0
 10 13  1  0  0  0
 13 14  2  0  0  0
 14 15  1  0  0  0
 15 16  2  0  0  0
 16 17  1  0  0  0
 16 18  1  0  0  0
 18 19  2  0  0  0
 32 27  1  0  0  0
 37 33  1  0  0  0
 12  7  1  0  0  0
 19 13  1  0  0  0
  1  4  1  0  0  0
 23 26  1  0  0  0
 17 20  1  0  0  0
 17 21  1  0  0  0
M  END
> <minimizedAffinity>
-8.18245

> <CNNscore>
0.2076930255

> <CNNaffinity>
6.1780714989

> <CNN_VS>
1.2831423283

> <CNNaffinity_variance>
0.1784991473

$$$$
[H]c1nc([H])n(-c2nc(C(=O)N([H])C([H])(C(=O)N([H])[C@@]([H])(c3c([H])c([H])c(-c4c([H])nc(N([H])[H])nc4[H])c([H])c3[H])C([H])([H])[H])C(C([H])([H])[H])(C([H])([H])[H])C([H])([H])[H])c([H])c([H])c2[H])n1


 41 44  0  0  0  0  0  0  0  0999 V2000
  155.5444  134.6253  186.8911 N   0  0  0  0  0  0  0  0  0  0  0  0
  154.7471  135.7645  186.6987 C   0  0  0  0  0  0  0  0  0  0  0  0
  153.6203  135.5238  186.0907 O   0  0  0  0  0  0  0  0  0  0  0  0
  156.4478  134.6968  187.3731 H   0  0  0  0  0  0  0  0  0  0  0  0
  155.4187  132.2988  187.5683 C   0  0  0  0  0  0  0  0  0  0  0  0
  155.1275  133.3212  186.4337 C   0  0  0  0  0  0  0  0  0  0  0  0
  155.8846  132.8126  185.2728 C   0  0  0  0  0  0  0  0  0  0  0  0
  155.4343  133.1523  184.0144 C   0  0  0  0  0  0  0  0  0  0  0  0
  156.1063  132.6846  182.8761 C   0  0  0  0  0  0  0  0  0  0  0  0
  157.2295  131.8763  182.9976 C   0  0  0  0  0  0  0  0  0  0  0  0
  157.6588  131.5527  184.2647 C   0  0  0  0  0  0  0  0  0  0  0  0
  156.9985  132.0118  185.3896 C   0  0  0  0  0  0  0  0  0  0  0  0
  157.9225  131.3692  181.8212 C   0  0  0  0  0  0  0  0  0  0  0  0
  158.2857  132.1865  180.7509 C   0  0  0  0  0  0  0  0  0  0  0  0
  158.9319  131.6314  179.6731 N   0  0  0  0  0  0  0  0  0  0  0  0
  159.2238  130.3332  179.6186 C   0  0  0  0  0  0  0  0  0  0  0  0
  159.8931  129.7342  178.5121 N   0  0  0  0  0  0  0  0  0  0  0  0
  158.8774  129.5288  180.6514 N   0  0  0  0  0  0  0  0  0  0  0  0
  158.2422  130.0298  181.7284 C   0  0  0  0  0  0  0  0  0  0  0  0
  160.7641  130.1836  178.1721 H   0  0  0  0  0  0  0  0  0  0  0  0
  159.5595  128.8767  178.0326 H   0  0  0  0  0  0  0  0  0  0  0  0
  154.9895  137.1438  187.0754 C   0  0  0  0  0  0  0  0  0  0  0  0
  154.6658  138.0009  185.9196 N   0  0  0  0  0  0  0  0  0  0  0  0
  155.5528  138.8709  185.2930 C   0  0  0  0  0  0  0  0  0  0  0  0
  156.7316  138.9573  185.7166 O   0  0  0  0  0  0  0  0  0  0  0  0
  153.6667  137.9454  185.5404 H   0  0  0  0  0  0  0  0  0  0  0  0
  155.1736  139.7022  184.1548 C   0  0  0  0  0  0  0  0  0  0  0  0
  153.8683  139.8924  183.7717 C   0  0  0  0  0  0  0  0  0  0  0  0
  153.5675  140.7002  182.7030 C   0  0  0  0  0  0  0  0  0  0  0  0
  154.5850  141.3155  182.0210 C   0  0  0  0  0  0  0  0  0  0  0  0
  155.9162  141.1359  182.3925 C   0  0  0  0  0  0  0  0  0  0  0  0
  156.1357  140.3421  183.4346 N   0  0  0  0  0  0  0  0  0  0  0  0
  156.9646  141.7859  181.6859 N   0  0  0  0  0  0  0  0  0  0  0  0
  157.4701  142.9989  181.9709 C   0  0  0  0  0  0  0  0  0  0  0  0
  158.4561  143.2722  181.0770 N   0  0  0  0  0  0  0  0  0  0  0  0
  158.5494  142.2218  180.2463 C   0  0  0  0  0  0  0  0  0  0  0  0
  157.6227  141.3380  180.6532 N   0  0  0  0  0  0  0  0  0  0  0  0
  154.2757  137.7131  188.2416 C   0  0  0  0  0  0  0  0  0  0  0  0
  155.3565  138.3841  189.1215 C   0  0  0  0  0  0  0  0  0  0  0  0
  153.5953  136.7343  189.1478 C   0  0  0  0  0  0  0  0  0  0  0  0
  153.3195  138.7722  187.7616 C   0  0  0  0  0  0  0  0  0  0  0  0
  5  6  1  0  0  0
  6  1  1  0  0  0
  1  2  1  0  0  0
  2  3  2  0  0  0
  2 22  1  0  0  0
 22 23  1  0  0  0
 23 24  1  0  0  0
 24 25  2  0  0  0
 24 27  1  0  0  0
 27 28  2  0  0  0
 28 29  1  0  0  0
 29 30  2  0  0  0
 30 31  1  0  0  0
 31 32  2  0  0  0
 31 33  1  0  0  0
 33 34  1  0  0  0
 34 35  2  0  0  0
 35 36  1  0  0  0
 36 37  2  0  0  0
 22 38  1  0  0  0
 38 39  1  0  0  0
 38 40  1  0  0  0
 38 41  1  0  0  0
  6  7  1  0  0  0
  7  8  2  0  0  0
  8  9  1  0  0  0
  9 10  2  0  0  0
 10 11  1  0  0  0
 11 12  2  0  0  0
 10 13  1  0  0  0
 13 14  2  0  0  0
 14 15  1  0  0  0
 15 16  2  0  0  0
 16 17  1  0  0  0
 16 18  1  0  0  0
 18 19  2  0  0  0
 32 27  1  0  0  0
 37 33  1  0  0  0
 12  7  1  0  0  0
 19 13  1  0  0  0
  1  4  1  0  0  0
 23 26  1  0  0  0
 17 20  1  0  0  0
 17 21  1  0  0  0
M  END
> <minimizedAffinity>
-7.49015

> <CNNscore>
0.1915318519

> <CNNaffinity>
6.0277547836

> <CNN_VS>
1.1545070410

> <CNNaffinity_variance>
0.0757929981

$$$$
[H]c1nc([H])n(-c2nc(C(=O)N([H])C([H])(C(=O)N([H])[C@@]([H])(c3c([H])c([H])c(-c4c([H])nc(N([H])[H])nc4[H])c([H])c3[H])C([H])([H])[H])C(C([H])([H])[H])(C([H])([H])[H])C([H])([H])[H])c([H])c([H])c2[H])n1


 41 44  0  0  0  0  0  0  0  0999 V2000
  154.6243  137.4142  187.2190 N   0  0  0  0  0  0  0  0  0  0  0  0
  153.9928  137.1171  188.4370 C   0  0  0  0  0  0  0  0  0  0  0  0
  152.7267  137.4233  188.4637 O   0  0  0  0  0  0  0  0  0  0  0  0
  155.6189  137.2008  187.0821 H   0  0  0  0  0  0  0  0  0  0  0  0
  153.4029  136.8726  185.1937 C   0  0  0  0  0  0  0  0  0  0  0  0
  153.9078  138.0152  186.1194 C   0  0  0  0  0  0  0  0  0  0  0  0
  154.7391  138.8633  185.2423 C   0  0  0  0  0  0  0  0  0  0  0  0
  154.1078  139.5445  184.2228 C   0  0  0  0  0  0  0  0  0  0  0  0
  154.8507  140.3527  183.3506 C   0  0  0  0  0  0  0  0  0  0  0  0
  156.2262  140.4789  183.4987 C   0  0  0  0  0  0  0  0  0  0  0  0
  156.8316  139.7893  184.5246 C   0  0  0  0  0  0  0  0  0  0  0  0
  156.1023  138.9911  185.3867 C   0  0  0  0  0  0  0  0  0  0  0  0
  157.0093  141.3001  182.5855 C   0  0  0  0  0  0  0  0  0  0  0  0
  156.9195  142.6918  182.5596 C   0  0  0  0  0  0  0  0  0  0  0  0
  157.6869  143.3961  181.6637 N   0  0  0  0  0  0  0  0  0  0  0  0
  158.5168  142.7894  180.8171 C   0  0  0  0  0  0  0  0  0  0  0  0
  159.3226  143.4977  179.8790 N   0  0  0  0  0  0  0  0  0  0  0  0
  158.6138  141.4388  180.8325 N   0  0  0  0  0  0  0  0  0  0  0  0
  157.8802  140.7077  181.6936 C   0  0  0  0  0  0  0  0  0  0  0  0
  159.8881  144.2934  180.2301 H   0  0  0  0  0  0  0  0  0  0  0  0
  159.3756  143.2604  178.8703 H   0  0  0  0  0  0  0  0  0  0  0  0
  154.5343  136.5259  189.6455 C   0  0  0  0  0  0  0  0  0  0  0  0
  155.8897  136.0271  189.3472 N   0  0  0  0  0  0  0  0  0  0  0  0
  156.2059  134.7129  189.0167 C   0  0  0  0  0  0  0  0  0  0  0  0
  155.2893  133.8569  188.9555 O   0  0  0  0  0  0  0  0  0  0  0  0
  156.6883  136.7379  189.3933 H   0  0  0  0  0  0  0  0  0  0  0  0
  157.5698  134.2739  188.7381 C   0  0  0  0  0  0  0  0  0  0  0  0
  158.3983  134.9260  187.8577 C   0  0  0  0  0  0  0  0  0  0  0  0
  159.6794  134.4795  187.6472 C   0  0  0  0  0  0  0  0  0  0  0  0
  160.1236  133.3741  188.3253 C   0  0  0  0  0  0  0  0  0  0  0  0
  159.2995  132.6973  189.2227 C   0  0  0  0  0  0  0  0  0  0  0  0
  158.0729  133.1828  189.3784 N   0  0  0  0  0  0  0  0  0  0  0  0
  159.7716  131.5577  189.9295 N   0  0  0  0  0  0  0  0  0  0  0  0
  160.5339  130.5756  189.4173 C   0  0  0  0  0  0  0  0  0  0  0  0
  160.7804  129.6694  190.3990 N   0  0  0  0  0  0  0  0  0  0  0  0
  160.1656  130.1026  191.5110 C   0  0  0  0  0  0  0  0  0  0  0  0
  159.5629  131.2573  191.1810 N   0  0  0  0  0  0  0  0  0  0  0  0
  154.6436  137.3515  190.8703 C   0  0  0  0  0  0  0  0  0  0  0  0
  155.8596  136.8014  191.6523 C   0  0  0  0  0  0  0  0  0  0  0  0
  153.4989  137.2698  191.8320 C   0  0  0  0  0  0  0  0  0  0  0  0
  154.9287  138.7764  190.4767 C   0  0  0  0  0  0  0  0  0  0  0  0
  5  6  1  0  0  0
  6  1  1  0  0  0
  1  2  1  0  0  0
  2  3  2  0  0  0
  2 22  1  0  0  0
 22 23  1  0  0  0
 23 24  1  0  0  0
 24 25  2  0  0  0
 24 27  1  0  0  0
 27 28  2  0  0  0
 28 29  1  0  0  0
 29 30  2  0  0  0
 30 31  1  0  0  0
 31 32  2  0  0  0
 31 33  1  0  0  0
 33 34  1  0  0  0
 34 35  2  0  0  0
 35 36  1  0  0  0
 36 37  2  0  0  0
 22 38  1  0  0  0
 38 39  1  0  0  0
 38 40  1  0  0  0
 38 41  1  0  0  0
  6  7  1  0  0  0
  7  8  2  0  0  0
  8  9  1  0  0  0
  9 10  2  0  0  0
 10 11  1  0  0  0
 11 12  2  0  0  0
 10 13  1  0  0  0
 13 14  2  0  0  0
 14 15  1  0  0  0
 15 16  2  0  0  0
 16 17  1  0  0  0
 16 18  1  0  0  0
 18 19  2  0  0  0
 32 27  1  0  0  0
 37 33  1  0  0  0
 12  7  1  0  0  0
 19 13  1  0  0  0
  1  4  1  0  0  0
 23 26  1  0  0  0
 17 20  1  0  0  0
 17 21  1  0  0  0
M  END
> <minimizedAffinity>
-8.25735

> <CNNscore>
0.1883711219

> <CNNaffinity>
6.1002082825

> <CNN_VS>
1.1491030455

> <CNNaffinity_variance>
0.1595295966

$$$$
[H]c1nc([H])n(-c2nc(C(=O)N([H])C([H])(C(=O)N([H])[C@@]([H])(c3c([H])c([H])c(-c4c([H])nc(N([H])[H])nc4[H])c([H])c3[H])C([H])([H])[H])C(C([H])([H])[H])(C([H])([H])[H])C([H])([H])[H])c([H])c([H])c2[H])n1


 41 44  0  0  0  0  0  0  0  0999 V2000
  154.8085  136.3365  189.3655 N   0  0  0  0  0  0  0  0  0  0  0  0
  155.5345  135.5622  190.2841 C   0  0  0  0  0  0  0  0  0  0  0  0
  156.6341  136.1258  190.6971 O   0  0  0  0  0  0  0  0  0  0  0  0
  153.9180  135.9956  188.9855 H   0  0  0  0  0  0  0  0  0  0  0  0
  154.5971  138.7096  189.8246 C   0  0  0  0  0  0  0  0  0  0  0  0
  155.2732  137.6321  188.9307 C   0  0  0  0  0  0  0  0  0  0  0  0
  154.8773  137.9903  187.5542 C   0  0  0  0  0  0  0  0  0  0  0  0
  153.5315  138.1355  187.2909 C   0  0  0  0  0  0  0  0  0  0  0  0
  153.0981  138.4604  185.9976 C   0  0  0  0  0  0  0  0  0  0  0  0
  154.0125  138.6396  184.9673 C   0  0  0  0  0  0  0  0  0  0  0  0
  155.3498  138.4899  185.2567 C   0  0  0  0  0  0  0  0  0  0  0  0
  155.7809  138.1694  186.5309 C   0  0  0  0  0  0  0  0  0  0  0  0
  153.5710  138.9575  183.6162 C   0  0  0  0  0  0  0  0  0  0  0  0
  153.9139  140.1465  182.9725 C   0  0  0  0  0  0  0  0  0  0  0  0
  153.4523  140.3762  181.6991 N   0  0  0  0  0  0  0  0  0  0  0  0
  152.6858  139.4959  181.0579 C   0  0  0  0  0  0  0  0  0  0  0  0
  152.1949  139.7113  179.7375 N   0  0  0  0  0  0  0  0  0  0  0  0
  152.3463  138.3373  181.6713 N   0  0  0  0  0  0  0  0  0  0  0  0
  152.7758  138.0702  182.9197 C   0  0  0  0  0  0  0  0  0  0  0  0
  152.8746  140.0024  179.0098 H   0  0  0  0  0  0  0  0  0  0  0  0
  151.2008  139.5912  179.4658 H   0  0  0  0  0  0  0  0  0  0  0  0
  155.2413  134.2522  190.8329 C   0  0  0  0  0  0  0  0  0  0  0  0
  153.8294  134.2365  191.2590 N   0  0  0  0  0  0  0  0  0  0  0  0
  153.3008  134.9795  192.3101 C   0  0  0  0  0  0  0  0  0  0  0  0
  154.0558  135.7363  192.9686 O   0  0  0  0  0  0  0  0  0  0  0  0
  153.1659  133.5986  190.7132 H   0  0  0  0  0  0  0  0  0  0  0  0
  151.8934  134.9181  192.6924 C   0  0  0  0  0  0  0  0  0  0  0  0
  151.4473  135.2405  193.9508 C   0  0  0  0  0  0  0  0  0  0  0  0
  150.1087  135.1823  194.2505 C   0  0  0  0  0  0  0  0  0  0  0  0
  149.2208  134.7978  193.2795 C   0  0  0  0  0  0  0  0  0  0  0  0
  149.6520  134.4661  191.9964 C   0  0  0  0  0  0  0  0  0  0  0  0
  150.9595  134.5441  191.7750 N   0  0  0  0  0  0  0  0  0  0  0  0
  148.7233  134.0783  190.9923 N   0  0  0  0  0  0  0  0  0  0  0  0
  148.8600  134.2902  189.6715 C   0  0  0  0  0  0  0  0  0  0  0  0
  147.7726  133.7747  189.0409 N   0  0  0  0  0  0  0  0  0  0  0  0
  146.9729  133.2482  189.9819 C   0  0  0  0  0  0  0  0  0  0  0  0
  147.5903  133.4544  191.1574 N   0  0  0  0  0  0  0  0  0  0  0  0
  155.4458  133.0510  189.9907 C   0  0  0  0  0  0  0  0  0  0  0  0
  156.7789  133.2752  189.2389 C   0  0  0  0  0  0  0  0  0  0  0  0
  154.4326  132.8129  188.9143 C   0  0  0  0  0  0  0  0  0  0  0  0
  155.5922  131.8468  190.8822 C   0  0  0  0  0  0  0  0  0  0  0  0
  5  6  1  0  0  0
  6  1  1  0  0  0
  1  2  1  0  0  0
  2  3  2  0  0  0
  2 22  1  0  0  0
 22 23  1  0  0  0
 23 24  1  0  0  0
 24 25  2  0  0  0
 24 27  1  0  0  0
 27 28  2  0  0  0
 28 29  1  0  0  0
 29 30  2  0  0  0
 30 31  1  0  0  0
 31 32  2  0  0  0
 31 33  1  0  0  0
 33 34  1  0  0  0
 34 35  2  0  0  0
 35 36  1  0  0  0
 36 37  2  0  0  0
 22 38  1  0  0  0
 38 39  1  0  0  0
 38 40  1  0  0  0
 38 41  1  0  0  0
  6  7  1  0  0  0
  7  8  2  0  0  0
  8  9  1  0  0  0
  9 10  2  0  0  0
 10 11  1  0  0  0
 11 12  2  0  0  0
 10 13  1  0  0  0
 13 14  2  0  0  0
 14 15  1  0  0  0
 15 16  2  0  0  0
 16 17  1  0  0  0
 16 18  1  0  0  0
 18 19  2  0  0  0
 32 27  1  0  0  0
 37 33  1  0  0  0
 12  7  1  0  0  0
 19 13  1  0  0  0
  1  4  1  0  0  0
 23 26  1  0  0  0
 17 20  1  0  0  0
 17 21  1  0  0  0
M  END
> <minimizedAffinity>
-6.64902

> <CNNscore>
0.1674329340

> <CNNaffinity>
5.8581051826

> <CNN_VS>
0.9808397293

> <CNNaffinity_variance>
0.0419686139

$$$$
[H]OC([H])([H])[C@@]1([H])OC([H])(n2c([H])nc3c([H])c([H])c([H])nc32)[C@]([H])(O[H])[C@@]([H])(O[H])[C@]1([H])O[H]


 24 26  0  0  0  0  0  0  0  0999 V2000
  155.7310  137.0718  190.8537 C   0  0  0  0  0  0  0  0  0  0  0  0
  155.2661  136.4748  191.9516 O   0  0  0  0  0  0  0  0  0  0  0  0
  154.3920  135.4611  191.9311 C   0  0  0  0  0  0  0  0  0  0  0  0
  154.3043  134.6605  190.6647 C   0  0  0  0  0  0  0  0  0  0  0  0
  154.3479  133.2789  190.8866 O   0  0  0  0  0  0  0  0  0  0  0  0
  155.4319  134.9771  189.6879 C   0  0  0  0  0  0  0  0  0  0  0  0
  155.1864  134.3286  188.5002 O   0  0  0  0  0  0  0  0  0  0  0  0
  155.3411  136.5020  189.5268 C   0  0  0  0  0  0  0  0  0  0  0  0
  156.2447  136.8917  188.5457 O   0  0  0  0  0  0  0  0  0  0  0  0
  155.2281  133.0840  191.2832 H   0  0  0  0  0  0  0  0  0  0  0  0
  154.4139  133.7101  188.5285 H   0  0  0  0  0  0  0  0  0  0  0  0
  155.7139  137.0757  187.7286 H   0  0  0  0  0  0  0  0  0  0  0  0
  153.0943  135.8910  192.3904 N   0  0  0  0  0  0  0  0  0  0  0  0
  152.6679  137.1532  192.4128 C   0  0  0  0  0  0  0  0  0  0  0  0
  151.4311  137.2185  192.8906 N   0  0  0  0  0  0  0  0  0  0  0  0
  151.0427  135.9531  193.1884 C   0  0  0  0  0  0  0  0  0  0  0  0
  149.8695  135.4665  193.7048 C   0  0  0  0  0  0  0  0  0  0  0  0
  149.7649  134.1151  193.9014 C   0  0  0  0  0  0  0  0  0  0  0  0
  150.8210  133.3028  193.5802 C   0  0  0  0  0  0  0  0  0  0  0  0
  151.9520  133.8031  193.0787 N   0  0  0  0  0  0  0  0  0  0  0  0
  152.0752  135.1244  192.8783 C   0  0  0  0  0  0  0  0  0  0  0  0
  154.5306  138.8160  189.7150 O   0  0  0  0  0  0  0  0  0  0  0  0
  155.4115  138.5739  190.7925 C   0  0  0  0  0  0  0  0  0  0  0  0
  153.6479  139.0957  190.0921 H   0  0  0  0  0  0  0  0  0  0  0  0
 22 23  1  0  0  0
 23  1  1  0  0  0
  1  2  1  0  0  0
  2  3  1  0  0  0
  3  4  1  0  0  0
  4  5  1  0  0  0
  4  6  1  0  0  0
  6  7  1  0  0  0
  6  8  1  0  0  0
  8  9  1  0  0  0
  3 13  1  0  0  0
 13 14  1  0  0  0
 14 15  2  0  0  0
 15 16  1  0  0  0
 16 17  2  0  0  0
 17 18  1  0  0  0
 18 19  2  0  0  0
 19 20  1  0  0  0
 20 21  2  0  0  0
  8  1  1  0  0  0
 21 13  1  0  0  0
 21 16  1  0  0  0
 22 24  1  0  0  0
  5 10  1  0  0  0
  7 11  1  0  0  0
  9 12  1  0  0  0
M  END
> <minimizedAffinity>
-4.49684

> <CNNscore>
0.4477027953

> <CNNaffinity>
3.6265170574

> <CNN_VS>
1.6236017942

> <CNNaffinity_variance>
0.1389372349

$$$$
[H]OC([H])([H])[C@@]1([H])OC([H])(n2c([H])nc3c([H])c([H])c([H])nc32)[C@]([H])(O[H])[C@@]([H])(O[H])[C@]1([H])O[H]


 24 26  0  0  0  0  0  0  0  0999 V2000
  157.0007  135.5338  188.9363 C   0  0  0  0  0  0  0  0  0  0  0  0
  156.9113  136.7665  188.4359 O   0  0  0  0  0  0  0  0  0  0  0  0
  156.0296  137.6785  188.8635 C   0  0  0  0  0  0  0  0  0  0  0  0
  155.4662  137.4901  190.2417 C   0  0  0  0  0  0  0  0  0  0  0  0
  155.5078  138.6570  191.0141 O   0  0  0  0  0  0  0  0  0  0  0  0
  156.2030  136.4182  191.0381 C   0  0  0  0  0  0  0  0  0  0  0  0
  155.5274  136.1960  192.2153 O   0  0  0  0  0  0  0  0  0  0  0  0
  156.1461  135.1917  190.1153 C   0  0  0  0  0  0  0  0  0  0  0  0
  156.6755  134.1050  190.8007 O   0  0  0  0  0  0  0  0  0  0  0  0
  156.4587  138.8875  191.1270 H   0  0  0  0  0  0  0  0  0  0  0  0
  154.7794  136.8239  192.3778 H   0  0  0  0  0  0  0  0  0  0  0  0
  155.9062  133.5491  191.0880 H   0  0  0  0  0  0  0  0  0  0  0  0
  154.9959  137.8951  187.8814 N   0  0  0  0  0  0  0  0  0  0  0  0
  153.7016  137.6335  188.0596 C   0  0  0  0  0  0  0  0  0  0  0  0
  153.0098  137.9418  186.9694 N   0  0  0  0  0  0  0  0  0  0  0  0
  153.8877  138.4201  186.0522 C   0  0  0  0  0  0  0  0  0  0  0  0
  153.6986  138.8752  184.7728 C   0  0  0  0  0  0  0  0  0  0  0  0
  154.7957  139.3037  184.0738 C   0  0  0  0  0  0  0  0  0  0  0  0
  156.0308  139.2650  184.6666 C   0  0  0  0  0  0  0  0  0  0  0  0
  156.1865  138.8171  185.9141 N   0  0  0  0  0  0  0  0  0  0  0  0
  155.1246  138.3925  186.6164 C   0  0  0  0  0  0  0  0  0  0  0  0
  155.4749  133.8831  188.0836 O   0  0  0  0  0  0  0  0  0  0  0  0
  156.7628  134.4312  187.8923 C   0  0  0  0  0  0  0  0  0  0  0  0
  154.9106  134.1336  187.2973 H   0  0  0  0  0  0  0  0  0  0  0  0
 22 23  1  0  0  0
 23  1  1  0  0  0
  1  2  1  0  0  0
  2  3  1  0  0  0
  3  4  1  0  0  0
  4  5  1  0  0  0
  4  6  1  0  0  0
  6  7  1  0  0  0
  6  8  1  0  0  0
  8  9  1  0  0  0
  3 13  1  0  0  0
 13 14  1  0  0  0
 14 15  2  0  0  0
 15 16  1  0  0  0
 16 17  2  0  0  0
 17 18  1  0  0  0
 18 19  2  0  0  0
 19 20  1  0  0  0
 20 21  2  0  0  0
  8  1  1  0  0  0
 21 13  1  0  0  0
 21 16  1  0  0  0
 22 24  1  0  0  0
  5 10  1  0  0  0
  7 11  1  0  0  0
  9 12  1  0  0  0
M  END
> <minimizedAffinity>
-4.32517

> <CNNscore>
0.4245693088

> <CNNaffinity>
3.8576025963

> <CNN_VS>
1.6378196478

> <CNNaffinity_variance>
0.0722377449

$$$$
[H]OC([H])([H])[C@@]1([H])OC([H])(n2c([H])nc3c([H])c([H])c([H])nc32)[C@]([H])(O[H])[C@@]([H])(O[H])[C@]1([H])O[H]


 24 26  0  0  0  0  0  0  0  0999 V2000
  158.5341  143.0433  181.9066 C   0  0  0  0  0  0  0  0  0  0  0  0
  159.5808  142.2177  181.8773 O   0  0  0  0  0  0  0  0  0  0  0  0
  159.7977  141.2623  182.7894 C   0  0  0  0  0  0  0  0  0  0  0  0
  158.6107  140.7853  183.5743 C   0  0  0  0  0  0  0  0  0  0  0  0
  158.5127  139.3897  183.6243 O   0  0  0  0  0  0  0  0  0  0  0  0
  157.2880  141.2914  183.0085 C   0  0  0  0  0  0  0  0  0  0  0  0
  156.2745  140.9480  183.8725 O   0  0  0  0  0  0  0  0  0  0  0  0
  157.4883  142.8132  182.9509 C   0  0  0  0  0  0  0  0  0  0  0  0
  156.2858  143.3976  182.5721 O   0  0  0  0  0  0  0  0  0  0  0  0
  158.3806  139.0822  182.6980 H   0  0  0  0  0  0  0  0  0  0  0  0
  156.5590  140.3622  184.6181 H   0  0  0  0  0  0  0  0  0  0  0  0
  155.8871  143.7836  183.3938 H   0  0  0  0  0  0  0  0  0  0  0  0
  160.9073  141.6081  183.6432 N   0  0  0  0  0  0  0  0  0  0  0  0
  162.1932  141.4507  183.3314 C   0  0  0  0  0  0  0  0  0  0  0  0
  162.9678  141.8632  184.3275 N   0  0  0  0  0  0  0  0  0  0  0  0
  162.1542  142.3035  185.3201 C   0  0  0  0  0  0  0  0  0  0  0  0
  162.4381  142.8271  186.5549 C   0  0  0  0  0  0  0  0  0  0  0  0
  161.3885  143.1898  187.3565 C   0  0  0  0  0  0  0  0  0  0  0  0
  160.1053  143.0204  186.9059 C   0  0  0  0  0  0  0  0  0  0  0  0
  159.8573  142.5081  185.6988 N   0  0  0  0  0  0  0  0  0  0  0  0
  160.8713  142.1462  184.8976 C   0  0  0  0  0  0  0  0  0  0  0  0
  159.5947  144.7478  183.2293 O   0  0  0  0  0  0  0  0  0  0  0  0
  158.9272  144.5259  182.0042 C   0  0  0  0  0  0  0  0  0  0  0  0
  160.5493  144.9659  183.0280 H   0  0  0  0  0  0  0  0  0  0  0  0
 22 23  1  0  0  0
 23  1  1  0  0  0
  1  2  1  0  0  0
  2  3  1  0  0  0
  3  4  1  0  0  0
  4  5  1  0  0  0
  4  6  1  0  0  0
  6  7  1  0  0  0
  6  8  1  0  0  0
  8  9  1  0  0  0
  3 13  1  0  0  0
 13 14  1  0  0  0
 14 15  2  0  0  0
 15 16  1  0  0  0
 16 17  2  0  0  0
 17 18  1  0  0  0
 18 19  2  0  0  0
 19 20  1  0  0  0
 20 21  2  0  0  0
  8  1  1  0  0  0
 21 13  1  0  0  0
 21 16  1  0  0  0
 22 24  1  0  0  0
  5 10  1  0  0  0
  7 11  1  0  0  0
  9 12  1  0  0  0
M  END
> <minimizedAffinity>
-7.40248

> <CNNscore>
0.3741703928

> <CNNaffinity>
4.9610562325

> <CNN_VS>
1.8562803268

> <CNNaffinity_variance>
0.2511907518

$$$$
[H]OC([H])([H])[C@@]1([H])OC([H])(n2c([H])nc3c([H])c([H])c([H])nc32)[C@]([H])(O[H])[C@@]([H])(O[H])[C@]1([H])O[H]


 24 26  0  0  0  0  0  0  0  0999 V2000
  153.9514  135.6276  184.7307 C   0  0  0  0  0  0  0  0  0  0  0  0
  153.9013  136.3573  183.6158 O   0  0  0  0  0  0  0  0  0  0  0  0
  153.5428  137.6467  183.5888 C   0  0  0  0  0  0  0  0  0  0  0  0
  153.6709  138.4181  184.8698 C   0  0  0  0  0  0  0  0  0  0  0  0
  154.3193  139.6480  184.7055 O   0  0  0  0  0  0  0  0  0  0  0  0
  154.4487  137.6591  185.9397 C   0  0  0  0  0  0  0  0  0  0  0  0
  154.3786  138.3594  187.1212 O   0  0  0  0  0  0  0  0  0  0  0  0
  153.7035  136.3192  186.0335 C   0  0  0  0  0  0  0  0  0  0  0  0
  154.2483  135.5894  187.0829 O   0  0  0  0  0  0  0  0  0  0  0  0
  155.2353  139.4466  184.4046 H   0  0  0  0  0  0  0  0  0  0  0  0
  153.9489  139.2477  187.0407 H   0  0  0  0  0  0  0  0  0  0  0  0
  153.6072  135.6551  187.8367 H   0  0  0  0  0  0  0  0  0  0  0  0
  152.2412  137.8067  182.9887 N   0  0  0  0  0  0  0  0  0  0  0  0
  151.0988  137.3518  183.5019 C   0  0  0  0  0  0  0  0  0  0  0  0
  150.0779  137.6599  182.7112 N   0  0  0  0  0  0  0  0  0  0  0  0
  150.5772  138.3385  181.6478 C   0  0  0  0  0  0  0  0  0  0  0  0
  149.9585  138.8788  180.5500 C   0  0  0  0  0  0  0  0  0  0  0  0
  150.7373  139.5188  179.6229 C   0  0  0  0  0  0  0  0  0  0  0  0
  152.0915  139.5983  179.8184 C   0  0  0  0  0  0  0  0  0  0  0  0
  152.6680  139.0633  180.8966 N   0  0  0  0  0  0  0  0  0  0  0  0
  151.9231  138.4318  181.8172 C   0  0  0  0  0  0  0  0  0  0  0  0
  151.9584  134.6118  185.6117 O   0  0  0  0  0  0  0  0  0  0  0  0
  153.0205  134.4048  184.7035 C   0  0  0  0  0  0  0  0  0  0  0  0
  151.1143  134.7108  185.0853 H   0  0  0  0  0  0  0  0  0  0  0  0
 22 23  1  0  0  0
 23  1  1  0  0  0
  1  2  1  0  0  0
  2  3  1  0  0  0
  3  4  1  0  0  0
  4  5  1  0  0  0
  4  6  1  0  0  0
  6  7  1  0  0  0
  6  8  1  0  0  0
  8  9  1  0  0  0
  3 13  1  0  0  0
 13 14  1  0  0  0
 14 15  2  0  0  0
 15 16  1  0  0  0
 16 17  2  0  0  0
 17 18  1  0  0  0
 18 19  2  0  0  0
 19 20  1  0  0  0
 20 21  2  0  0  0
  8  1  1  0  0  0
 21 13  1  0  0  0
 21 16  1  0  0  0
 22 24  1  0  0  0
  5 10  1  0  0  0
  7 11  1  0  0  0
  9 12  1  0  0  0
M  END
> <minimizedAffinity>
-4.31385

> <CNNscore>
0.3534251153

> <CNNaffinity>
3.4634025097

> <CNN_VS>
1.2240533829

> <CNNaffinity_variance>
0.2260679752

$$$$
[H]OC([H])([H])[C@@]1([H])OC([H])(n2c([H])nc3c([H])c([H])c([H])nc32)[C@]([H])(O[H])[C@@]([H])(O[H])[C@]1([H])O[H]


 24 26  0  0  0  0  0  0  0  0999 V2000
  155.9558  132.9792  189.1762 C   0  0  0  0  0  0  0  0  0  0  0  0
  155.7942  133.7394  188.0927 O   0  0  0  0  0  0  0  0  0  0  0  0
  156.6040  134.7560  187.7724 C   0  0  0  0  0  0  0  0  0  0  0  0
  157.9850  134.7403  188.3599 C   0  0  0  0  0  0  0  0  0  0  0  0
  158.9862  134.9794  187.4109 O   0  0  0  0  0  0  0  0  0  0  0  0
  158.3279  133.4110  189.0242 C   0  0  0  0  0  0  0  0  0  0  0  0
  159.5340  133.5364  189.6730 O   0  0  0  0  0  0  0  0  0  0  0  0
  157.1731  133.2042  190.0158 C   0  0  0  0  0  0  0  0  0  0  0  0
  157.4512  132.0780  190.7807 O   0  0  0  0  0  0  0  0  0  0  0  0
  158.9460  134.2373  186.7646 H   0  0  0  0  0  0  0  0  0  0  0  0
  159.9965  134.3956  189.5059 H   0  0  0  0  0  0  0  0  0  0  0  0
  157.7546  132.4049  191.6664 H   0  0  0  0  0  0  0  0  0  0  0  0
  155.9446  136.0226  187.9740 N   0  0  0  0  0  0  0  0  0  0  0  0
  155.3522  136.7395  187.0198 C   0  0  0  0  0  0  0  0  0  0  0  0
  154.8396  137.8547  187.5256 N   0  0  0  0  0  0  0  0  0  0  0  0
  155.1100  137.8602  188.8552 C   0  0  0  0  0  0  0  0  0  0  0  0
  154.8079  138.7711  189.8343 C   0  0  0  0  0  0  0  0  0  0  0  0
  155.2198  138.5020  191.1124 C   0  0  0  0  0  0  0  0  0  0  0  0
  155.9112  137.3468  191.3693 C   0  0  0  0  0  0  0  0  0  0  0  0
  156.1919  136.4770  190.3969 N   0  0  0  0  0  0  0  0  0  0  0  0
  155.7975  136.7216  189.1376 C   0  0  0  0  0  0  0  0  0  0  0  0
  155.0880  133.7942  191.2649 O   0  0  0  0  0  0  0  0  0  0  0  0
  154.7543  133.0163  190.1339 C   0  0  0  0  0  0  0  0  0  0  0  0
  154.5327  134.6254  191.2451 H   0  0  0  0  0  0  0  0  0  0  0  0
 22 23  1  0  0  0
 23  1  1  0  0  0
  1  2  1  0  0  0
  2  3  1  0  0  0
  3  4  1  0  0  0
  4  5  1  0  0  0
  4  6  1  0  0  0
  6  7  1  0  0  0
  6  8  1  0  0  0
  8  9  1  0  0  0
  3 13  1  0  0  0
 13 14  1  0  0  0
 14 15  2  0  0  0
 15 16  1  0  0  0
 16 17  2  0  0  0
 17 18  1  0  0  0
 18 19  2  0  0  0
 19 20  1  0  0  0
 20 21  2  0  0  0
  8  1  1  0  0  0
 21 13  1  0  0  0
 21 16  1  0  0  0
 22 24  1  0  0  0
  5 10  1  0  0  0
  7 11  1  0  0  0
  9 12  1  0  0  0
M  END
> <minimizedAffinity>
-4.34631

> <CNNscore>
0.3487582505

> <CNNaffinity>
3.5367825031

> <CNN_VS>
1.2334821224

> <CNNaffinity_variance>
0.0775602758

$$$$
[H]OC([H])([H])[C@@]1([H])OC([H])(n2c([H])nc3c([H])c([H])c([H])nc32)[C@]([H])(O[H])[C@@]([H])(O[H])[C@]1([H])O[H]


 24 26  0  0  0  0  0  0  0  0999 V2000
  153.4977  136.5378  188.8057 C   0  0  0  0  0  0  0  0  0  0  0  0
  153.1880  137.2960  189.8579 O   0  0  0  0  0  0  0  0  0  0  0  0
  153.9107  137.3327  190.9841 C   0  0  0  0  0  0  0  0  0  0  0  0
  155.3445  136.8996  190.8899 C   0  0  0  0  0  0  0  0  0  0  0  0
  156.2287  137.7981  191.4989 O   0  0  0  0  0  0  0  0  0  0  0  0
  155.8177  136.7371  189.4492 C   0  0  0  0  0  0  0  0  0  0  0  0
  157.0776  136.1857  189.4546 O   0  0  0  0  0  0  0  0  0  0  0  0
  154.7839  135.7752  188.8449 C   0  0  0  0  0  0  0  0  0  0  0  0
  155.1935  135.4462  187.5585 O   0  0  0  0  0  0  0  0  0  0  0  0
  156.1568  138.6458  191.0025 H   0  0  0  0  0  0  0  0  0  0  0  0
  157.4787  136.1007  190.3557 H   0  0  0  0  0  0  0  0  0  0  0  0
  155.5717  134.5308  187.6069 H   0  0  0  0  0  0  0  0  0  0  0  0
  153.2163  136.6741  192.0630 N   0  0  0  0  0  0  0  0  0  0  0  0
  152.4817  137.2875  192.9901 C   0  0  0  0  0  0  0  0  0  0  0  0
  151.9760  136.4046  193.8428 N   0  0  0  0  0  0  0  0  0  0  0  0
  152.3984  135.1753  193.4539 C   0  0  0  0  0  0  0  0  0  0  0  0
  152.1668  133.9318  193.9828 C   0  0  0  0  0  0  0  0  0  0  0  0
  152.7375  132.8525  193.3623 C   0  0  0  0  0  0  0  0  0  0  0  0
  153.5112  133.0462  192.2478 C   0  0  0  0  0  0  0  0  0  0  0  0
  153.7204  134.2681  191.7538 N   0  0  0  0  0  0  0  0  0  0  0  0
  153.1705  135.3393  192.3467 C   0  0  0  0  0  0  0  0  0  0  0  0
  152.7833  134.2442  188.8992 O   0  0  0  0  0  0  0  0  0  0  0  0
  152.4022  135.5242  188.4387 C   0  0  0  0  0  0  0  0  0  0  0  0
  152.1606  133.9807  189.6356 H   0  0  0  0  0  0  0  0  0  0  0  0
 22 23  1  0  0  0
 23  1  1  0  0  0
  1  2  1  0  0  0
  2  3  1  0  0  0
  3  4  1  0  0  0
  4  5  1  0  0  0
  4  6  1  0  0  0
  6  7  1  0  0  0
  6  8  1  0  0  0
  8  9  1  0  0  0
  3 13  1  0  0  0
 13 14  1  0  0  0
 14 15  2  0  0  0
 15 16  1  0  0  0
 16 17  2  0  0  0
 17 18  1  0  0  0
 18 19  2  0  0  0
 19 20  1  0  0  0
 20 21  2  0  0  0
  8  1  1  0  0  0
 21 13  1  0  0  0
 21 16  1  0  0  0
 22 24  1  0  0  0
  5 10  1  0  0  0
  7 11  1  0  0  0
  9 12  1  0  0  0
M  END
> <minimizedAffinity>
-4.17819

> <CNNscore>
0.3397172689

> <CNNaffinity>
3.4812748432

> <CNN_VS>
1.1826491356

> <CNNaffinity_variance>
0.0673177987

$$$$
[H]OC([H])([H])[C@@]1([H])OC([H])(n2c([H])nc3c([H])c([H])c([H])nc32)[C@]([H])(O[H])[C@@]([H])(O[H])[C@]1([H])O[H]


 24 26  0  0  0  0  0  0  0  0999 V2000
  157.6917  140.9767  181.4224 C   0  0  0  0  0  0  0  0  0  0  0  0
  158.7255  140.5376  182.1410 O   0  0  0  0  0  0  0  0  0  0  0  0
  158.7606  140.5575  183.4790 C   0  0  0  0  0  0  0  0  0  0  0  0
  157.4434  140.6146  184.1960 C   0  0  0  0  0  0  0  0  0  0  0  0
  157.3406  139.6736  185.2275 O   0  0  0  0  0  0  0  0  0  0  0  0
  156.2569  140.3712  183.2692 C   0  0  0  0  0  0  0  0  0  0  0  0
  155.0938  140.6015  183.9662 O   0  0  0  0  0  0  0  0  0  0  0  0
  156.4612  141.4084  182.1550 C   0  0  0  0  0  0  0  0  0  0  0  0
  155.3557  141.3690  181.3141 O   0  0  0  0  0  0  0  0  0  0  0  0
  157.3942  138.7851  184.8060 H   0  0  0  0  0  0  0  0  0  0  0  0
  155.2272  140.7678  184.9330 H   0  0  0  0  0  0  0  0  0  0  0  0
  154.8020  142.1611  181.5367 H   0  0  0  0  0  0  0  0  0  0  0  0
  159.6796  141.5619  183.9549 N   0  0  0  0  0  0  0  0  0  0  0  0
  160.7081  141.3356  184.7712 C   0  0  0  0  0  0  0  0  0  0  0  0
  161.3604  142.4642  185.0224 N   0  0  0  0  0  0  0  0  0  0  0  0
  160.7316  143.4571  184.3444 C   0  0  0  0  0  0  0  0  0  0  0  0
  160.9947  144.8000  184.2600 C   0  0  0  0  0  0  0  0  0  0  0  0
  160.1701  145.5693  183.4828 C   0  0  0  0  0  0  0  0  0  0  0  0
  159.1227  144.9812  182.8230 C   0  0  0  0  0  0  0  0  0  0  0  0
  158.8893  143.6710  182.9227 N   0  0  0  0  0  0  0  0  0  0  0  0
  159.6852  142.8992  183.6790 C   0  0  0  0  0  0  0  0  0  0  0  0
  158.3900  141.5878  179.2046 O   0  0  0  0  0  0  0  0  0  0  0  0
  158.0546  142.1249  180.4674 C   0  0  0  0  0  0  0  0  0  0  0  0
  157.6825  141.8606  178.5530 H   0  0  0  0  0  0  0  0  0  0  0  0
 22 23  1  0  0  0
 23  1  1  0  0  0
  1  2  1  0  0  0
  2  3  1  0  0  0
  3  4  1  0  0  0
  4  5  1  0  0  0
  4  6  1  0  0  0
  6  7  1  0  0  0
  6  8  1  0  0  0
  8  9  1  0  0  0
  3 13  1  0  0  0
 13 14  1  0  0  0
 14 15  2  0  0  0
 15 16  1  0  0  0
 16 17  2  0  0  0
 17 18  1  0  0  0
 18 19  2  0  0  0
 19 20  1  0  0  0
 20 21  2  0  0  0
  8  1  1  0  0  0
 21 13  1  0  0  0
 21 16  1  0  0  0
 22 24  1  0  0  0
  5 10  1  0  0  0
  7 11  1  0  0  0
  9 12  1  0  0  0
M  END
> <minimizedAffinity>
-7.23046

> <CNNscore>
0.3218798041

> <CNNaffinity>
4.8730359077

> <CNN_VS>
1.5685318708

> <CNNaffinity_variance>
0.0701340139

$$$$
[H]OC([H])([H])[C@@]1([H])OC([H])(n2c([H])nc3c([H])c([H])c([H])nc32)[C@]([H])(O[H])[C@@]([H])(O[H])[C@]1([H])O[H]


 24 26  0  0  0  0  0  0  0  0999 V2000
  157.8626  142.8653  182.3355 C   0  0  0  0  0  0  0  0  0  0  0  0
  158.7446  142.0189  182.8681 O   0  0  0  0  0  0  0  0  0  0  0  0
  158.5056  141.2928  183.9670 C   0  0  0  0  0  0  0  0  0  0  0  0
  157.0688  141.0521  184.3274 C   0  0  0  0  0  0  0  0  0  0  0  0
  156.7945  139.7101  184.6167 O   0  0  0  0  0  0  0  0  0  0  0  0
  156.1062  141.4602  183.2170 C   0  0  0  0  0  0  0  0  0  0  0  0
  154.8176  141.3615  183.6872 O   0  0  0  0  0  0  0  0  0  0  0  0
  156.4928  142.9195  182.9339 C   0  0  0  0  0  0  0  0  0  0  0  0
  155.5842  143.4427  182.0221 O   0  0  0  0  0  0  0  0  0  0  0  0
  156.9673  139.2019  183.7908 H   0  0  0  0  0  0  0  0  0  0  0  0
  154.7446  140.9540  184.5865 H   0  0  0  0  0  0  0  0  0  0  0  0
  154.9665  144.0219  182.5382 H   0  0  0  0  0  0  0  0  0  0  0  0
  159.2687  141.7870  185.0865 N   0  0  0  0  0  0  0  0  0  0  0  0
  158.7591  142.1418  186.2654 C   0  0  0  0  0  0  0  0  0  0  0  0
  159.7202  142.5543  187.0830 N   0  0  0  0  0  0  0  0  0  0  0  0
  160.8944  142.4634  186.4093 C   0  0  0  0  0  0  0  0  0  0  0  0
  162.1781  142.7607  186.7879 C   0  0  0  0  0  0  0  0  0  0  0  0
  163.1799  142.5632  185.8752 C   0  0  0  0  0  0  0  0  0  0  0  0
  162.8725  142.0813  184.6295 C   0  0  0  0  0  0  0  0  0  0  0  0
  161.6137  141.7999  184.2872 N   0  0  0  0  0  0  0  0  0  0  0  0
  160.6171  141.9862  185.1665 C   0  0  0  0  0  0  0  0  0  0  0  0
  159.1468  144.4843  181.1069 O   0  0  0  0  0  0  0  0  0  0  0  0
  158.3676  144.3155  182.2731 C   0  0  0  0  0  0  0  0  0  0  0  0
  158.6540  145.0974  180.4900 H   0  0  0  0  0  0  0  0  0  0  0  0
 22 23  1  0  0  0
 23  1  1  0  0  0
  1  2  1  0  0  0
  2  3  1  0  0  0
  3  4  1  0  0  0
  4  5  1  0  0  0
  4  6  1  0  0  0
  6  7  1  0  0  0
  6  8  1  0  0  0
  8  9  1  0  0  0
  3 13  1  0  0  0
 13 14  1  0  0  0
 14 15  2  0  0  0
 15 16  1  0  0  0
 16 17  2  0  0  0
 17 18  1  0  0  0
 18 19  2  0  0  0
 19 20  1  0  0  0
 20 21  2  0  0  0
  8  1  1  0  0  0
 21 13  1  0  0  0
 21 16  1  0  0  0
 22 24  1  0  0  0
  5 10  1  0  0  0
  7 11  1  0  0  0
  9 12  1  0  0  0
M  END
> <minimizedAffinity>
-7.06538

> <CNNscore>
0.3035624325

> <CNNaffinity>
4.8607015610

> <CNN_VS>
1.4755263329

> <CNNaffinity_variance>
0.3403222561

$$$$
[H]OC([H])([H])[C@@]1([H])OC([H])(n2c([H])nc3c([H])c([H])c([H])nc32)[C@]([H])(O[H])[C@@]([H])(O[H])[C@]1([H])O[H]


 24 26  0  0  0  0  0  0  0  0999 V2000
  154.8218  135.9391  188.8059 C   0  0  0  0  0  0  0  0  0  0  0  0
  153.7203  136.4192  189.3840 O   0  0  0  0  0  0  0  0  0  0  0  0
  153.7216  137.0806  190.5479 C   0  0  0  0  0  0  0  0  0  0  0  0
  155.0125  137.7200  190.9686 C   0  0  0  0  0  0  0  0  0  0  0  0
  154.8563  139.0490  191.3802 O   0  0  0  0  0  0  0  0  0  0  0  0
  156.0546  137.7322  189.8551 C   0  0  0  0  0  0  0  0  0  0  0  0
  157.2487  138.1814  190.3687 O   0  0  0  0  0  0  0  0  0  0  0  0
  156.1404  136.2569  189.4363 C   0  0  0  0  0  0  0  0  0  0  0  0
  157.1670  136.1255  188.5091 O   0  0  0  0  0  0  0  0  0  0  0  0
  154.5346  139.5516  190.5966 H   0  0  0  0  0  0  0  0  0  0  0  0
  157.1912  138.5081  191.3015 H   0  0  0  0  0  0  0  0  0  0  0  0
  157.9339  135.7213  188.9907 H   0  0  0  0  0  0  0  0  0  0  0  0
  153.1493  136.2750  191.5983 N   0  0  0  0  0  0  0  0  0  0  0  0
  153.8076  135.8272  192.6667 C   0  0  0  0  0  0  0  0  0  0  0  0
  153.0020  135.1152  193.4454 N   0  0  0  0  0  0  0  0  0  0  0  0
  151.7780  135.1014  192.8601 C   0  0  0  0  0  0  0  0  0  0  0  0
  150.5997  134.5154  193.2448 C   0  0  0  0  0  0  0  0  0  0  0  0
  149.5070  134.6764  192.4350 C   0  0  0  0  0  0  0  0  0  0  0  0
  149.6236  135.4078  191.2818 C   0  0  0  0  0  0  0  0  0  0  0  0
  150.7831  135.9677  190.9312 N   0  0  0  0  0  0  0  0  0  0  0  0
  151.8660  135.8222  191.7105 C   0  0  0  0  0  0  0  0  0  0  0  0
  155.5728  133.8009  189.6084 O   0  0  0  0  0  0  0  0  0  0  0  0
  154.7922  134.4157  188.6043 C   0  0  0  0  0  0  0  0  0  0  0  0
  154.9594  133.2877  190.2083 H   0  0  0  0  0  0  0  0  0  0  0  0
 22 23  1  0  0  0
 23  1  1  0  0  0
  1  2  1  0  0  0
  2  3  1  0  0  0
  3  4  1  0  0  0
  4  5  1  0  0  0
  4  6  1  0  0  0
  6  7  1  0  0  0
  6  8  1  0  0  0
  8  9  1  0  0  0
  3 13  1  0  0  0
 13 14  1  0  0  0
 14 15  2  0  0  0
 15 16  1  0  0  0
 16 17  2  0  0  0
 17 18  1  0  0  0
 18 19  2  0  0  0
 19 20  1  0  0  0
 20 21  2  0  0  0
  8  1  1  0  0  0
 21 13  1  0  0  0
 21 16  1  0  0  0
 22 24  1  0  0  0
  5 10  1  0  0  0
  7 11  1  0  0  0
  9 12  1  0  0  0
M  END
> <minimizedAffinity>
-4.45011

> <CNNscore>
0.2746323049

> <CNNaffinity>
3.5528140068

> <CNN_VS>
0.9757174850

> <CNNaffinity_variance>
0.0359424129

$$$$
[H]c1nc2sc(C(=O)N([H])C([H])([H])[H])c([H])c2c(Oc2c([H])c([H])c(N([H])C(=O)c3c([H])c([H])c(C(F)(F)F)c([H])c3[H])c([H])c2[H])c1[H]


 35 38  0  0  0  0  0  0  0  0999 V2000
  155.1698  138.0643  187.6648 C   0  0  0  0  0  0  0  0  0  0  0  0
  155.5873  137.5513  186.4343 C   0  0  0  0  0  0  0  0  0  0  0  0
  154.7253  137.4642  185.3840 C   0  0  0  0  0  0  0  0  0  0  0  0
  153.4291  137.8758  185.5052 C   0  0  0  0  0  0  0  0  0  0  0  0
  152.9901  138.3910  186.7083 C   0  0  0  0  0  0  0  0  0  0  0  0
  153.8854  138.4755  187.7804 C   0  0  0  0  0  0  0  0  0  0  0  0
  152.4788  137.7076  184.4537 N   0  0  0  0  0  0  0  0  0  0  0  0
  152.4825  138.5268  183.2996 C   0  0  0  0  0  0  0  0  0  0  0  0
  153.3570  139.4056  183.1993 O   0  0  0  0  0  0  0  0  0  0  0  0
  151.7671  136.9590  184.5446 H   0  0  0  0  0  0  0  0  0  0  0  0
  151.5349  138.4136  182.2062 C   0  0  0  0  0  0  0  0  0  0  0  0
  151.4779  139.3649  181.2015 C   0  0  0  0  0  0  0  0  0  0  0  0
  150.5712  139.2819  180.1702 C   0  0  0  0  0  0  0  0  0  0  0  0
  149.6568  138.2519  180.0646 C   0  0  0  0  0  0  0  0  0  0  0  0
  149.7060  137.3053  181.0598 C   0  0  0  0  0  0  0  0  0  0  0  0
  150.6158  137.3852  182.0968 C   0  0  0  0  0  0  0  0  0  0  0  0
  148.6843  138.2000  178.9342 C   0  0  0  0  0  0  0  0  0  0  0  0
  148.3230  136.8895  178.7113 F   0  0  0  0  0  0  0  0  0  0  0  0
  149.1407  138.8115  177.8036 F   0  0  0  0  0  0  0  0  0  0  0  0
  147.5339  138.8922  179.3255 F   0  0  0  0  0  0  0  0  0  0  0  0
  156.0892  138.1148  188.7005 O   0  0  0  0  0  0  0  0  0  0  0  0
  158.0830  134.2294  188.9086 C   0  0  0  0  0  0  0  0  0  0  0  0
  157.5330  135.4672  188.7584 C   0  0  0  0  0  0  0  0  0  0  0  0
  156.6482  135.9155  189.6699 C   0  0  0  0  0  0  0  0  0  0  0  0
  155.9424  137.1132  189.6992 C   0  0  0  0  0  0  0  0  0  0  0  0
  155.0520  137.3548  190.7303 C   0  0  0  0  0  0  0  0  0  0  0  0
  154.8012  136.4721  191.7609 C   0  0  0  0  0  0  0  0  0  0  0  0
  155.4837  135.3296  191.7135 N   0  0  0  0  0  0  0  0  0  0  0  0
  156.3737  135.0512  190.7047 C   0  0  0  0  0  0  0  0  0  0  0  0
  157.3330  133.6906  190.3761 S   0  0  0  0  0  0  0  0  0  0  0  0
  159.9888  131.5964  186.7901 C   0  0  0  0  0  0  0  0  0  0  0  0
  158.9011  132.1514  187.6446 N   0  0  0  0  0  0  0  0  0  0  0  0
  159.0243  133.4625  188.0774 C   0  0  0  0  0  0  0  0  0  0  0  0
  160.0829  134.1179  187.7344 O   0  0  0  0  0  0  0  0  0  0  0  0
  158.0841  131.5313  187.8896 H   0  0  0  0  0  0  0  0  0  0  0  0
 31 32  1  0  0  0
 32 33  1  0  0  0
 33 34  2  0  0  0
 33 22  1  0  0  0
 22 23  2  0  0  0
 23 24  1  0  0  0
 24 25  2  0  0  0
 25 21  1  0  0  0
 21  1  1  0  0  0
  1  2  2  0  0  0
  2  3  1  0  0  0
  3  4  2  0  0  0
  4  7  1  0  0  0
  7  8  1  0  0  0
  8  9  2  0  0  0
  8 11  1  0  0  0
 11 12  2  0  0  0
 12 13  1  0  0  0
 13 14  2  0  0  0
 14 15  1  0  0  0
 15 16  2  0  0  0
 14 17  1  0  0  0
 17 18  1  0  0  0
 17 19  1  0  0  0
 17 20  1  0  0  0
  4  5  1  0  0  0
  5  6  2  0  0  0
 25 26  1  0  0  0
 26 27  2  0  0  0
 27 28  1  0  0  0
 28 29  2  0  0  0
 29 30  1  0  0  0
 30 22  1  0  0  0
 29 24  1  0  0  0
  6  1  1  0  0  0
 16 11  1  0  0  0
 32 35  1  0  0  0
  7 10  1  0  0  0
M  END
> <minimizedAffinity>
-7.26897

> <CNNscore>
0.3252347112

> <CNNaffinity>
5.4192008972

> <CNN_VS>
1.7625122070

> <CNNaffinity_variance>
0.0947815329

$$$$
[H]c1nc2sc(C(=O)N([H])C([H])([H])[H])c([H])c2c(Oc2c([H])c([H])c(N([H])C(=O)c3c([H])c([H])c(C(F)(F)F)c([H])c3[H])c([H])c2[H])c1[H]


 35 38  0  0  0  0  0  0  0  0999 V2000
  156.5206  139.7192  183.6660 C   0  0  0  0  0  0  0  0  0  0  0  0
  157.1547  139.2677  184.8260 C   0  0  0  0  0  0  0  0  0  0  0  0
  156.4318  138.8183  185.8886 C   0  0  0  0  0  0  0  0  0  0  0  0
  155.0671  138.7970  185.8492 C   0  0  0  0  0  0  0  0  0  0  0  0
  154.4139  139.2333  184.7141 C   0  0  0  0  0  0  0  0  0  0  0  0
  155.1678  139.6927  183.6284 C   0  0  0  0  0  0  0  0  0  0  0  0
  154.2818  138.4232  186.9808 N   0  0  0  0  0  0  0  0  0  0  0  0
  154.8696  138.0453  188.2115 C   0  0  0  0  0  0  0  0  0  0  0  0
  156.1098  138.0609  188.3056 O   0  0  0  0  0  0  0  0  0  0  0  0
  153.2487  138.4322  186.8913 H   0  0  0  0  0  0  0  0  0  0  0  0
  154.1253  137.6420  189.3903 C   0  0  0  0  0  0  0  0  0  0  0  0
  152.9121  136.9827  189.2850 C   0  0  0  0  0  0  0  0  0  0  0  0
  152.1853  136.6128  190.3930 C   0  0  0  0  0  0  0  0  0  0  0  0
  152.6093  136.8730  191.6817 C   0  0  0  0  0  0  0  0  0  0  0  0
  153.8116  137.5294  191.7937 C   0  0  0  0  0  0  0  0  0  0  0  0
  154.5445  137.9018  190.6830 C   0  0  0  0  0  0  0  0  0  0  0  0
  151.7896  136.4618  192.8586 C   0  0  0  0  0  0  0  0  0  0  0  0
  152.2038  135.2185  193.2832 F   0  0  0  0  0  0  0  0  0  0  0  0
  150.4472  136.5080  192.6215 F   0  0  0  0  0  0  0  0  0  0  0  0
  152.0430  137.3656  193.8952 F   0  0  0  0  0  0  0  0  0  0  0  0
  157.3096  140.1778  182.6231 O   0  0  0  0  0  0  0  0  0  0  0  0
  160.5008  142.6657  184.2790 C   0  0  0  0  0  0  0  0  0  0  0  0
  159.5698  141.7990  183.7898 C   0  0  0  0  0  0  0  0  0  0  0  0
  158.5229  142.2755  183.0886 C   0  0  0  0  0  0  0  0  0  0  0  0
  157.4473  141.5904  182.5344 C   0  0  0  0  0  0  0  0  0  0  0  0
  156.4581  142.2954  181.8721 C   0  0  0  0  0  0  0  0  0  0  0  0
  156.4551  143.6665  181.7164 C   0  0  0  0  0  0  0  0  0  0  0  0
  157.4912  144.3051  182.2569 N   0  0  0  0  0  0  0  0  0  0  0  0
  158.4912  143.6413  182.9252 C   0  0  0  0  0  0  0  0  0  0  0  0
  159.8813  144.1890  183.7296 S   0  0  0  0  0  0  0  0  0  0  0  0
  163.2294  142.5200  187.0333 C   0  0  0  0  0  0  0  0  0  0  0  0
  161.9229  142.8666  186.4056 N   0  0  0  0  0  0  0  0  0  0  0  0
  161.7047  142.4581  185.0991 C   0  0  0  0  0  0  0  0  0  0  0  0
  162.6531  141.8221  184.4957 O   0  0  0  0  0  0  0  0  0  0  0  0
  161.2172  143.4079  186.9723 H   0  0  0  0  0  0  0  0  0  0  0  0
 31 32  1  0  0  0
 32 33  1  0  0  0
 33 34  2  0  0  0
 33 22  1  0  0  0
 22 23  2  0  0  0
 23 24  1  0  0  0
 24 25  2  0  0  0
 25 21  1  0  0  0
 21  1  1  0  0  0
  1  2  2  0  0  0
  2  3  1  0  0  0
  3  4  2  0  0  0
  4  7  1  0  0  0
  7  8  1  0  0  0
  8  9  2  0  0  0
  8 11  1  0  0  0
 11 12  2  0  0  0
 12 13  1  0  0  0
 13 14  2  0  0  0
 14 15  1  0  0  0
 15 16  2  0  0  0
 14 17  1  0  0  0
 17 18  1  0  0  0
 17 19  1  0  0  0
 17 20  1  0  0  0
  4  5  1  0  0  0
  5  6  2  0  0  0
 25 26  1  0  0  0
 26 27  2  0  0  0
 27 28  1  0  0  0
 28 29  2  0  0  0
 29 30  1  0  0  0
 30 22  1  0  0  0
 29 24  1  0  0  0
  6  1  1  0  0  0
 16 11  1  0  0  0
 32 35  1  0  0  0
  7 10  1  0  0  0
M  END
> <minimizedAffinity>
-9.38787

> <CNNscore>
0.2633605897

> <CNNaffinity>
6.2179265022

> <CNN_VS>
1.6375567913

> <CNNaffinity_variance>
0.1139342934

$$$$
[H]c1nc2sc(C(=O)N([H])C([H])([H])[H])c([H])c2c(Oc2c([H])c([H])c(N([H])C(=O)c3c([H])c([H])c(C(F)(F)F)c([H])c3[H])c([H])c2[H])c1[H]


 35 38  0  0  0  0  0  0  0  0999 V2000
  149.9498  138.4585  181.7825 C   0  0  0  0  0  0  0  0  0  0  0  0
  150.2712  139.4311  180.8326 C   0  0  0  0  0  0  0  0  0  0  0  0
  151.5247  139.9587  180.7682 C   0  0  0  0  0  0  0  0  0  0  0  0
  152.5017  139.5515  181.6307 C   0  0  0  0  0  0  0  0  0  0  0  0
  152.2137  138.5886  182.5770 C   0  0  0  0  0  0  0  0  0  0  0  0
  150.9218  138.0538  182.6333 C   0  0  0  0  0  0  0  0  0  0  0  0
  153.7951  140.1546  181.6504 N   0  0  0  0  0  0  0  0  0  0  0  0
  154.0044  141.4681  182.1341 C   0  0  0  0  0  0  0  0  0  0  0  0
  153.0271  142.1015  182.5711 O   0  0  0  0  0  0  0  0  0  0  0  0
  154.6022  139.6067  181.2987 H   0  0  0  0  0  0  0  0  0  0  0  0
  155.2909  142.1389  182.1658 C   0  0  0  0  0  0  0  0  0  0  0  0
  155.3824  143.5154  182.2865 C   0  0  0  0  0  0  0  0  0  0  0  0
  156.5940  144.1669  182.2970 C   0  0  0  0  0  0  0  0  0  0  0  0
  157.7985  143.4997  182.1860 C   0  0  0  0  0  0  0  0  0  0  0  0
  157.7152  142.1333  182.0633 C   0  0  0  0  0  0  0  0  0  0  0  0
  156.5000  141.4756  182.0531 C   0  0  0  0  0  0  0  0  0  0  0  0
  159.0925  144.2424  182.1948 C   0  0  0  0  0  0  0  0  0  0  0  0
  160.0756  143.4274  182.7114 F   0  0  0  0  0  0  0  0  0  0  0  0
  159.0200  145.4412  182.8414 F   0  0  0  0  0  0  0  0  0  0  0  0
  159.4346  144.5245  180.8685 F   0  0  0  0  0  0  0  0  0  0  0  0
  148.6535  137.9695  181.8081 O   0  0  0  0  0  0  0  0  0  0  0  0
  147.5000  134.6399  184.3961 C   0  0  0  0  0  0  0  0  0  0  0  0
  147.9184  135.6022  183.5266 C   0  0  0  0  0  0  0  0  0  0  0  0
  147.6980  136.8994  183.8158 C   0  0  0  0  0  0  0  0  0  0  0  0
  147.9995  138.0330  183.0693 C   0  0  0  0  0  0  0  0  0  0  0  0
  147.6509  139.2811  183.5539 C   0  0  0  0  0  0  0  0  0  0  0  0
  147.0061  139.4940  184.7552 C   0  0  0  0  0  0  0  0  0  0  0  0
  146.7225  138.3963  185.4538 N   0  0  0  0  0  0  0  0  0  0  0  0
  147.0489  137.1396  185.0050 C   0  0  0  0  0  0  0  0  0  0  0  0
  146.7823  135.5943  185.6532 S   0  0  0  0  0  0  0  0  0  0  0  0
  147.6596  130.8260  185.0905 C   0  0  0  0  0  0  0  0  0  0  0  0
  147.6305  132.2831  185.4028 N   0  0  0  0  0  0  0  0  0  0  0  0
  147.5564  133.1705  184.3406 C   0  0  0  0  0  0  0  0  0  0  0  0
  147.5397  132.6849  183.1440 O   0  0  0  0  0  0  0  0  0  0  0  0
  147.6693  132.5848  186.4126 H   0  0  0  0  0  0  0  0  0  0  0  0
 31 32  1  0  0  0
 32 33  1  0  0  0
 33 34  2  0  0  0
 33 22  1  0  0  0
 22 23  2  0  0  0
 23 24  1  0  0  0
 24 25  2  0  0  0
 25 21  1  0  0  0
 21  1  1  0  0  0
  1  2  2  0  0  0
  2  3  1  0  0  0
  3  4  2  0  0  0
  4  7  1  0  0  0
  7  8  1  0  0  0
  8  9  2  0  0  0
  8 11  1  0  0  0
 11 12  2  0  0  0
 12 13  1  0  0  0
 13 14  2  0  0  0
 14 15  1  0  0  0
 15 16  2  0  0  0
 14 17  1  0  0  0
 17 18  1  0  0  0
 17 19  1  0  0  0
 17 20  1  0  0  0
  4  5  1  0  0  0
  5  6  2  0  0  0
 25 26  1  0  0  0
 26 27  2  0  0  0
 27 28  1  0  0  0
 28 29  2  0  0  0
 29 30  1  0  0  0
 30 22  1  0  0  0
 29 24  1  0  0  0
  6  1  1  0  0  0
 16 11  1  0  0  0
 32 35  1  0  0  0
  7 10  1  0  0  0
M  END
> <minimizedAffinity>
-7.36807

> <CNNscore>
0.2188852727

> <CNNaffinity>
5.8714475632

> <CNN_VS>
1.2851734161

> <CNNaffinity_variance>
0.1202139258

$$$$
[H]c1nc2sc(C(=O)N([H])C([H])([H])[H])c([H])c2c(Oc2c([H])c([H])c(N([H])C(=O)c3c([H])c([H])c(C(F)(F)F)c([H])c3[H])c([H])c2[H])c1[H]


 35 38  0  0  0  0  0  0  0  0999 V2000
  156.1022  136.7035  188.7168 C   0  0  0  0  0  0  0  0  0  0  0  0
  156.0534  135.8342  187.6243 C   0  0  0  0  0  0  0  0  0  0  0  0
  155.3114  136.1355  186.5232 C   0  0  0  0  0  0  0  0  0  0  0  0
  154.5945  137.2957  186.4571 C   0  0  0  0  0  0  0  0  0  0  0  0
  154.6276  138.1756  187.5203 C   0  0  0  0  0  0  0  0  0  0  0  0
  155.3940  137.8549  188.6463 C   0  0  0  0  0  0  0  0  0  0  0  0
  153.7328  137.5928  185.3590 N   0  0  0  0  0  0  0  0  0  0  0  0
  154.1267  138.4524  184.3059 C   0  0  0  0  0  0  0  0  0  0  0  0
  155.2688  138.9443  184.3382 O   0  0  0  0  0  0  0  0  0  0  0  0
  152.7903  137.1608  185.3382 H   0  0  0  0  0  0  0  0  0  0  0  0
  153.2909  138.8030  183.1725 C   0  0  0  0  0  0  0  0  0  0  0  0
  152.3425  137.9235  182.6780 C   0  0  0  0  0  0  0  0  0  0  0  0
  151.5577  138.2336  181.5915 C   0  0  0  0  0  0  0  0  0  0  0  0
  151.6601  139.4357  180.9186 C   0  0  0  0  0  0  0  0  0  0  0  0
  152.6012  140.3127  181.4025 C   0  0  0  0  0  0  0  0  0  0  0  0
  153.3908  140.0047  182.4939 C   0  0  0  0  0  0  0  0  0  0  0  0
  150.7952  139.7330  179.7397 C   0  0  0  0  0  0  0  0  0  0  0  0
  150.1492  138.5794  179.3531 F   0  0  0  0  0  0  0  0  0  0  0  0
  151.4721  140.3181  178.7101 F   0  0  0  0  0  0  0  0  0  0  0  0
  149.8171  140.6469  180.1444 F   0  0  0  0  0  0  0  0  0  0  0  0
  156.8638  136.3355  189.8145 O   0  0  0  0  0  0  0  0  0  0  0  0
  153.2962  134.7135  191.7526 C   0  0  0  0  0  0  0  0  0  0  0  0
  154.3467  135.3125  191.1242 C   0  0  0  0  0  0  0  0  0  0  0  0
  155.4638  134.6021  190.8748 C   0  0  0  0  0  0  0  0  0  0  0  0
  156.6562  135.0107  190.2877 C   0  0  0  0  0  0  0  0  0  0  0  0
  157.6961  134.1076  190.1564 C   0  0  0  0  0  0  0  0  0  0  0  0
  157.6405  132.7946  190.5774 C   0  0  0  0  0  0  0  0  0  0  0  0
  156.4921  132.4232  191.1402 N   0  0  0  0  0  0  0  0  0  0  0  0
  155.4382  133.2911  191.2919 C   0  0  0  0  0  0  0  0  0  0  0  0
  153.9032  133.1071  191.9916 S   0  0  0  0  0  0  0  0  0  0  0  0
  149.8146  135.3446  193.3441 C   0  0  0  0  0  0  0  0  0  0  0  0
  151.0740  134.6113  193.0318 N   0  0  0  0  0  0  0  0  0  0  0  0
  151.9884  135.2260  192.1907 C   0  0  0  0  0  0  0  0  0  0  0  0
  151.6862  136.3859  191.7096 O   0  0  0  0  0  0  0  0  0  0  0  0
  151.2227  133.6576  193.4566 H   0  0  0  0  0  0  0  0  0  0  0  0
 31 32  1  0  0  0
 32 33  1  0  0  0
 33 34  2  0  0  0
 33 22  1  0  0  0
 22 23  2  0  0  0
 23 24  1  0  0  0
 24 25  2  0  0  0
 25 21  1  0  0  0
 21  1  1  0  0  0
  1  2  2  0  0  0
  2  3  1  0  0  0
  3  4  2  0  0  0
  4  7  1  0  0  0
  7  8  1  0  0  0
  8  9  2  0  0  0
  8 11  1  0  0  0
 11 12  2  0  0  0
 12 13  1  0  0  0
 13 14  2  0  0  0
 14 15  1  0  0  0
 15 16  2  0  0  0
 14 17  1  0  0  0
 17 18  1  0  0  0
 17 19  1  0  0  0
 17 20  1  0  0  0
  4  5  1  0  0  0
  5  6  2  0  0  0
 25 26  1  0  0  0
 26 27  2  0  0  0
 27 28  1  0  0  0
 28 29  2  0  0  0
 29 30  1  0  0  0
 30 22  1  0  0  0
 29 24  1  0  0  0
  6  1  1  0  0  0
 16 11  1  0  0  0
 32 35  1  0  0  0
  7 10  1  0  0  0
M  END
> <minimizedAffinity>
-7.20989

> <CNNscore>
0.2036477327

> <CNNaffinity>
5.4413943291

> <CNN_VS>
1.1081275940

> <CNNaffinity_variance>
0.1017263755

$$$$
[H]c1nc2sc(C(=O)N([H])C([H])([H])[H])c([H])c2c(Oc2c([H])c([H])c(N([H])C(=O)c3c([H])c([H])c(C(F)(F)F)c([H])c3[H])c([H])c2[H])c1[H]


 35 38  0  0  0  0  0  0  0  0999 V2000
  152.0946  136.1574  186.2842 C   0  0  0  0  0  0  0  0  0  0  0  0
  153.1242  135.8797  185.3817 C   0  0  0  0  0  0  0  0  0  0  0  0
  154.0493  136.8266  185.0630 C   0  0  0  0  0  0  0  0  0  0  0  0
  153.9955  138.0734  185.6169 C   0  0  0  0  0  0  0  0  0  0  0  0
  152.9915  138.3745  186.5152 C   0  0  0  0  0  0  0  0  0  0  0  0
  152.0467  137.3930  186.8348 C   0  0  0  0  0  0  0  0  0  0  0  0
  154.8920  139.1142  185.2296 N   0  0  0  0  0  0  0  0  0  0  0  0
  154.6594  139.9209  184.0902 C   0  0  0  0  0  0  0  0  0  0  0  0
  153.6289  139.7211  183.4229 O   0  0  0  0  0  0  0  0  0  0  0  0
  155.7376  139.2794  185.8066 H   0  0  0  0  0  0  0  0  0  0  0  0
  155.5401  140.9824  183.6389 C   0  0  0  0  0  0  0  0  0  0  0  0
  155.0379  142.1468  183.0824 C   0  0  0  0  0  0  0  0  0  0  0  0
  155.8609  143.1525  182.6311 C   0  0  0  0  0  0  0  0  0  0  0  0
  157.2384  143.0729  182.6979 C   0  0  0  0  0  0  0  0  0  0  0  0
  157.7440  141.9189  183.2469 C   0  0  0  0  0  0  0  0  0  0  0  0
  156.9202  140.9070  183.7018 C   0  0  0  0  0  0  0  0  0  0  0  0
  158.0981  144.1824  182.1917 C   0  0  0  0  0  0  0  0  0  0  0  0
  158.3112  144.0068  180.8422 F   0  0  0  0  0  0  0  0  0  0  0  0
  159.2635  144.3198  182.8871 F   0  0  0  0  0  0  0  0  0  0  0  0
  157.3935  145.3795  182.3535 F   0  0  0  0  0  0  0  0  0  0  0  0
  151.1749  135.1577  186.5582 O   0  0  0  0  0  0  0  0  0  0  0  0
  151.1444  134.4090  190.8655 C   0  0  0  0  0  0  0  0  0  0  0  0
  151.2638  134.6099  189.5229 C   0  0  0  0  0  0  0  0  0  0  0  0
  150.2698  135.2247  188.8528 C   0  0  0  0  0  0  0  0  0  0  0  0
  150.1600  135.4987  187.4940 C   0  0  0  0  0  0  0  0  0  0  0  0
  149.0217  136.1215  187.0139 C   0  0  0  0  0  0  0  0  0  0  0  0
  147.9545  136.5010  187.8022 C   0  0  0  0  0  0  0  0  0  0  0  0
  148.0767  136.2270  189.0997 N   0  0  0  0  0  0  0  0  0  0  0  0
  149.1892  135.6066  189.6141 C   0  0  0  0  0  0  0  0  0  0  0  0
  149.5916  135.1103  191.1861 S   0  0  0  0  0  0  0  0  0  0  0  0
  152.7311  132.4952  193.8443 C   0  0  0  0  0  0  0  0  0  0  0  0
  151.6532  133.1138  193.0216 N   0  0  0  0  0  0  0  0  0  0  0  0
  152.0207  133.7453  191.8437 C   0  0  0  0  0  0  0  0  0  0  0  0
  153.2755  133.7806  191.5399 O   0  0  0  0  0  0  0  0  0  0  0  0
  150.6573  133.0515  193.3631 H   0  0  0  0  0  0  0  0  0  0  0  0
 31 32  1  0  0  0
 32 33  1  0  0  0
 33 34  2  0  0  0
 33 22  1  0  0  0
 22 23  2  0  0  0
 23 24  1  0  0  0
 24 25  2  0  0  0
 25 21  1  0  0  0
 21  1  1  0  0  0
  1  2  2  0  0  0
  2  3  1  0  0  0
  3  4  2  0  0  0
  4  7  1  0  0  0
  7  8  1  0  0  0
  8  9  2  0  0  0
  8 11  1  0  0  0
 11 12  2  0  0  0
 12 13  1  0  0  0
 13 14  2  0  0  0
 14 15  1  0  0  0
 15 16  2  0  0  0
 14 17  1  0  0  0
 17 18  1  0  0  0
 17 19  1  0  0  0
 17 20  1  0  0  0
  4  5  1  0  0  0
  5  6  2  0  0  0
 25 26  1  0  0  0
 26 27  2  0  0  0
 27 28  1  0  0  0
 28 29  2  0  0  0
 29 30  1  0  0  0
 30 22  1  0  0  0
 29 24  1  0  0  0
  6  1  1  0  0  0
 16 11  1  0  0  0
 32 35  1  0  0  0
  7 10  1  0  0  0
M  END
> <minimizedAffinity>
-6.72058

> <CNNscore>
0.1989895105

> <CNNaffinity>
5.7795729637

> <CNN_VS>
1.1500743628

> <CNNaffinity_variance>
0.3766601980

$$$$
[H]c1nc2sc(C(=O)N([H])C([H])([H])[H])c([H])c2c(Oc2c([H])c([H])c(N([H])C(=O)c3c([H])c([H])c(C(F)(F)F)c([H])c3[H])c([H])c2[H])c1[H]


 35 38  0  0  0  0  0  0  0  0999 V2000
  152.1270  136.5966  185.2168 C   0  0  0  0  0  0  0  0  0  0  0  0
  152.3626  137.4296  186.3132 C   0  0  0  0  0  0  0  0  0  0  0  0
  153.5214  138.1367  186.4182 C   0  0  0  0  0  0  0  0  0  0  0  0
  154.4849  138.0505  185.4546 C   0  0  0  0  0  0  0  0  0  0  0  0
  154.2772  137.2383  184.3578 C   0  0  0  0  0  0  0  0  0  0  0  0
  153.0823  136.5167  184.2611 C   0  0  0  0  0  0  0  0  0  0  0  0
  155.7475  138.7031  185.5844 N   0  0  0  0  0  0  0  0  0  0  0  0
  156.2708  139.5360  184.5670 C   0  0  0  0  0  0  0  0  0  0  0  0
  155.5930  139.7136  183.5393 O   0  0  0  0  0  0  0  0  0  0  0  0
  156.2923  138.5586  186.4548 H   0  0  0  0  0  0  0  0  0  0  0  0
  157.5525  140.2134  184.6351 C   0  0  0  0  0  0  0  0  0  0  0  0
  157.8297  141.1306  185.6349 C   0  0  0  0  0  0  0  0  0  0  0  0
  159.0321  141.7959  185.7003 C   0  0  0  0  0  0  0  0  0  0  0  0
  160.0419  141.6001  184.7781 C   0  0  0  0  0  0  0  0  0  0  0  0
  159.7727  140.6927  183.7815 C   0  0  0  0  0  0  0  0  0  0  0  0
  158.5663  140.0223  183.7132 C   0  0  0  0  0  0  0  0  0  0  0  0
  161.3303  142.3456  184.8788 C   0  0  0  0  0  0  0  0  0  0  0  0
  161.7849  142.2852  186.1778 F   0  0  0  0  0  0  0  0  0  0  0  0
  161.2479  143.6265  184.4174 F   0  0  0  0  0  0  0  0  0  0  0  0
  162.2689  141.6914  184.0744 F   0  0  0  0  0  0  0  0  0  0  0  0
  150.9348  135.8915  185.1727 O   0  0  0  0  0  0  0  0  0  0  0  0
  148.7666  135.3771  188.9342 C   0  0  0  0  0  0  0  0  0  0  0  0
  149.5235  135.4690  187.8047 C   0  0  0  0  0  0  0  0  0  0  0  0
  149.1900  136.3621  186.8529 C   0  0  0  0  0  0  0  0  0  0  0  0
  149.7866  136.6012  185.6199 C   0  0  0  0  0  0  0  0  0  0  0  0
  149.2513  137.5598  184.7780 C   0  0  0  0  0  0  0  0  0  0  0  0
  148.1370  138.3176  185.0751 C   0  0  0  0  0  0  0  0  0  0  0  0
  147.5777  138.0717  186.2584 N   0  0  0  0  0  0  0  0  0  0  0  0
  148.0772  137.1258  187.1204 C   0  0  0  0  0  0  0  0  0  0  0  0
  147.5581  136.5857  188.6430 S   0  0  0  0  0  0  0  0  0  0  0  0
  149.8119  133.2081  191.9765 C   0  0  0  0  0  0  0  0  0  0  0  0
  149.9865  134.1075  190.8010 N   0  0  0  0  0  0  0  0  0  0  0  0
  148.8501  134.4915  190.1064 C   0  0  0  0  0  0  0  0  0  0  0  0
  147.7111  134.0304  190.5038 O   0  0  0  0  0  0  0  0  0  0  0  0
  150.9608  134.4156  190.5400 H   0  0  0  0  0  0  0  0  0  0  0  0
 31 32  1  0  0  0
 32 33  1  0  0  0
 33 34  2  0  0  0
 33 22  1  0  0  0
 22 23  2  0  0  0
 23 24  1  0  0  0
 24 25  2  0  0  0
 25 21  1  0  0  0
 21  1  1  0  0  0
  1  2  2  0  0  0
  2  3  1  0  0  0
  3  4  2  0  0  0
  4  7  1  0  0  0
  7  8  1  0  0  0
  8  9  2  0  0  0
  8 11  1  0  0  0
 11 12  2  0  0  0
 12 13  1  0  0  0
 13 14  2  0  0  0
 14 15  1  0  0  0
 15 16  2  0  0  0
 14 17  1  0  0  0
 17 18  1  0  0  0
 17 19  1  0  0  0
 17 20  1  0  0  0
  4  5  1  0  0  0
  5  6  2  0  0  0
 25 26  1  0  0  0
 26 27  2  0  0  0
 27 28  1  0  0  0
 28 29  2  0  0  0
 29 30  1  0  0  0
 30 22  1  0  0  0
 29 24  1  0  0  0
  6  1  1  0  0  0
 16 11  1  0  0  0
 32 35  1  0  0  0
  7 10  1  0  0  0
M  END
> <minimizedAffinity>
-7.46109

> <CNNscore>
0.1775799841

> <CNNaffinity>
5.7241878510

> <CNN_VS>
1.0165011883

> <CNNaffinity_variance>
0.2841487825

$$$$
[H]c1nc2sc(C(=O)N([H])C([H])([H])[H])c([H])c2c(Oc2c([H])c([H])c(N([H])C(=O)c3c([H])c([H])c(C(F)(F)F)c([H])c3[H])c([H])c2[H])c1[H]


 35 38  0  0  0  0  0  0  0  0999 V2000
  155.5164  137.9204  185.8150 C   0  0  0  0  0  0  0  0  0  0  0  0
  155.8936  138.3682  187.0834 C   0  0  0  0  0  0  0  0  0  0  0  0
  155.1576  138.0519  188.1843 C   0  0  0  0  0  0  0  0  0  0  0  0
  154.0305  137.2885  188.0783 C   0  0  0  0  0  0  0  0  0  0  0  0
  153.6363  136.8286  186.8378 C   0  0  0  0  0  0  0  0  0  0  0  0
  154.4010  137.1602  185.7139 C   0  0  0  0  0  0  0  0  0  0  0  0
  153.1873  137.0221  189.1985 N   0  0  0  0  0  0  0  0  0  0  0  0
  153.2938  135.8289  189.9521 C   0  0  0  0  0  0  0  0  0  0  0  0
  154.1655  135.0013  189.6318 O   0  0  0  0  0  0  0  0  0  0  0  0
  152.4773  137.7300  189.4633 H   0  0  0  0  0  0  0  0  0  0  0  0
  152.4567  135.4959  191.0900 C   0  0  0  0  0  0  0  0  0  0  0  0
  151.6887  136.4576  191.7247 C   0  0  0  0  0  0  0  0  0  0  0  0
  150.9067  136.1612  192.8170 C   0  0  0  0  0  0  0  0  0  0  0  0
  150.8337  134.8920  193.3573 C   0  0  0  0  0  0  0  0  0  0  0  0
  151.5954  133.9328  192.7338 C   0  0  0  0  0  0  0  0  0  0  0  0
  152.3815  134.2269  191.6361 C   0  0  0  0  0  0  0  0  0  0  0  0
  149.9787  134.6109  194.5473 C   0  0  0  0  0  0  0  0  0  0  0  0
  148.8752  133.8893  194.1483 F   0  0  0  0  0  0  0  0  0  0  0  0
  149.6398  135.7340  195.2433 F   0  0  0  0  0  0  0  0  0  0  0  0
  150.7132  133.8053  195.4232 F   0  0  0  0  0  0  0  0  0  0  0  0
  156.2979  138.2866  184.7307 O   0  0  0  0  0  0  0  0  0  0  0  0
  153.2706  140.2095  182.2301 C   0  0  0  0  0  0  0  0  0  0  0  0
  154.1473  139.5172  183.0107 C   0  0  0  0  0  0  0  0  0  0  0  0
  155.1934  140.1601  183.5649 C   0  0  0  0  0  0  0  0  0  0  0  0
  156.2207  139.6559  184.3547 C   0  0  0  0  0  0  0  0  0  0  0  0
  157.2206  140.5042  184.7961 C   0  0  0  0  0  0  0  0  0  0  0  0
  157.2801  141.8512  184.5026 C   0  0  0  0  0  0  0  0  0  0  0  0
  156.2897  142.3147  183.7424 N   0  0  0  0  0  0  0  0  0  0  0  0
  155.2812  141.5037  183.2816 C   0  0  0  0  0  0  0  0  0  0  0  0
  153.9409  141.8074  182.2861 S   0  0  0  0  0  0  0  0  0  0  0  0
  150.5744  139.3851  179.5648 C   0  0  0  0  0  0  0  0  0  0  0  0
  151.8607  139.9069  180.1075 N   0  0  0  0  0  0  0  0  0  0  0  0
  152.0831  139.7877  181.4704 C   0  0  0  0  0  0  0  0  0  0  0  0
  151.1552  139.2530  182.1923 O   0  0  0  0  0  0  0  0  0  0  0  0
  152.5495  140.3469  179.4410 H   0  0  0  0  0  0  0  0  0  0  0  0
 31 32  1  0  0  0
 32 33  1  0  0  0
 33 34  2  0  0  0
 33 22  1  0  0  0
 22 23  2  0  0  0
 23 24  1  0  0  0
 24 25  2  0  0  0
 25 21  1  0  0  0
 21  1  1  0  0  0
  1  2  2  0  0  0
  2  3  1  0  0  0
  3  4  2  0  0  0
  4  7  1  0  0  0
  7  8  1  0  0  0
  8  9  2  0  0  0
  8 11  1  0  0  0
 11 12  2  0  0  0
 12 13  1  0  0  0
 13 14  2  0  0  0
 14 15  1  0  0  0
 15 16  2  0  0  0
 14 17  1  0  0  0
 17 18  1  0  0  0
 17 19  1  0  0  0
 17 20  1  0  0  0
  4  5  1  0  0  0
  5  6  2  0  0  0
 25 26  1  0  0  0
 26 27  2  0  0  0
 27 28  1  0  0  0
 28 29  2  0  0  0
 29 30  1  0  0  0
 30 22  1  0  0  0
 29 24  1  0  0  0
  6  1  1  0  0  0
 16 11  1  0  0  0
 32 35  1  0  0  0
  7 10  1  0  0  0
M  END
> <minimizedAffinity>
-6.41136

> <CNNscore>
0.1757096648

> <CNNaffinity>
5.5961980820

> <CNN_VS>
0.9833061099

> <CNNaffinity_variance>
0.1335026175

$$$$
[H]c1nc2sc(C(=O)N([H])C([H])([H])[H])c([H])c2c(Oc2c([H])c([H])c(N([H])C(=O)c3c([H])c([H])c(C(F)(F)F)c([H])c3[H])c([H])c2[H])c1[H]


 35 38  0  0  0  0  0  0  0  0999 V2000
  151.9723  136.5099  186.3933 C   0  0  0  0  0  0  0  0  0  0  0  0
  152.8034  136.1826  185.3192 C   0  0  0  0  0  0  0  0  0  0  0  0
  153.8201  137.0073  184.9449 C   0  0  0  0  0  0  0  0  0  0  0  0
  154.0546  138.1769  185.6091 C   0  0  0  0  0  0  0  0  0  0  0  0
  153.2517  138.5238  186.6772 C   0  0  0  0  0  0  0  0  0  0  0  0
  152.2101  137.6680  187.0525 C   0  0  0  0  0  0  0  0  0  0  0  0
  155.0494  139.1060  185.1802 N   0  0  0  0  0  0  0  0  0  0  0  0
  154.8209  140.0156  184.1203 C   0  0  0  0  0  0  0  0  0  0  0  0
  153.7083  140.0101  183.5641 O   0  0  0  0  0  0  0  0  0  0  0  0
  155.9657  139.1096  185.6658 H   0  0  0  0  0  0  0  0  0  0  0  0
  155.7966  140.9718  183.6308 C   0  0  0  0  0  0  0  0  0  0  0  0
  157.0534  141.0751  184.2032 C   0  0  0  0  0  0  0  0  0  0  0  0
  157.9811  141.9909  183.7636 C   0  0  0  0  0  0  0  0  0  0  0  0
  157.7267  142.8692  182.7281 C   0  0  0  0  0  0  0  0  0  0  0  0
  156.4803  142.7740  182.1568 C   0  0  0  0  0  0  0  0  0  0  0  0
  155.5463  141.8549  182.5955 C   0  0  0  0  0  0  0  0  0  0  0  0
  158.7567  143.8531  182.2839 C   0  0  0  0  0  0  0  0  0  0  0  0
  159.7714  143.8935  183.2146 F   0  0  0  0  0  0  0  0  0  0  0  0
  158.2425  145.0893  182.0234 F   0  0  0  0  0  0  0  0  0  0  0  0
  159.3051  143.3883  181.0843 F   0  0  0  0  0  0  0  0  0  0  0  0
  150.9457  135.6375  186.7181 O   0  0  0  0  0  0  0  0  0  0  0  0
  148.7589  137.6302  183.4991 C   0  0  0  0  0  0  0  0  0  0  0  0
  149.5167  136.9760  184.4236 C   0  0  0  0  0  0  0  0  0  0  0  0
  149.0415  136.8083  185.6730 C   0  0  0  0  0  0  0  0  0  0  0  0
  149.6469  136.2138  186.7746 C   0  0  0  0  0  0  0  0  0  0  0  0
  148.9765  136.1781  187.9843 C   0  0  0  0  0  0  0  0  0  0  0  0
  147.7175  136.7045  188.1888 C   0  0  0  0  0  0  0  0  0  0  0  0
  147.1557  137.2727  187.1234 N   0  0  0  0  0  0  0  0  0  0  0  0
  147.7904  137.3312  185.9065 C   0  0  0  0  0  0  0  0  0  0  0  0
  147.3400  138.0126  184.4191 S   0  0  0  0  0  0  0  0  0  0  0  0
  149.1354  137.8295  179.6427 C   0  0  0  0  0  0  0  0  0  0  0  0
  148.8134  137.2239  180.9659 N   0  0  0  0  0  0  0  0  0  0  0  0
  149.0155  137.9983  182.0977 C   0  0  0  0  0  0  0  0  0  0  0  0
  149.4912  139.1887  181.9415 O   0  0  0  0  0  0  0  0  0  0  0  0
  148.4484  136.2349  180.9942 H   0  0  0  0  0  0  0  0  0  0  0  0
 31 32  1  0  0  0
 32 33  1  0  0  0
 33 34  2  0  0  0
 33 22  1  0  0  0
 22 23  2  0  0  0
 23 24  1  0  0  0
 24 25  2  0  0  0
 25 21  1  0  0  0
 21  1  1  0  0  0
  1  2  2  0  0  0
  2  3  1  0  0  0
  3  4  2  0  0  0
  4  7  1  0  0  0
  7  8  1  0  0  0
  8  9  2  0  0  0
  8 11  1  0  0  0
 11 12  2  0  0  0
 12 13  1  0  0  0
 13 14  2  0  0  0
 14 15  1  0  0  0
 15 16  2  0  0  0
 14 17  1  0  0  0
 17 18  1  0  0  0
 17 19  1  0  0  0
 17 20  1  0  0  0
  4  5  1  0  0  0
  5  6  2  0  0  0
 25 26  1  0  0  0
 26 27  2  0  0  0
 27 28  1  0  0  0
 28 29  2  0  0  0
 29 30  1  0  0  0
 30 22  1  0  0  0
 29 24  1  0  0  0
  6  1  1  0  0  0
 16 11  1  0  0  0
 32 35  1  0  0  0
  7 10  1  0  0  0
M  END
> <minimizedAffinity>
-7.35005

> <CNNscore>
0.1677710116

> <CNNaffinity>
5.7063994408

> <CNN_VS>
0.9573684335

> <CNNaffinity_variance>
0.0959513336

$$$$
[H]c1nc2sc(C(=O)N([H])C([H])([H])[H])c([H])c2c(Oc2c([H])c([H])c(N([H])C(=O)c3c([H])c([H])c(C(F)(F)F)c([H])c3[H])c([H])c2[H])c1[H]


 35 38  0  0  0  0  0  0  0  0999 V2000
  150.2573  137.5835  182.4685 C   0  0  0  0  0  0  0  0  0  0  0  0
  150.0746  138.7879  181.7848 C   0  0  0  0  0  0  0  0  0  0  0  0
  151.1340  139.5873  181.4808 C   0  0  0  0  0  0  0  0  0  0  0  0
  152.4039  139.2333  181.8362 C   0  0  0  0  0  0  0  0  0  0  0  0
  152.6147  138.0464  182.5089 C   0  0  0  0  0  0  0  0  0  0  0  0
  151.5179  137.2333  182.8156 C   0  0  0  0  0  0  0  0  0  0  0  0
  153.5205  140.0948  181.6172 N   0  0  0  0  0  0  0  0  0  0  0  0
  154.2449  140.6726  182.6870 C   0  0  0  0  0  0  0  0  0  0  0  0
  153.9016  140.3997  183.8510 O   0  0  0  0  0  0  0  0  0  0  0  0
  153.8047  140.2984  180.6410 H   0  0  0  0  0  0  0  0  0  0  0  0
  155.3775  141.5659  182.5272 C   0  0  0  0  0  0  0  0  0  0  0  0
  155.2062  142.9375  182.4430 C   0  0  0  0  0  0  0  0  0  0  0  0
  156.2681  143.7950  182.2705 C   0  0  0  0  0  0  0  0  0  0  0  0
  157.5726  143.3525  182.1672 C   0  0  0  0  0  0  0  0  0  0  0  0
  157.7498  141.9919  182.2475 C   0  0  0  0  0  0  0  0  0  0  0  0
  156.6856  141.1278  182.4213 C   0  0  0  0  0  0  0  0  0  0  0  0
  158.6975  144.3134  181.9740 C   0  0  0  0  0  0  0  0  0  0  0  0
  158.2401  145.5930  182.2000 F   0  0  0  0  0  0  0  0  0  0  0  0
  159.3096  144.1882  180.7615 F   0  0  0  0  0  0  0  0  0  0  0  0
  159.6688  144.0375  182.9416 F   0  0  0  0  0  0  0  0  0  0  0  0
  149.1390  136.8195  182.7620 O   0  0  0  0  0  0  0  0  0  0  0  0
  149.7470  133.0578  180.6184 C   0  0  0  0  0  0  0  0  0  0  0  0
  149.5634  134.2834  181.1853 C   0  0  0  0  0  0  0  0  0  0  0  0
  149.5978  134.4064  182.5264 C   0  0  0  0  0  0  0  0  0  0  0  0
  149.4018  135.5355  183.3138 C   0  0  0  0  0  0  0  0  0  0  0  0
  149.4543  135.4233  184.6918 C   0  0  0  0  0  0  0  0  0  0  0  0
  149.6908  134.2421  185.3650 C   0  0  0  0  0  0  0  0  0  0  0  0
  149.8724  133.1716  184.5941 N   0  0  0  0  0  0  0  0  0  0  0  0
  149.8242  133.2416  183.2229 C   0  0  0  0  0  0  0  0  0  0  0  0
  149.9776  132.0584  182.0163 S   0  0  0  0  0  0  0  0  0  0  0  0
  150.4774  132.1558  176.9163 C   0  0  0  0  0  0  0  0  0  0  0  0
  150.7366  132.7056  178.2772 N   0  0  0  0  0  0  0  0  0  0  0  0
  149.7234  132.6070  179.2180 C   0  0  0  0  0  0  0  0  0  0  0  0
  148.6084  132.0660  178.8546 O   0  0  0  0  0  0  0  0  0  0  0  0
  151.6732  133.1486  178.4739 H   0  0  0  0  0  0  0  0  0  0  0  0
 31 32  1  0  0  0
 32 33  1  0  0  0
 33 34  2  0  0  0
 33 22  1  0  0  0
 22 23  2  0  0  0
 23 24  1  0  0  0
 24 25  2  0  0  0
 25 21  1  0  0  0
 21  1  1  0  0  0
  1  2  2  0  0  0
  2  3  1  0  0  0
  3  4  2  0  0  0
  4  7  1  0  0  0
  7  8  1  0  0  0
  8  9  2  0  0  0
  8 11  1  0  0  0
 11 12  2  0  0  0
 12 13  1  0  0  0
 13 14  2  0  0  0
 14 15  1  0  0  0
 15 16  2  0  0  0
 14 17  1  0  0  0
 17 18  1  0  0  0
 17 19  1  0  0  0
 17 20  1  0  0  0
  4  5  1  0  0  0
  5  6  2  0  0  0
 25 26  1  0  0  0
 26 27  2  0  0  0
 27 28  1  0  0  0
 28 29  2  0  0  0
 29 30  1  0  0  0
 30 22  1  0  0  0
 29 24  1  0  0  0
  6  1  1  0  0  0
 16 11  1  0  0  0
 32 35  1  0  0  0
  7 10  1  0  0  0
M  END
> <minimizedAffinity>
-6.49220

> <CNNscore>
0.1655625403

> <CNNaffinity>
5.8524141312

> <CNN_VS>
0.9689405560

> <CNNaffinity_variance>
0.4067071080

$$$$
[H]c1nc(C#Cc2c([H])c([H])c([H])c([H])c2[H])c([H])c([H])c1C#Cc1nc(C([H])([H])[H])sc1[H]


 22 24  0  0  0  0  0  0  0  0999 V2000
  152.9369  133.7419  184.7280 C   0  0  0  0  0  0  0  0  0  0  0  0
  153.6209  133.1946  185.7887 C   0  0  0  0  0  0  0  0  0  0  0  0
  153.3721  133.6730  187.0793 C   0  0  0  0  0  0  0  0  0  0  0  0
  152.4660  134.6700  187.3084 C   0  0  0  0  0  0  0  0  0  0  0  0
  151.8088  135.1907  186.2581 N   0  0  0  0  0  0  0  0  0  0  0  0
  152.0320  134.7439  184.9934 C   0  0  0  0  0  0  0  0  0  0  0  0
  153.3611  132.9104  182.2599 C   0  0  0  0  0  0  0  0  0  0  0  0
  153.1609  133.2821  183.3900 C   0  0  0  0  0  0  0  0  0  0  0  0
  152.1949  132.5232  177.4323 C   0  0  0  0  0  0  0  0  0  0  0  0
  153.0121  132.3267  178.6898 C   0  0  0  0  0  0  0  0  0  0  0  0
  152.7623  132.7408  179.9138 N   0  0  0  0  0  0  0  0  0  0  0  0
  153.5862  132.4754  180.8762 C   0  0  0  0  0  0  0  0  0  0  0  0
  154.7130  131.7549  180.5667 C   0  0  0  0  0  0  0  0  0  0  0  0
  154.5053  131.5045  178.8822 S   0  0  0  0  0  0  0  0  0  0  0  0
  152.2444  135.1280  188.6510 C   0  0  0  0  0  0  0  0  0  0  0  0
  152.0464  135.5285  189.7719 C   0  0  0  0  0  0  0  0  0  0  0  0
  151.8070  136.0088  191.1017 C   0  0  0  0  0  0  0  0  0  0  0  0
  150.6921  135.5818  191.7946 C   0  0  0  0  0  0  0  0  0  0  0  0
  150.4213  136.0204  193.0827 C   0  0  0  0  0  0  0  0  0  0  0  0
  151.2868  136.9064  193.6896 C   0  0  0  0  0  0  0  0  0  0  0  0
  152.3927  137.3414  193.0258 C   0  0  0  0  0  0  0  0  0  0  0  0
  152.6504  136.8938  191.7376 C   0  0  0  0  0  0  0  0  0  0  0  0
  9 10  1  0  0  0
 10 11  2  0  0  0
 11 12  1  0  0  0
 12 13  2  0  0  0
 13 14  1  0  0  0
 12  7  1  0  0  0
  7  8  3  0  0  0
  8  1  1  0  0  0
  1  2  2  0  0  0
  2  3  1  0  0  0
  3  4  2  0  0  0
  4  5  1  0  0  0
  5  6  2  0  0  0
  4 15  1  0  0  0
 15 16  3  0  0  0
 16 17  1  0  0  0
 17 18  2  0  0  0
 18 19  1  0  0  0
 19 20  2  0  0  0
 20 21  1  0  0  0
 21 22  2  0  0  0
 14 10  1  0  0  0
  6  1  1  0  0  0
 22 17  1  0  0  0
M  END
> <minimizedAffinity>
-3.29947

> <CNNscore>
0.6825644970

> <CNNaffinity>
4.9246869087

> <CNN_VS>
3.3614163399

> <CNNaffinity_variance>
0.8352423906

$$$$
[H]c1nc(C#Cc2c([H])c([H])c([H])c([H])c2[H])c([H])c([H])c1C#Cc1nc(C([H])([H])[H])sc1[H]


 22 24  0  0  0  0  0  0  0  0999 V2000
  152.8380  137.0074  185.9481 C   0  0  0  0  0  0  0  0  0  0  0  0
  153.3162  137.6974  184.8583 C   0  0  0  0  0  0  0  0  0  0  0  0
  152.5222  137.7935  183.7109 C   0  0  0  0  0  0  0  0  0  0  0  0
  151.2843  137.2179  183.6495 C   0  0  0  0  0  0  0  0  0  0  0  0
  150.8363  136.5485  184.7252 N   0  0  0  0  0  0  0  0  0  0  0  0
  151.5881  136.4401  185.8531 C   0  0  0  0  0  0  0  0  0  0  0  0
  154.2827  136.7984  188.1463 C   0  0  0  0  0  0  0  0  0  0  0  0
  153.6179  136.8844  187.1433 C   0  0  0  0  0  0  0  0  0  0  0  0
  157.2728  134.3999  191.3278 C   0  0  0  0  0  0  0  0  0  0  0  0
  156.4689  135.5526  190.7686 C   0  0  0  0  0  0  0  0  0  0  0  0
  155.7373  135.5998  189.6756 N   0  0  0  0  0  0  0  0  0  0  0  0
  155.1124  136.6862  189.3518 C   0  0  0  0  0  0  0  0  0  0  0  0
  155.2457  137.7679  190.1864 C   0  0  0  0  0  0  0  0  0  0  0  0
  156.2793  137.1360  191.4012 S   0  0  0  0  0  0  0  0  0  0  0  0
  150.5058  137.3436  182.4497 C   0  0  0  0  0  0  0  0  0  0  0  0
  149.8492  137.4284  181.4409 C   0  0  0  0  0  0  0  0  0  0  0  0
  149.0678  137.5231  180.2423 C   0  0  0  0  0  0  0  0  0  0  0  0
  149.4042  138.4495  179.2758 C   0  0  0  0  0  0  0  0  0  0  0  0
  148.6763  138.5757  178.1013 C   0  0  0  0  0  0  0  0  0  0  0  0
  147.5876  137.7556  177.8909 C   0  0  0  0  0  0  0  0  0  0  0  0
  147.2368  136.8346  178.8299 C   0  0  0  0  0  0  0  0  0  0  0  0
  147.9745  136.7200  179.9999 C   0  0  0  0  0  0  0  0  0  0  0  0
  9 10  1  0  0  0
 10 11  2  0  0  0
 11 12  1  0  0  0
 12 13  2  0  0  0
 13 14  1  0  0  0
 12  7  1  0  0  0
  7  8  3  0  0  0
  8  1  1  0  0  0
  1  2  2  0  0  0
  2  3  1  0  0  0
  3  4  2  0  0  0
  4  5  1  0  0  0
  5  6  2  0  0  0
  4 15  1  0  0  0
 15 16  3  0  0  0
 16 17  1  0  0  0
 17 18  2  0  0  0
 18 19  1  0  0  0
 19 20  2  0  0  0
 20 21  1  0  0  0
 21 22  2  0  0  0
 14 10  1  0  0  0
  6  1  1  0  0  0
 22 17  1  0  0  0
M  END
> <minimizedAffinity>
-4.79258

> <CNNscore>
0.4819962680

> <CNNaffinity>
5.0476012230

> <CNN_VS>
2.4329249859

> <CNNaffinity_variance>
0.3702694774

$$$$
[H]c1nc(C#Cc2c([H])c([H])c([H])c([H])c2[H])c([H])c([H])c1C#Cc1nc(C([H])([H])[H])sc1[H]


 22 24  0  0  0  0  0  0  0  0999 V2000
  154.0124  135.7095  185.4843 C   0  0  0  0  0  0  0  0  0  0  0  0
  154.0864  136.9234  184.8412 C   0  0  0  0  0  0  0  0  0  0  0  0
  153.0478  137.3055  183.9861 C   0  0  0  0  0  0  0  0  0  0  0  0
  151.9634  136.5007  183.7762 C   0  0  0  0  0  0  0  0  0  0  0  0
  151.9111  135.3191  184.4143 N   0  0  0  0  0  0  0  0  0  0  0  0
  152.9074  134.9236  185.2510 C   0  0  0  0  0  0  0  0  0  0  0  0
  155.9208  134.9237  187.1286 C   0  0  0  0  0  0  0  0  0  0  0  0
  155.0537  135.2788  186.3686 C   0  0  0  0  0  0  0  0  0  0  0  0
  157.7861  133.7987  191.6086 C   0  0  0  0  0  0  0  0  0  0  0  0
  157.7870  134.0139  190.1115 C   0  0  0  0  0  0  0  0  0  0  0  0
  156.7969  134.3819  189.3264 N   0  0  0  0  0  0  0  0  0  0  0  0
  156.9857  134.5165  188.0529 C   0  0  0  0  0  0  0  0  0  0  0  0
  158.2443  134.2620  187.5674 C   0  0  0  0  0  0  0  0  0  0  0  0
  159.0841  133.8392  189.0024 S   0  0  0  0  0  0  0  0  0  0  0  0
  150.9218  136.9361  182.8891 C   0  0  0  0  0  0  0  0  0  0  0  0
  150.0466  137.3208  182.1530 C   0  0  0  0  0  0  0  0  0  0  0  0
  149.0070  137.7838  181.2805 C   0  0  0  0  0  0  0  0  0  0  0  0
  148.9980  137.3925  179.9567 C   0  0  0  0  0  0  0  0  0  0  0  0
  148.0119  137.8162  179.0775 C   0  0  0  0  0  0  0  0  0  0  0  0
  147.0131  138.6501  179.5348 C   0  0  0  0  0  0  0  0  0  0  0  0
  147.0014  139.0491  180.8362 C   0  0  0  0  0  0  0  0  0  0  0  0
  147.9946  138.6171  181.7040 C   0  0  0  0  0  0  0  0  0  0  0  0
  9 10  1  0  0  0
 10 11  2  0  0  0
 11 12  1  0  0  0
 12 13  2  0  0  0
 13 14  1  0  0  0
 12  7  1  0  0  0
  7  8  3  0  0  0
  8  1  1  0  0  0
  1  2  2  0  0  0
  2  3  1  0  0  0
  3  4  2  0  0  0
  4  5  1  0  0  0
  5  6  2  0  0  0
  4 15  1  0  0  0
 15 16  3  0  0  0
 16 17  1  0  0  0
 17 18  2  0  0  0
 18 19  1  0  0  0
 19 20  2  0  0  0
 20 21  1  0  0  0
 21 22  2  0  0  0
 14 10  1  0  0  0
  6  1  1  0  0  0
 22 17  1  0  0  0
M  END
> <minimizedAffinity>
-4.32001

> <CNNscore>
0.4744119644

> <CNNaffinity>
4.7871232033

> <CNN_VS>
2.2710685730

> <CNNaffinity_variance>
0.2686672211

$$$$
[H]c1nc(C#Cc2c([H])c([H])c([H])c([H])c2[H])c([H])c([H])c1C#Cc1nc(C([H])([H])[H])sc1[H]


 22 24  0  0  0  0  0  0  0  0999 V2000
  153.8485  136.2433  186.5062 C   0  0  0  0  0  0  0  0  0  0  0  0
  154.1426  137.2369  185.6013 C   0  0  0  0  0  0  0  0  0  0  0  0
  153.1689  137.6247  184.6752 C   0  0  0  0  0  0  0  0  0  0  0  0
  151.9344  137.0391  184.6502 C   0  0  0  0  0  0  0  0  0  0  0  0
  151.6678  136.0706  185.5430 N   0  0  0  0  0  0  0  0  0  0  0  0
  152.5966  135.6748  186.4539 C   0  0  0  0  0  0  0  0  0  0  0  0
  155.6451  135.4559  188.2713 C   0  0  0  0  0  0  0  0  0  0  0  0
  154.8161  135.8154  187.4718 C   0  0  0  0  0  0  0  0  0  0  0  0
  157.4009  134.5653  192.8472 C   0  0  0  0  0  0  0  0  0  0  0  0
  157.4056  134.6074  191.3353 C   0  0  0  0  0  0  0  0  0  0  0  0
  156.4695  135.0350  190.5151 N   0  0  0  0  0  0  0  0  0  0  0  0
  156.6518  134.9938  189.2342 C   0  0  0  0  0  0  0  0  0  0  0  0
  157.8457  134.4920  188.7787 C   0  0  0  0  0  0  0  0  0  0  0  0
  158.6377  134.1075  190.2512 S   0  0  0  0  0  0  0  0  0  0  0  0
  150.9673  137.4710  183.6808 C   0  0  0  0  0  0  0  0  0  0  0  0
  150.1396  137.8246  182.8773 C   0  0  0  0  0  0  0  0  0  0  0  0
  149.1513  138.2426  181.9260 C   0  0  0  0  0  0  0  0  0  0  0  0
  149.5229  138.5093  180.6235 C   0  0  0  0  0  0  0  0  0  0  0  0
  148.6004  138.9161  179.6704 C   0  0  0  0  0  0  0  0  0  0  0  0
  147.2766  139.0589  180.0304 C   0  0  0  0  0  0  0  0  0  0  0  0
  146.8868  138.8016  181.3090 C   0  0  0  0  0  0  0  0  0  0  0  0
  147.8211  138.3954  182.2515 C   0  0  0  0  0  0  0  0  0  0  0  0
  9 10  1  0  0  0
 10 11  2  0  0  0
 11 12  1  0  0  0
 12 13  2  0  0  0
 13 14  1  0  0  0
 12  7  1  0  0  0
  7  8  3  0  0  0
  8  1  1  0  0  0
  1  2  2  0  0  0
  2  3  1  0  0  0
  3  4  2  0  0  0
  4  5  1  0  0  0
  5  6  2  0  0  0
  4 15  1  0  0  0
 15 16  3  0  0  0
 16 17  1  0  0  0
 17 18  2  0  0  0
 18 19  1  0  0  0
 19 20  2  0  0  0
 20 21  1  0  0  0
 21 22  2  0  0  0
 14 10  1  0  0  0
  6  1  1  0  0  0
 22 17  1  0  0  0
M  END
> <minimizedAffinity>
-2.86170

> <CNNscore>
0.4343151748

> <CNNaffinity>
4.7750945091

> <CNN_VS>
2.0738959312

> <CNNaffinity_variance>
0.4845847487

$$$$
[H]c1nc(C#Cc2c([H])c([H])c([H])c([H])c2[H])c([H])c([H])c1C#Cc1nc(C([H])([H])[H])sc1[H]


 22 24  0  0  0  0  0  0  0  0999 V2000
  155.9193  140.8209  183.1750 C   0  0  0  0  0  0  0  0  0  0  0  0
  155.1634  139.8507  183.7913 C   0  0  0  0  0  0  0  0  0  0  0  0
  153.8966  139.5481  183.2816 C   0  0  0  0  0  0  0  0  0  0  0  0
  153.3949  140.1941  182.1869 C   0  0  0  0  0  0  0  0  0  0  0  0
  154.1497  141.1385  181.6000 N   0  0  0  0  0  0  0  0  0  0  0  0
  155.3846  141.4519  182.0754 C   0  0  0  0  0  0  0  0  0  0  0  0
  158.3174  141.4672  184.0662 C   0  0  0  0  0  0  0  0  0  0  0  0
  157.2217  141.1623  183.6638 C   0  0  0  0  0  0  0  0  0  0  0  0
  161.5766  143.3647  187.3209 C   0  0  0  0  0  0  0  0  0  0  0  0
  161.1033  142.7053  186.0446 C   0  0  0  0  0  0  0  0  0  0  0  0
  159.8778  142.3997  185.6747 N   0  0  0  0  0  0  0  0  0  0  0  0
  159.6608  141.8311  184.5322 C   0  0  0  0  0  0  0  0  0  0  0  0
  160.7488  141.5662  183.7381 C   0  0  0  0  0  0  0  0  0  0  0  0
  162.0319  142.1642  184.7075 S   0  0  0  0  0  0  0  0  0  0  0  0
  152.0890  139.8489  181.7001 C   0  0  0  0  0  0  0  0  0  0  0  0
  150.9984  139.5611  181.2714 C   0  0  0  0  0  0  0  0  0  0  0  0
  149.7047  139.2192  180.7560 C   0  0  0  0  0  0  0  0  0  0  0  0
  148.5763  139.4817  181.5066 C   0  0  0  0  0  0  0  0  0  0  0  0
  147.3053  139.1677  181.0474 C   0  0  0  0  0  0  0  0  0  0  0  0
  147.1619  138.5777  179.8090 C   0  0  0  0  0  0  0  0  0  0  0  0
  148.2602  138.3094  179.0510 C   0  0  0  0  0  0  0  0  0  0  0  0
  149.5254  138.6292  179.5237 C   0  0  0  0  0  0  0  0  0  0  0  0
  9 10  1  0  0  0
 10 11  2  0  0  0
 11 12  1  0  0  0
 12 13  2  0  0  0
 13 14  1  0  0  0
 12  7  1  0  0  0
  7  8  3  0  0  0
  8  1  1  0  0  0
  1  2  2  0  0  0
  2  3  1  0  0  0
  3  4  2  0  0  0
  4  5  1  0  0  0
  5  6  2  0  0  0
  4 15  1  0  0  0
 15 16  3  0  0  0
 16 17  1  0  0  0
 17 18  2  0  0  0
 18 19  1  0  0  0
 19 20  2  0  0  0
 20 21  1  0  0  0
 21 22  2  0  0  0
 14 10  1  0  0  0
  6  1  1  0  0  0
 22 17  1  0  0  0
M  END
> <minimizedAffinity>
-8.38172

> <CNNscore>
0.4296259582

> <CNNaffinity>
5.7386269569

> <CNN_VS>
2.4654631615

> <CNNaffinity_variance>
0.1384360194

$$$$
[H]c1nc(C#Cc2c([H])c([H])c([H])c([H])c2[H])c([H])c([H])c1C#Cc1nc(C([H])([H])[H])sc1[H]


 22 24  0  0  0  0  0  0  0  0999 V2000
  154.0461  140.4230  182.5796 C   0  0  0  0  0  0  0  0  0  0  0  0
  154.5850  139.6856  183.6083 C   0  0  0  0  0  0  0  0  0  0  0  0
  155.8054  140.0826  184.1643 C   0  0  0  0  0  0  0  0  0  0  0  0
  156.4724  141.1848  183.7086 C   0  0  0  0  0  0  0  0  0  0  0  0
  155.9283  141.8910  182.7029 N   0  0  0  0  0  0  0  0  0  0  0  0
  154.7431  141.5267  182.1446 C   0  0  0  0  0  0  0  0  0  0  0  0
  151.7456  139.7260  181.4911 C   0  0  0  0  0  0  0  0  0  0  0  0
  152.7986  140.0521  181.9812 C   0  0  0  0  0  0  0  0  0  0  0  0
  146.8545  138.7814  181.5153 C   0  0  0  0  0  0  0  0  0  0  0  0
  148.2506  138.8930  180.9442 C   0  0  0  0  0  0  0  0  0  0  0  0
  149.3610  139.2753  181.5381 N   0  0  0  0  0  0  0  0  0  0  0  0
  150.4767  139.3088  180.8826 C   0  0  0  0  0  0  0  0  0  0  0  0
  150.4487  138.9338  179.5624 C   0  0  0  0  0  0  0  0  0  0  0  0
  148.7894  138.5520  179.3516 S   0  0  0  0  0  0  0  0  0  0  0  0
  157.7225  141.5532  184.3111 C   0  0  0  0  0  0  0  0  0  0  0  0
  158.7808  141.8440  184.8124 C   0  0  0  0  0  0  0  0  0  0  0  0
  160.0410  142.1842  185.4061 C   0  0  0  0  0  0  0  0  0  0  0  0
  161.2019  142.0592  184.6697 C   0  0  0  0  0  0  0  0  0  0  0  0
  162.4424  142.3769  185.2037 C   0  0  0  0  0  0  0  0  0  0  0  0
  162.5212  142.8296  186.5042 C   0  0  0  0  0  0  0  0  0  0  0  0
  161.3899  142.9608  187.2496 C   0  0  0  0  0  0  0  0  0  0  0  0
  160.1559  142.6391  186.7017 C   0  0  0  0  0  0  0  0  0  0  0  0
  9 10  1  0  0  0
 10 11  2  0  0  0
 11 12  1  0  0  0
 12 13  2  0  0  0
 13 14  1  0  0  0
 12  7  1  0  0  0
  7  8  3  0  0  0
  8  1  1  0  0  0
  1  2  2  0  0  0
  2  3  1  0  0  0
  3  4  2  0  0  0
  4  5  1  0  0  0
  5  6  2  0  0  0
  4 15  1  0  0  0
 15 16  3  0  0  0
 16 17  1  0  0  0
 17 18  2  0  0  0
 18 19  1  0  0  0
 19 20  2  0  0  0
 20 21  1  0  0  0
 21 22  2  0  0  0
 14 10  1  0  0  0
  6  1  1  0  0  0
 22 17  1  0  0  0
M  END
> <minimizedAffinity>
-8.85640

> <CNNscore>
0.4216328561

> <CNNaffinity>
5.7394156456

> <CNN_VS>
2.4199261665

> <CNNaffinity_variance>
0.0827521533

$$$$
[H]c1nc(C#Cc2c([H])c([H])c([H])c([H])c2[H])c([H])c([H])c1C#Cc1nc(C([H])([H])[H])sc1[H]


 22 24  0  0  0  0  0  0  0  0999 V2000
  154.8469  135.0729  186.6409 C   0  0  0  0  0  0  0  0  0  0  0  0
  154.2410  136.2816  186.8944 C   0  0  0  0  0  0  0  0  0  0  0  0
  153.5927  136.9506  185.8512 C   0  0  0  0  0  0  0  0  0  0  0  0
  153.5481  136.4302  184.5884 C   0  0  0  0  0  0  0  0  0  0  0  0
  154.1464  135.2482  184.3624 N   0  0  0  0  0  0  0  0  0  0  0  0
  154.7836  134.5773  185.3589 C   0  0  0  0  0  0  0  0  0  0  0  0
  156.0939  133.7657  188.5643 C   0  0  0  0  0  0  0  0  0  0  0  0
  155.5220  134.3541  187.6799 C   0  0  0  0  0  0  0  0  0  0  0  0
  160.0553  131.5051  190.5674 C   0  0  0  0  0  0  0  0  0  0  0  0
  158.6414  132.0376  190.4961 C   0  0  0  0  0  0  0  0  0  0  0  0
  158.0429  132.6706  189.5096 N   0  0  0  0  0  0  0  0  0  0  0  0
  156.8130  133.0564  189.6292 C   0  0  0  0  0  0  0  0  0  0  0  0
  156.1731  132.7797  190.8117 C   0  0  0  0  0  0  0  0  0  0  0  0
  157.4071  131.9691  191.6855 S   0  0  0  0  0  0  0  0  0  0  0  0
  152.8704  137.1538  183.5499 C   0  0  0  0  0  0  0  0  0  0  0  0
  152.2941  137.7756  182.6913 C   0  0  0  0  0  0  0  0  0  0  0  0
  151.6077  138.5190  181.6752 C   0  0  0  0  0  0  0  0  0  0  0  0
  152.3143  139.0343  180.6072 C   0  0  0  0  0  0  0  0  0  0  0  0
  151.6911  139.7595  179.6018 C   0  0  0  0  0  0  0  0  0  0  0  0
  150.3302  139.9729  179.6683 C   0  0  0  0  0  0  0  0  0  0  0  0
  149.6125  139.4744  180.7120 C   0  0  0  0  0  0  0  0  0  0  0  0
  150.2498  138.7509  181.7104 C   0  0  0  0  0  0  0  0  0  0  0  0
  9 10  1  0  0  0
 10 11  2  0  0  0
 11 12  1  0  0  0
 12 13  2  0  0  0
 13 14  1  0  0  0
 12  7  1  0  0  0
  7  8  3  0  0  0
  8  1  1  0  0  0
  1  2  2  0  0  0
  2  3  1  0  0  0
  3  4  2  0  0  0
  4  5  1  0  0  0
  5  6  2  0  0  0
  4 15  1  0  0  0
 15 16  3  0  0  0
 16 17  1  0  0  0
 17 18  2  0  0  0
 18 19  1  0  0  0
 19 20  2  0  0  0
 20 21  1  0  0  0
 21 22  2  0  0  0
 14 10  1  0  0  0
  6  1  1  0  0  0
 22 17  1  0  0  0
M  END
> <minimizedAffinity>
-4.57160

> <CNNscore>
0.4116978049

> <CNNaffinity>
4.8140726089

> <CNN_VS>
1.9819431305

> <CNNaffinity_variance>
0.3515474796

$$$$
[H]c1nc(C#Cc2c([H])c([H])c([H])c([H])c2[H])c([H])c([H])c1C#Cc1nc(C([H])([H])[H])sc1[H]


 22 24  0  0  0  0  0  0  0  0999 V2000
  153.6882  140.2136  182.5625 C   0  0  0  0  0  0  0  0  0  0  0  0
  154.3248  141.3579  182.1409 C   0  0  0  0  0  0  0  0  0  0  0  0
  155.5571  141.6997  182.7071 C   0  0  0  0  0  0  0  0  0  0  0  0
  156.1411  140.9229  183.6678 C   0  0  0  0  0  0  0  0  0  0  0  0
  155.5023  139.8092  184.0652 N   0  0  0  0  0  0  0  0  0  0  0  0
  154.3032  139.4543  183.5311 C   0  0  0  0  0  0  0  0  0  0  0  0
  151.3538  139.5179  181.5477 C   0  0  0  0  0  0  0  0  0  0  0  0
  152.4248  139.8262  182.0095 C   0  0  0  0  0  0  0  0  0  0  0  0
  148.2047  138.1740  177.9293 C   0  0  0  0  0  0  0  0  0  0  0  0
  148.6490  138.5294  179.3307 C   0  0  0  0  0  0  0  0  0  0  0  0
  149.8469  138.8645  179.7605 N   0  0  0  0  0  0  0  0  0  0  0  0
  150.0416  139.1385  181.0106 C   0  0  0  0  0  0  0  0  0  0  0  0
  148.9599  139.0646  181.8526 C   0  0  0  0  0  0  0  0  0  0  0  0
  147.7151  138.5977  180.7682 S   0  0  0  0  0  0  0  0  0  0  0  0
  157.4074  141.3147  184.2195 C   0  0  0  0  0  0  0  0  0  0  0  0
  158.4811  141.6374  184.6656 C   0  0  0  0  0  0  0  0  0  0  0  0
  159.7597  142.0196  185.1902 C   0  0  0  0  0  0  0  0  0  0  0  0
  159.8615  142.4626  186.4937 C   0  0  0  0  0  0  0  0  0  0  0  0
  161.0779  142.8425  187.0423 C   0  0  0  0  0  0  0  0  0  0  0  0
  162.2172  142.7770  186.2677 C   0  0  0  0  0  0  0  0  0  0  0  0
  162.1414  142.3432  184.9797 C   0  0  0  0  0  0  0  0  0  0  0  0
  160.9173  141.9666  184.4446 C   0  0  0  0  0  0  0  0  0  0  0  0
  9 10  1  0  0  0
 10 11  2  0  0  0
 11 12  1  0  0  0
 12 13  2  0  0  0
 13 14  1  0  0  0
 12  7  1  0  0  0
  7  8  3  0  0  0
  8  1  1  0  0  0
  1  2  2  0  0  0
  2  3  1  0  0  0
  3  4  2  0  0  0
  4  5  1  0  0  0
  5  6  2  0  0  0
  4 15  1  0  0  0
 15 16  3  0  0  0
 16 17  1  0  0  0
 17 18  2  0  0  0
 18 19  1  0  0  0
 19 20  2  0  0  0
 20 21  1  0  0  0
 21 22  2  0  0  0
 14 10  1  0  0  0
  6  1  1  0  0  0
 22 17  1  0  0  0
M  END
> <minimizedAffinity>
-8.90612

> <CNNscore>
0.3853994608

> <CNNaffinity>
5.6230936050

> <CNN_VS>
2.1671371460

> <CNNaffinity_variance>
0.0907212943

$$$$
[H]c1nc(C#Cc2c([H])c([H])c([H])c([H])c2[H])c([H])c([H])c1C#Cc1nc(C([H])([H])[H])sc1[H]


 22 24  0  0  0  0  0  0  0  0999 V2000
  154.7990  141.3647  182.2956 C   0  0  0  0  0  0  0  0  0  0  0  0
  154.8735  139.9912  182.2748 C   0  0  0  0  0  0  0  0  0  0  0  0
  153.6916  139.2459  182.2134 C   0  0  0  0  0  0  0  0  0  0  0  0
  152.4672  139.8515  182.1736 C   0  0  0  0  0  0  0  0  0  0  0  0
  152.4170  141.1944  182.1948 N   0  0  0  0  0  0  0  0  0  0  0  0
  153.5509  141.9425  182.2544 C   0  0  0  0  0  0  0  0  0  0  0  0
  156.9813  142.8450  182.3914 C   0  0  0  0  0  0  0  0  0  0  0  0
  155.9842  142.1666  182.3582 C   0  0  0  0  0  0  0  0  0  0  0  0
  160.9709  144.8570  184.5938 C   0  0  0  0  0  0  0  0  0  0  0  0
  160.0088  144.5417  183.4702 C   0  0  0  0  0  0  0  0  0  0  0  0
  158.9153  143.8097  183.4961 N   0  0  0  0  0  0  0  0  0  0  0  0
  158.2087  143.6492  182.4235 C   0  0  0  0  0  0  0  0  0  0  0  0
  158.6448  144.2668  181.2777 C   0  0  0  0  0  0  0  0  0  0  0  0
  160.0668  145.0499  181.8327 S   0  0  0  0  0  0  0  0  0  0  0  0
  151.2816  139.0441  182.1109 C   0  0  0  0  0  0  0  0  0  0  0  0
  150.2929  138.3535  182.0734 C   0  0  0  0  0  0  0  0  0  0  0  0
  149.1199  137.5297  182.0340 C   0  0  0  0  0  0  0  0  0  0  0  0
  148.0489  137.8217  182.8545 C   0  0  0  0  0  0  0  0  0  0  0  0
  146.8946  137.0519  182.8493 C   0  0  0  0  0  0  0  0  0  0  0  0
  146.8118  135.9657  182.0034 C   0  0  0  0  0  0  0  0  0  0  0  0
  147.8553  135.6583  181.1852 C   0  0  0  0  0  0  0  0  0  0  0  0
  149.0037  136.4377  181.2016 C   0  0  0  0  0  0  0  0  0  0  0  0
  9 10  1  0  0  0
 10 11  2  0  0  0
 11 12  1  0  0  0
 12 13  2  0  0  0
 13 14  1  0  0  0
 12  7  1  0  0  0
  7  8  3  0  0  0
  8  1  1  0  0  0
  1  2  2  0  0  0
  2  3  1  0  0  0
  3  4  2  0  0  0
  4  5  1  0  0  0
  5  6  2  0  0  0
  4 15  1  0  0  0
 15 16  3  0  0  0
 16 17  1  0  0  0
 17 18  2  0  0  0
 18 19  1  0  0  0
 19 20  2  0  0  0
 20 21  1  0  0  0
 21 22  2  0  0  0
 14 10  1  0  0  0
  6  1  1  0  0  0
 22 17  1  0  0  0
M  END
> <minimizedAffinity>
-2.00813

> <CNNscore>
0.3672110140

> <CNNaffinity>
5.5337772369

> <CNN_VS>
2.0320639610

> <CNNaffinity_variance>
0.7413167953

$$$$
[H]O[C@]1([H])[C@@]([H])(C([H])([H])OP(=O)(O[H])OP(=O)(O[H])OP(=O)(O[H])OC([H])([H])[C@@]2([H])O[C@@]([H])(n3c([H])nc4c(N([H])[H])nc([H])nc43)[C@]([H])(O[H])[C@@]2([H])O[H])O[C@@]([H])(n2c([H])nc3c(N([H])[H])nc([H])nc32)[C@]1([H])O[H]


 60 65  0  0  0  0  0  0  0  0999 V2000
  154.1377  140.7737  182.7493 P   0  0  0  0  0  0  0  0  0  0  0  0
  154.2577  141.4090  184.3125 O   0  0  0  0  0  0  0  0  0  0  0  0
  153.2315  141.6895  181.9200 O   0  0  0  0  0  0  0  0  0  0  0  0
  154.3918  142.3785  184.2191 H   0  0  0  0  0  0  0  0  0  0  0  0
  155.7047  140.7472  182.1056 O   0  0  0  0  0  0  0  0  0  0  0  0
  156.7490  140.2956  183.3578 P   0  0  0  0  0  0  0  0  0  0  0  0
  157.0113  141.6311  184.3761 O   0  0  0  0  0  0  0  0  0  0  0  0
  158.0863  139.9276  182.7648 O   0  0  0  0  0  0  0  0  0  0  0  0
  157.9075  142.0467  184.2167 H   0  0  0  0  0  0  0  0  0  0  0  0
  156.0432  139.0182  184.1824 O   0  0  0  0  0  0  0  0  0  0  0  0
  156.3735  139.0112  185.5321 C   0  0  0  0  0  0  0  0  0  0  0  0
  154.8964  137.1281  188.1207 C   0  0  0  0  0  0  0  0  0  0  0  0
  155.6470  138.2210  187.6356 O   0  0  0  0  0  0  0  0  0  0  0  0
  155.7378  137.8931  186.2846 C   0  0  0  0  0  0  0  0  0  0  0  0
  154.2636  137.7151  185.9321 C   0  0  0  0  0  0  0  0  0  0  0  0
  153.6659  138.9517  185.9199 O   0  0  0  0  0  0  0  0  0  0  0  0
  153.7732  136.9216  187.1432 C   0  0  0  0  0  0  0  0  0  0  0  0
  153.7824  135.5808  186.7585 O   0  0  0  0  0  0  0  0  0  0  0  0
  152.6990  138.8362  186.1780 H   0  0  0  0  0  0  0  0  0  0  0  0
  154.7269  135.3982  186.4588 H   0  0  0  0  0  0  0  0  0  0  0  0
  152.0739  137.2358  193.4211 N   0  0  0  0  0  0  0  0  0  0  0  0
  152.1695  136.7710  192.0872 C   0  0  0  0  0  0  0  0  0  0  0  0
  151.2956  135.9225  191.5207 N   0  0  0  0  0  0  0  0  0  0  0  0
  151.3897  135.4834  190.2536 C   0  0  0  0  0  0  0  0  0  0  0  0
  152.4106  135.9088  189.4987 N   0  0  0  0  0  0  0  0  0  0  0  0
  153.3437  136.7694  189.9897 C   0  0  0  0  0  0  0  0  0  0  0  0
  154.4410  137.3387  189.4587 N   0  0  0  0  0  0  0  0  0  0  0  0
  154.9881  138.1051  190.4022 C   0  0  0  0  0  0  0  0  0  0  0  0
  154.2401  138.0174  191.5163 N   0  0  0  0  0  0  0  0  0  0  0  0
  153.2175  137.1965  191.2844 C   0  0  0  0  0  0  0  0  0  0  0  0
  152.6160  136.7522  194.1577 H   0  0  0  0  0  0  0  0  0  0  0  0
  151.4802  138.0370  193.6619 H   0  0  0  0  0  0  0  0  0  0  0  0
  153.5470  139.2114  182.7289 O   0  0  0  0  0  0  0  0  0  0  0  0
  152.4062  138.9272  181.5431 P   0  0  0  0  0  0  0  0  0  0  0  0
  152.8076  139.6124  180.0539 O   0  0  0  0  0  0  0  0  0  0  0  0
  152.3509  137.4140  181.3223 O   0  0  0  0  0  0  0  0  0  0  0  0
  153.3540  140.4267  180.1781 H   0  0  0  0  0  0  0  0  0  0  0  0
  150.8885  139.4034  182.0695 O   0  0  0  0  0  0  0  0  0  0  0  0
  149.8628  138.6518  181.4732 C   0  0  0  0  0  0  0  0  0  0  0  0
  148.6118  138.8938  182.2712 C   0  0  0  0  0  0  0  0  0  0  0  0
  147.5618  139.4004  181.5589 O   0  0  0  0  0  0  0  0  0  0  0  0
  146.5314  138.4520  181.5284 C   0  0  0  0  0  0  0  0  0  0  0  0
  146.6538  137.7611  182.8111 C   0  0  0  0  0  0  0  0  0  0  0  0
  146.2450  138.6793  183.8163 O   0  0  0  0  0  0  0  0  0  0  0  0
  148.1497  137.6433  182.9877 C   0  0  0  0  0  0  0  0  0  0  0  0
  148.4549  137.7227  184.3524 O   0  0  0  0  0  0  0  0  0  0  0  0
  146.6948  139.5348  183.6530 H   0  0  0  0  0  0  0  0  0  0  0  0
  149.3356  137.3237  184.5602 H   0  0  0  0  0  0  0  0  0  0  0  0
  146.6651  137.7267  180.3250 N   0  0  0  0  0  0  0  0  0  0  0  0
  147.1822  138.3041  179.1990 C   0  0  0  0  0  0  0  0  0  0  0  0
  147.1828  137.3776  178.2312 N   0  0  0  0  0  0  0  0  0  0  0  0
  146.6732  136.2093  178.7154 C   0  0  0  0  0  0  0  0  0  0  0  0
  146.4506  134.9729  178.1696 C   0  0  0  0  0  0  0  0  0  0  0  0
  146.7880  134.7537  176.8118 N   0  0  0  0  0  0  0  0  0  0  0  0
  145.9170  134.0328  178.9717 N   0  0  0  0  0  0  0  0  0  0  0  0
  145.6137  134.3015  180.2661 C   0  0  0  0  0  0  0  0  0  0  0  0
  145.8308  135.5106  180.8018 N   0  0  0  0  0  0  0  0  0  0  0  0
  146.3593  136.4728  180.0388 C   0  0  0  0  0  0  0  0  0  0  0  0
  147.5474  135.2939  176.3599 H   0  0  0  0  0  0  0  0  0  0  0  0
  146.2701  134.0454  176.2620 H   0  0  0  0  0  0  0  0  0  0  0  0
 21 22  1  0  0  0
 22 23  2  0  0  0
 23 24  1  0  0  0
 24 25  2  0  0  0
 25 26  1  0  0  0
 26 27  1  0  0  0
 27 28  1  0  0  0
 28 29  2  0  0  0
 29 30  1  0  0  0
 27 12  1  0  0  0
 12 13  1  0  0  0
 13 14  1  0  0  0
 14 11  1  0  0  0
 11 10  1  0  0  0
 10  6  1  0  0  0
  6  7  1  0  0  0
  6  8  2  0  0  0
  6  5  1  0  0  0
  5  1  1  0  0  0
  1  2  1  0  0  0
  1  3  2  0  0  0
  1 33  1  0  0  0
 33 34  1  0  0  0
 34 35  1  0  0  0
 34 36  2  0  0  0
 34 38  1  0  0  0
 38 39  1  0  0  0
 39 40  1  0  0  0
 40 41  1  0  0  0
 41 42  1  0  0  0
 42 43  1  0  0  0
 43 44  1  0  0  0
 43 45  1  0  0  0
 45 46  1  0  0  0
 42 49  1  0  0  0
 49 50  1  0  0  0
 50 51  2  0  0  0
 51 52  1  0  0  0
 52 53  2  0  0  0
 53 54  1  0  0  0
 53 55  1  0  0  0
 55 56  2  0  0  0
 56 57  1  0  0  0
 57 58  2  0  0  0
 14 15  1  0  0  0
 15 16  1  0  0  0
 15 17  1  0  0  0
 17 18  1  0  0  0
 30 22  1  0  0  0
 17 12  1  0  0  0
 30 26  2  0  0  0
 45 40  1  0  0  0
 58 49  1  0  0  0
 58 52  1  0  0  0
 21 31  1  0  0  0
 21 32  1  0  0  0
  7  9  1  0  0  0
  2  4  1  0  0  0
 35 37  1  0  0  0
 44 47  1  0  0  0
 46 48  1  0  0  0
 54 59  1  0  0  0
 54 60  1  0  0  0
 16 19  1  0  0  0
 18 20  1  0  0  0
M  END
> <minimizedAffinity>
-6.51340

> <CNNscore>
0.4042008817

> <CNNaffinity>
5.1742982864

> <CNN_VS>
2.0914559364

> <CNNaffinity_variance>
1.3158228397

$$$$
[H]O[C@]1([H])[C@@]([H])(C([H])([H])OP(=O)(O[H])OP(=O)(O[H])OP(=O)(O[H])OC([H])([H])[C@@]2([H])O[C@@]([H])(n3c([H])nc4c(N([H])[H])nc([H])nc43)[C@]([H])(O[H])[C@@]2([H])O[H])O[C@@]([H])(n2c([H])nc3c(N([H])[H])nc([H])nc32)[C@]1([H])O[H]


 60 65  0  0  0  0  0  0  0  0999 V2000
  149.8339  134.7505  189.7485 P   0  0  0  0  0  0  0  0  0  0  0  0
  149.7451  133.1172  189.3172 O   0  0  0  0  0  0  0  0  0  0  0  0
  148.4129  135.3228  189.7832 O   0  0  0  0  0  0  0  0  0  0  0  0
  149.0054  132.7240  189.8320 H   0  0  0  0  0  0  0  0  0  0  0  0
  150.5390  134.8171  191.2876 O   0  0  0  0  0  0  0  0  0  0  0  0
  151.8338  133.7280  191.2888 P   0  0  0  0  0  0  0  0  0  0  0  0
  152.5771  133.7417  189.7602 O   0  0  0  0  0  0  0  0  0  0  0  0
  151.2954  132.3350  191.5016 O   0  0  0  0  0  0  0  0  0  0  0  0
  152.3254  132.9380  189.2199 H   0  0  0  0  0  0  0  0  0  0  0  0
  152.8974  134.1928  192.4982 O   0  0  0  0  0  0  0  0  0  0  0  0
  152.8843  135.5649  192.7173 C   0  0  0  0  0  0  0  0  0  0  0  0
  155.8953  136.2153  191.0028 C   0  0  0  0  0  0  0  0  0  0  0  0
  154.8989  135.3497  191.5041 O   0  0  0  0  0  0  0  0  0  0  0  0
  154.1099  136.2494  192.2177 C   0  0  0  0  0  0  0  0  0  0  0  0
  153.8030  137.2827  191.1373 C   0  0  0  0  0  0  0  0  0  0  0  0
  152.9220  136.7278  190.2413 O   0  0  0  0  0  0  0  0  0  0  0  0
  155.1761  137.4281  190.4815 C   0  0  0  0  0  0  0  0  0  0  0  0
  155.7642  138.5542  191.0574 O   0  0  0  0  0  0  0  0  0  0  0  0
  153.0866  137.1449  189.3391 H   0  0  0  0  0  0  0  0  0  0  0  0
  155.7606  138.3763  192.0492 H   0  0  0  0  0  0  0  0  0  0  0  0
  159.5581  132.7374  187.7532 N   0  0  0  0  0  0  0  0  0  0  0  0
  158.8952  133.0269  188.9702 C   0  0  0  0  0  0  0  0  0  0  0  0
  158.9989  132.2786  190.0810 N   0  0  0  0  0  0  0  0  0  0  0  0
  158.3679  132.5569  191.2350 C   0  0  0  0  0  0  0  0  0  0  0  0
  157.5856  133.6420  191.2958 N   0  0  0  0  0  0  0  0  0  0  0  0
  157.4218  134.4580  190.2189 C   0  0  0  0  0  0  0  0  0  0  0  0
  156.7118  135.5825  190.0155 N   0  0  0  0  0  0  0  0  0  0  0  0
  156.9217  135.9634  188.7554 C   0  0  0  0  0  0  0  0  0  0  0  0
  157.7567  135.0848  188.1729 N   0  0  0  0  0  0  0  0  0  0  0  0
  158.0791  134.1449  189.0594 C   0  0  0  0  0  0  0  0  0  0  0  0
  159.0472  132.2182  187.0184 H   0  0  0  0  0  0  0  0  0  0  0  0
  160.5274  133.0332  187.5942 H   0  0  0  0  0  0  0  0  0  0  0  0
  150.7866  135.6443  188.7075 O   0  0  0  0  0  0  0  0  0  0  0  0
  150.2007  135.7282  187.1461 P   0  0  0  0  0  0  0  0  0  0  0  0
  151.4138  135.6655  185.9746 O   0  0  0  0  0  0  0  0  0  0  0  0
  149.3223  134.4948  186.9259 O   0  0  0  0  0  0  0  0  0  0  0  0
  152.2564  136.0494  186.3207 H   0  0  0  0  0  0  0  0  0  0  0  0
  149.2162  137.0719  186.9653 O   0  0  0  0  0  0  0  0  0  0  0  0
  148.9530  137.3560  185.6153 C   0  0  0  0  0  0  0  0  0  0  0  0
  147.6531  138.1099  185.5642 C   0  0  0  0  0  0  0  0  0  0  0  0
  147.4280  138.7940  184.4032 O   0  0  0  0  0  0  0  0  0  0  0  0
  146.3288  138.2272  183.7456 C   0  0  0  0  0  0  0  0  0  0  0  0
  145.4731  137.7587  184.8347 C   0  0  0  0  0  0  0  0  0  0  0  0
  144.9367  138.9139  185.4657 O   0  0  0  0  0  0  0  0  0  0  0  0
  146.4674  137.2074  185.8297 C   0  0  0  0  0  0  0  0  0  0  0  0
  145.9778  137.4147  187.1254 O   0  0  0  0  0  0  0  0  0  0  0  0
  145.6698  139.5442  185.6282 H   0  0  0  0  0  0  0  0  0  0  0  0
  146.3896  136.7997  187.7813 H   0  0  0  0  0  0  0  0  0  0  0  0
  146.8338  137.3054  182.8035 N   0  0  0  0  0  0  0  0  0  0  0  0
  146.3809  136.0167  182.7546 C   0  0  0  0  0  0  0  0  0  0  0  0
  147.0397  135.3918  181.7694 N   0  0  0  0  0  0  0  0  0  0  0  0
  147.9124  136.2583  181.1807 C   0  0  0  0  0  0  0  0  0  0  0  0
  148.8102  136.1483  180.1520 C   0  0  0  0  0  0  0  0  0  0  0  0
  148.9388  134.9049  179.4865 N   0  0  0  0  0  0  0  0  0  0  0  0
  149.5226  137.2459  179.8365 N   0  0  0  0  0  0  0  0  0  0  0  0
  149.3561  138.4110  180.5108 C   0  0  0  0  0  0  0  0  0  0  0  0
  148.4783  138.5205  181.5175 N   0  0  0  0  0  0  0  0  0  0  0  0
  147.7507  137.4534  181.8628 C   0  0  0  0  0  0  0  0  0  0  0  0
  148.1418  134.2455  179.4353 H   0  0  0  0  0  0  0  0  0  0  0  0
  149.8401  134.6498  179.0452 H   0  0  0  0  0  0  0  0  0  0  0  0
 21 22  1  0  0  0
 22 23  2  0  0  0
 23 24  1  0  0  0
 24 25  2  0  0  0
 25 26  1  0  0  0
 26 27  1  0  0  0
 27 28  1  0  0  0
 28 29  2  0  0  0
 29 30  1  0  0  0
 27 12  1  0  0  0
 12 13  1  0  0  0
 13 14  1  0  0  0
 14 11  1  0  0  0
 11 10  1  0  0  0
 10  6  1  0  0  0
  6  7  1  0  0  0
  6  8  2  0  0  0
  6  5  1  0  0  0
  5  1  1  0  0  0
  1  2  1  0  0  0
  1  3  2  0  0  0
  1 33  1  0  0  0
 33 34  1  0  0  0
 34 35  1  0  0  0
 34 36  2  0  0  0
 34 38  1  0  0  0
 38 39  1  0  0  0
 39 40  1  0  0  0
 40 41  1  0  0  0
 41 42  1  0  0  0
 42 43  1  0  0  0
 43 44  1  0  0  0
 43 45  1  0  0  0
 45 46  1  0  0  0
 42 49  1  0  0  0
 49 50  1  0  0  0
 50 51  2  0  0  0
 51 52  1  0  0  0
 52 53  2  0  0  0
 53 54  1  0  0  0
 53 55  1  0  0  0
 55 56  2  0  0  0
 56 57  1  0  0  0
 57 58  2  0  0  0
 14 15  1  0  0  0
 15 16  1  0  0  0
 15 17  1  0  0  0
 17 18  1  0  0  0
 30 22  1  0  0  0
 17 12  1  0  0  0
 30 26  2  0  0  0
 45 40  1  0  0  0
 58 49  1  0  0  0
 58 52  1  0  0  0
 21 31  1  0  0  0
 21 32  1  0  0  0
  7  9  1  0  0  0
  2  4  1  0  0  0
 35 37  1  0  0  0
 44 47  1  0  0  0
 46 48  1  0  0  0
 54 59  1  0  0  0
 54 60  1  0  0  0
 16 19  1  0  0  0
 18 20  1  0  0  0
M  END
> <minimizedAffinity>
-5.46070

> <CNNscore>
0.3710303307

> <CNNaffinity>
5.0167484283

> <CNN_VS>
1.8613657951

> <CNNaffinity_variance>
0.2593483627

$$$$
[H]O[C@]1([H])[C@@]([H])(C([H])([H])OP(=O)(O[H])OP(=O)(O[H])OP(=O)(O[H])OC([H])([H])[C@@]2([H])O[C@@]([H])(n3c([H])nc4c(N([H])[H])nc([H])nc43)[C@]([H])(O[H])[C@@]2([H])O[H])O[C@@]([H])(n2c([H])nc3c(N([H])[H])nc([H])nc32)[C@]1([H])O[H]


 60 65  0  0  0  0  0  0  0  0999 V2000
  155.8014  132.1894  189.1826 P   0  0  0  0  0  0  0  0  0  0  0  0
  154.3643  132.2673  188.2936 O   0  0  0  0  0  0  0  0  0  0  0  0
  156.7280  131.1640  188.5210 O   0  0  0  0  0  0  0  0  0  0  0  0
  154.6151  132.2841  187.3431 H   0  0  0  0  0  0  0  0  0  0  0  0
  156.4953  133.7344  189.1357 O   0  0  0  0  0  0  0  0  0  0  0  0
  156.4479  134.2520  187.5256 P   0  0  0  0  0  0  0  0  0  0  0  0
  156.9783  132.9908  186.5171 O   0  0  0  0  0  0  0  0  0  0  0  0
  157.4229  135.3901  187.3534 O   0  0  0  0  0  0  0  0  0  0  0  0
  157.9143  133.1422  186.1975 H   0  0  0  0  0  0  0  0  0  0  0  0
  154.8720  134.7032  187.1752 O   0  0  0  0  0  0  0  0  0  0  0  0
  154.6290  134.7630  185.8084 C   0  0  0  0  0  0  0  0  0  0  0  0
  153.4221  137.7975  184.4804 C   0  0  0  0  0  0  0  0  0  0  0  0
  154.4578  136.9426  184.9157 O   0  0  0  0  0  0  0  0  0  0  0  0
  153.7176  135.8773  185.4239 C   0  0  0  0  0  0  0  0  0  0  0  0
  152.8471  135.5312  184.2190 C   0  0  0  0  0  0  0  0  0  0  0  0
  153.6392  134.9415  183.2642 O   0  0  0  0  0  0  0  0  0  0  0  0
  152.4362  136.9275  183.7518 C   0  0  0  0  0  0  0  0  0  0  0  0
  151.1738  137.1632  184.2966 O   0  0  0  0  0  0  0  0  0  0  0  0
  153.2511  135.1535  182.3590 H   0  0  0  0  0  0  0  0  0  0  0  0
  151.2877  137.0413  185.2902 H   0  0  0  0  0  0  0  0  0  0  0  0
  156.4568  142.2863  181.8894 N   0  0  0  0  0  0  0  0  0  0  0  0
  156.3500  141.2888  182.8885 C   0  0  0  0  0  0  0  0  0  0  0  0
  157.2818  141.0621  183.8291 N   0  0  0  0  0  0  0  0  0  0  0  0
  157.1768  140.1139  184.7764 C   0  0  0  0  0  0  0  0  0  0  0  0
  156.0832  139.3416  184.7960 N   0  0  0  0  0  0  0  0  0  0  0  0
  155.0877  139.5004  183.8816 C   0  0  0  0  0  0  0  0  0  0  0  0
  153.9132  138.8755  183.6812 N   0  0  0  0  0  0  0  0  0  0  0  0
  153.3319  139.4487  182.6275 C   0  0  0  0  0  0  0  0  0  0  0  0
  154.1352  140.4254  182.1702 N   0  0  0  0  0  0  0  0  0  0  0  0
  155.2273  140.4756  182.9306 C   0  0  0  0  0  0  0  0  0  0  0  0
  156.8178  142.0212  180.9568 H   0  0  0  0  0  0  0  0  0  0  0  0
  156.1834  143.2569  182.0781 H   0  0  0  0  0  0  0  0  0  0  0  0
  155.5511  131.7867  190.7842 O   0  0  0  0  0  0  0  0  0  0  0  0
  153.9449  131.5941  191.1979 P   0  0  0  0  0  0  0  0  0  0  0  0
  153.1363  130.4746  190.2277 O   0  0  0  0  0  0  0  0  0  0  0  0
  153.9086  131.0377  192.6229 O   0  0  0  0  0  0  0  0  0  0  0  0
  153.5301  130.4463  189.3215 H   0  0  0  0  0  0  0  0  0  0  0  0
  153.1699  133.0792  191.2297 O   0  0  0  0  0  0  0  0  0  0  0  0
  153.7056  133.9336  192.2072 C   0  0  0  0  0  0  0  0  0  0  0  0
  152.5718  134.7628  192.7434 C   0  0  0  0  0  0  0  0  0  0  0  0
  152.8317  136.1004  192.8428 O   0  0  0  0  0  0  0  0  0  0  0  0
  152.0037  136.7935  191.9507 C   0  0  0  0  0  0  0  0  0  0  0  0
  150.7808  135.9930  191.9145 C   0  0  0  0  0  0  0  0  0  0  0  0
  150.1415  136.1570  193.1735 O   0  0  0  0  0  0  0  0  0  0  0  0
  151.3059  134.5765  191.9351 C   0  0  0  0  0  0  0  0  0  0  0  0
  150.3997  133.7648  192.6290 O   0  0  0  0  0  0  0  0  0  0  0  0
  150.8120  136.0323  193.8777 H   0  0  0  0  0  0  0  0  0  0  0  0
  150.5004  132.8096  192.3936 H   0  0  0  0  0  0  0  0  0  0  0  0
  152.7433  136.9991  190.7662 N   0  0  0  0  0  0  0  0  0  0  0  0
  152.1949  136.7698  189.5352 C   0  0  0  0  0  0  0  0  0  0  0  0
  153.1284  137.0504  188.6161 N   0  0  0  0  0  0  0  0  0  0  0  0
  154.2728  137.4578  189.2354 C   0  0  0  0  0  0  0  0  0  0  0  0
  155.5044  137.8557  188.7868 C   0  0  0  0  0  0  0  0  0  0  0  0
  155.7474  137.8861  187.3920 N   0  0  0  0  0  0  0  0  0  0  0  0
  156.4173  138.1964  189.7154 N   0  0  0  0  0  0  0  0  0  0  0  0
  156.1268  138.1471  191.0394 C   0  0  0  0  0  0  0  0  0  0  0  0
  154.9225  137.7581  191.4801 N   0  0  0  0  0  0  0  0  0  0  0  0
  153.9871  137.4110  190.5902 C   0  0  0  0  0  0  0  0  0  0  0  0
  154.9734  138.0428  186.7219 H   0  0  0  0  0  0  0  0  0  0  0  0
  156.7100  137.7498  187.0355 H   0  0  0  0  0  0  0  0  0  0  0  0
 21 22  1  0  0  0
 22 23  2  0  0  0
 23 24  1  0  0  0
 24 25  2  0  0  0
 25 26  1  0  0  0
 26 27  1  0  0  0
 27 28  1  0  0  0
 28 29  2  0  0  0
 29 30  1  0  0  0
 27 12  1  0  0  0
 12 13  1  0  0  0
 13 14  1  0  0  0
 14 11  1  0  0  0
 11 10  1  0  0  0
 10  6  1  0  0  0
  6  7  1  0  0  0
  6  8  2  0  0  0
  6  5  1  0  0  0
  5  1  1  0  0  0
  1  2  1  0  0  0
  1  3  2  0  0  0
  1 33  1  0  0  0
 33 34  1  0  0  0
 34 35  1  0  0  0
 34 36  2  0  0  0
 34 38  1  0  0  0
 38 39  1  0  0  0
 39 40  1  0  0  0
 40 41  1  0  0  0
 41 42  1  0  0  0
 42 43  1  0  0  0
 43 44  1  0  0  0
 43 45  1  0  0  0
 45 46  1  0  0  0
 42 49  1  0  0  0
 49 50  1  0  0  0
 50 51  2  0  0  0
 51 52  1  0  0  0
 52 53  2  0  0  0
 53 54  1  0  0  0
 53 55  1  0  0  0
 55 56  2  0  0  0
 56 57  1  0  0  0
 57 58  2  0  0  0
 14 15  1  0  0  0
 15 16  1  0  0  0
 15 17  1  0  0  0
 17 18  1  0  0  0
 30 22  1  0  0  0
 17 12  1  0  0  0
 30 26  2  0  0  0
 45 40  1  0  0  0
 58 49  1  0  0  0
 58 52  1  0  0  0
 21 31  1  0  0  0
 21 32  1  0  0  0
  7  9  1  0  0  0
  2  4  1  0  0  0
 35 37  1  0  0  0
 44 47  1  0  0  0
 46 48  1  0  0  0
 54 59  1  0  0  0
 54 60  1  0  0  0
 16 19  1  0  0  0
 18 20  1  0  0  0
M  END
> <minimizedAffinity>
-6.06595

> <CNNscore>
0.2448114604

> <CNNaffinity>
5.3202481270

> <CNN_VS>
1.3024576902

> <CNNaffinity_variance>
0.4763822556

$$$$
[H]O[C@]1([H])[C@@]([H])(C([H])([H])OP(=O)(O[H])OP(=O)(O[H])OP(=O)(O[H])OC([H])([H])[C@@]2([H])O[C@@]([H])(n3c([H])nc4c(N([H])[H])nc([H])nc43)[C@]([H])(O[H])[C@@]2([H])O[H])O[C@@]([H])(n2c([H])nc3c(N([H])[H])nc([H])nc32)[C@]1([H])O[H]


 60 65  0  0  0  0  0  0  0  0999 V2000
  153.2320  136.8047  184.3177 P   0  0  0  0  0  0  0  0  0  0  0  0
  152.9806  135.8428  182.9491 O   0  0  0  0  0  0  0  0  0  0  0  0
  152.4553  138.1137  184.1420 O   0  0  0  0  0  0  0  0  0  0  0  0
  152.0217  135.8901  182.7369 H   0  0  0  0  0  0  0  0  0  0  0  0
  152.6400  135.9364  185.6468 O   0  0  0  0  0  0  0  0  0  0  0  0
  153.2878  134.3764  185.5499 P   0  0  0  0  0  0  0  0  0  0  0  0
  154.7668  134.4361  184.7143 O   0  0  0  0  0  0  0  0  0  0  0  0
  152.3574  133.5150  184.7325 O   0  0  0  0  0  0  0  0  0  0  0  0
  154.6740  134.1042  183.7749 H   0  0  0  0  0  0  0  0  0  0  0  0
  153.4827  133.8011  187.1122 O   0  0  0  0  0  0  0  0  0  0  0  0
  154.5040  134.4520  187.7934 C   0  0  0  0  0  0  0  0  0  0  0  0
  153.0025  136.5354  190.2087 C   0  0  0  0  0  0  0  0  0  0  0  0
  153.1922  135.2914  189.5687 O   0  0  0  0  0  0  0  0  0  0  0  0
  154.0395  135.6629  188.5270 C   0  0  0  0  0  0  0  0  0  0  0  0
  155.1645  136.3450  189.3006 C   0  0  0  0  0  0  0  0  0  0  0  0
  155.8822  135.3814  189.9663 O   0  0  0  0  0  0  0  0  0  0  0  0
  154.3615  137.1707  190.3057 C   0  0  0  0  0  0  0  0  0  0  0  0
  154.2721  138.4553  189.7695 O   0  0  0  0  0  0  0  0  0  0  0  0
  156.2608  135.7937  190.8039 H   0  0  0  0  0  0  0  0  0  0  0  0
  153.8566  138.3337  188.8597 H   0  0  0  0  0  0  0  0  0  0  0  0
  149.4547  135.3099  194.8974 N   0  0  0  0  0  0  0  0  0  0  0  0
  149.7449  135.2116  193.5151 C   0  0  0  0  0  0  0  0  0  0  0  0
  148.9715  134.5651  192.6272 N   0  0  0  0  0  0  0  0  0  0  0  0
  149.2504  134.4741  191.3152 C   0  0  0  0  0  0  0  0  0  0  0  0
  150.3624  135.0581  190.8511 N   0  0  0  0  0  0  0  0  0  0  0  0
  151.2050  135.7348  191.6786 C   0  0  0  0  0  0  0  0  0  0  0  0
  152.3589  136.3963  191.4769 N   0  0  0  0  0  0  0  0  0  0  0  0
  152.7564  136.8723  192.6569 C   0  0  0  0  0  0  0  0  0  0  0  0
  151.8590  136.5123  193.5915 N   0  0  0  0  0  0  0  0  0  0  0  0
  150.8905  135.8077  193.0092 C   0  0  0  0  0  0  0  0  0  0  0  0
  149.8931  134.6354  195.5480 H   0  0  0  0  0  0  0  0  0  0  0  0
  148.8224  136.0336  195.2561 H   0  0  0  0  0  0  0  0  0  0  0  0
  154.8472  137.1289  184.5936 O   0  0  0  0  0  0  0  0  0  0  0  0
  155.1208  138.3224  185.7289 P   0  0  0  0  0  0  0  0  0  0  0  0
  153.7576  138.6872  186.6545 O   0  0  0  0  0  0  0  0  0  0  0  0
  156.1741  137.7881  186.7018 O   0  0  0  0  0  0  0  0  0  0  0  0
  152.9299  138.5289  186.1378 H   0  0  0  0  0  0  0  0  0  0  0  0
  155.7712  139.6827  184.9981 O   0  0  0  0  0  0  0  0  0  0  0  0
  157.1445  139.5389  184.7418 C   0  0  0  0  0  0  0  0  0  0  0  0
  157.4223  140.1997  183.4201 C   0  0  0  0  0  0  0  0  0  0  0  0
  157.4641  141.5648  183.4549 O   0  0  0  0  0  0  0  0  0  0  0  0
  158.7654  141.9892  183.1574 C   0  0  0  0  0  0  0  0  0  0  0  0
  159.2581  140.9780  182.2232 C   0  0  0  0  0  0  0  0  0  0  0  0
  158.5505  141.1614  181.0041 O   0  0  0  0  0  0  0  0  0  0  0  0
  158.7050  139.6940  182.7958 C   0  0  0  0  0  0  0  0  0  0  0  0
  158.4209  138.8120  181.7455 O   0  0  0  0  0  0  0  0  0  0  0  0
  157.5958  141.2421  181.2114 H   0  0  0  0  0  0  0  0  0  0  0  0
  158.3856  137.8715  182.0490 H   0  0  0  0  0  0  0  0  0  0  0  0
  159.4305  142.1935  184.3855 N   0  0  0  0  0  0  0  0  0  0  0  0
  158.7379  142.4342  185.5391 C   0  0  0  0  0  0  0  0  0  0  0  0
  159.6319  142.5849  186.5255 N   0  0  0  0  0  0  0  0  0  0  0  0
  160.8929  142.4452  186.0260 C   0  0  0  0  0  0  0  0  0  0  0  0
  162.1445  142.5021  186.5796 C   0  0  0  0  0  0  0  0  0  0  0  0
  162.2678  142.7567  187.9673 N   0  0  0  0  0  0  0  0  0  0  0  0
  163.1915  142.3100  185.7557 N   0  0  0  0  0  0  0  0  0  0  0  0
  163.0114  142.0699  184.4330 C   0  0  0  0  0  0  0  0  0  0  0  0
  161.7877  142.0138  183.8896 N   0  0  0  0  0  0  0  0  0  0  0  0
  160.7207  142.1995  184.6735 C   0  0  0  0  0  0  0  0  0  0  0  0
  161.5174  142.4815  188.6259 H   0  0  0  0  0  0  0  0  0  0  0  0
  163.1178  143.2239  188.3299 H   0  0  0  0  0  0  0  0  0  0  0  0
 21 22  1  0  0  0
 22 23  2  0  0  0
 23 24  1  0  0  0
 24 25  2  0  0  0
 25 26  1  0  0  0
 26 27  1  0  0  0
 27 28  1  0  0  0
 28 29  2  0  0  0
 29 30  1  0  0  0
 27 12  1  0  0  0
 12 13  1  0  0  0
 13 14  1  0  0  0
 14 11  1  0  0  0
 11 10  1  0  0  0
 10  6  1  0  0  0
  6  7  1  0  0  0
  6  8  2  0  0  0
  6  5  1  0  0  0
  5  1  1  0  0  0
  1  2  1  0  0  0
  1  3  2  0  0  0
  1 33  1  0  0  0
 33 34  1  0  0  0
 34 35  1  0  0  0
 34 36  2  0  0  0
 34 38  1  0  0  0
 38 39  1  0  0  0
 39 40  1  0  0  0
 40 41  1  0  0  0
 41 42  1  0  0  0
 42 43  1  0  0  0
 43 44  1  0  0  0
 43 45  1  0  0  0
 45 46  1  0  0  0
 42 49  1  0  0  0
 49 50  1  0  0  0
 50 51  2  0  0  0
 51 52  1  0  0  0
 52 53  2  0  0  0
 53 54  1  0  0  0
 53 55  1  0  0  0
 55 56  2  0  0  0
 56 57  1  0  0  0
 57 58  2  0  0  0
 14 15  1  0  0  0
 15 16  1  0  0  0
 15 17  1  0  0  0
 17 18  1  0  0  0
 30 22  1  0  0  0
 17 12  1  0  0  0
 30 26  2  0  0  0
 45 40  1  0  0  0
 58 49  1  0  0  0
 58 52  1  0  0  0
 21 31  1  0  0  0
 21 32  1  0  0  0
  7  9  1  0  0  0
  2  4  1  0  0  0
 35 37  1  0  0  0
 44 47  1  0  0  0
 46 48  1  0  0  0
 54 59  1  0  0  0
 54 60  1  0  0  0
 16 19  1  0  0  0
 18 20  1  0  0  0
M  END
> <minimizedAffinity>
-7.10569

> <CNNscore>
0.2164545506

> <CNNaffinity>
5.2585692406

> <CNN_VS>
1.1382412910

> <CNNaffinity_variance>
0.5306964517

$$$$
[H]O[C@]1([H])[C@@]([H])(C([H])([H])OP(=O)(O[H])OP(=O)(O[H])OP(=O)(O[H])OC([H])([H])[C@@]2([H])O[C@@]([H])(n3c([H])nc4c(N([H])[H])nc([H])nc43)[C@]([H])(O[H])[C@@]2([H])O[H])O[C@@]([H])(n2c([H])nc3c(N([H])[H])nc([H])nc32)[C@]1([H])O[H]


 60 65  0  0  0  0  0  0  0  0999 V2000
  153.9129  135.8150  185.9233 P   0  0  0  0  0  0  0  0  0  0  0  0
  152.8468  137.0239  186.4369 O   0  0  0  0  0  0  0  0  0  0  0  0
  153.2286  134.4555  186.0996 O   0  0  0  0  0  0  0  0  0  0  0  0
  151.9620  136.8011  186.0707 H   0  0  0  0  0  0  0  0  0  0  0  0
  154.2400  136.1079  184.2869 O   0  0  0  0  0  0  0  0  0  0  0  0
  152.7863  136.5900  183.5679 P   0  0  0  0  0  0  0  0  0  0  0  0
  151.5065  135.6962  184.2406 O   0  0  0  0  0  0  0  0  0  0  0  0
  152.8350  136.2480  182.0995 O   0  0  0  0  0  0  0  0  0  0  0  0
  151.1954  134.9737  183.6222 H   0  0  0  0  0  0  0  0  0  0  0  0
  152.5996  138.2343  183.8344 O   0  0  0  0  0  0  0  0  0  0  0  0
  153.1811  139.0031  182.8336 C   0  0  0  0  0  0  0  0  0  0  0  0
  156.0087  140.9536  183.6265 C   0  0  0  0  0  0  0  0  0  0  0  0
  155.3865  139.7519  183.2241 O   0  0  0  0  0  0  0  0  0  0  0  0
  154.0438  140.0970  183.3622 C   0  0  0  0  0  0  0  0  0  0  0  0
  153.9810  141.3574  182.5038 C   0  0  0  0  0  0  0  0  0  0  0  0
  154.0814  140.9911  181.1837 O   0  0  0  0  0  0  0  0  0  0  0  0
  155.2653  142.0639  182.9378 C   0  0  0  0  0  0  0  0  0  0  0  0
  154.8886  142.9924  183.9083 O   0  0  0  0  0  0  0  0  0  0  0  0
  154.5204  141.7454  180.6806 H   0  0  0  0  0  0  0  0  0  0  0  0
  154.4136  142.4563  184.6169 H   0  0  0  0  0  0  0  0  0  0  0  0
  162.0013  141.3548  183.5975 N   0  0  0  0  0  0  0  0  0  0  0  0
  160.7624  141.4871  184.2700 C   0  0  0  0  0  0  0  0  0  0  0  0
  160.6369  141.8907  185.5451 N   0  0  0  0  0  0  0  0  0  0  0  0
  159.4587  142.0154  186.1804 C   0  0  0  0  0  0  0  0  0  0  0  0
  158.3341  141.7233  185.5147 N   0  0  0  0  0  0  0  0  0  0  0  0
  158.3660  141.3069  184.2193 C   0  0  0  0  0  0  0  0  0  0  0  0
  157.4088  140.9574  183.3408 N   0  0  0  0  0  0  0  0  0  0  0  0
  158.0157  140.6302  182.2000 C   0  0  0  0  0  0  0  0  0  0  0  0
  159.3432  140.7732  182.3614 N   0  0  0  0  0  0  0  0  0  0  0  0
  159.5831  141.1908  183.6029 C   0  0  0  0  0  0  0  0  0  0  0  0
  162.4509  140.4237  183.5594 H   0  0  0  0  0  0  0  0  0  0  0  0
  162.4521  142.1620  183.1532 H   0  0  0  0  0  0  0  0  0  0  0  0
  155.3643  135.8378  186.7497 O   0  0  0  0  0  0  0  0  0  0  0  0
  155.2135  135.6483  188.4019 P   0  0  0  0  0  0  0  0  0  0  0  0
  156.6935  135.6671  189.2128 O   0  0  0  0  0  0  0  0  0  0  0  0
  154.4189  136.8474  188.9238 O   0  0  0  0  0  0  0  0  0  0  0  0
  157.4160  135.3226  188.6329 H   0  0  0  0  0  0  0  0  0  0  0  0
  154.3187  134.2755  188.7511 O   0  0  0  0  0  0  0  0  0  0  0  0
  153.7178  134.3450  190.0186 C   0  0  0  0  0  0  0  0  0  0  0  0
  154.4756  133.4124  190.9223 C   0  0  0  0  0  0  0  0  0  0  0  0
  154.1909  133.5395  192.2524 O   0  0  0  0  0  0  0  0  0  0  0  0
  153.5751  132.3644  192.7015 C   0  0  0  0  0  0  0  0  0  0  0  0
  154.1855  131.3158  191.8857 C   0  0  0  0  0  0  0  0  0  0  0  0
  155.5324  131.1846  192.3206 O   0  0  0  0  0  0  0  0  0  0  0  0
  154.2854  131.9644  190.5249 C   0  0  0  0  0  0  0  0  0  0  0  0
  155.4286  131.4836  189.8740 O   0  0  0  0  0  0  0  0  0  0  0  0
  155.9261  132.0806  192.3774 H   0  0  0  0  0  0  0  0  0  0  0  0
  155.3719  131.5940  188.8929 H   0  0  0  0  0  0  0  0  0  0  0  0
  152.1804  132.5746  192.6457 N   0  0  0  0  0  0  0  0  0  0  0  0
  151.3385  131.6331  192.1230 C   0  0  0  0  0  0  0  0  0  0  0  0
  150.0905  132.1129  192.2068 N   0  0  0  0  0  0  0  0  0  0  0  0
  150.1134  133.3517  192.7762 C   0  0  0  0  0  0  0  0  0  0  0  0
  149.1465  134.2694  193.0908 C   0  0  0  0  0  0  0  0  0  0  0  0
  147.7939  133.9639  192.8030 N   0  0  0  0  0  0  0  0  0  0  0  0
  149.5514  135.4194  193.6611 N   0  0  0  0  0  0  0  0  0  0  0  0
  150.8629  135.6567  193.9128 C   0  0  0  0  0  0  0  0  0  0  0  0
  151.8103  134.7600  193.6057 N   0  0  0  0  0  0  0  0  0  0  0  0
  151.4503  133.6046  193.0376 C   0  0  0  0  0  0  0  0  0  0  0  0
  147.4650  132.9820  192.7800 H   0  0  0  0  0  0  0  0  0  0  0  0
  147.1239  134.7301  192.6127 H   0  0  0  0  0  0  0  0  0  0  0  0
 21 22  1  0  0  0
 22 23  2  0  0  0
 23 24  1  0  0  0
 24 25  2  0  0  0
 25 26  1  0  0  0
 26 27  1  0  0  0
 27 28  1  0  0  0
 28 29  2  0  0  0
 29 30  1  0  0  0
 27 12  1  0  0  0
 12 13  1  0  0  0
 13 14  1  0  0  0
 14 11  1  0  0  0
 11 10  1  0  0  0
 10  6  1  0  0  0
  6  7  1  0  0  0
  6  8  2  0  0  0
  6  5  1  0  0  0
  5  1  1  0  0  0
  1  2  1  0  0  0
  1  3  2  0  0  0
  1 33  1  0  0  0
 33 34  1  0  0  0
 34 35  1  0  0  0
 34 36  2  0  0  0
 34 38  1  0  0  0
 38 39  1  0  0  0
 39 40  1  0  0  0
 40 41  1  0  0  0
 41 42  1  0  0  0
 42 43  1  0  0  0
 43 44  1  0  0  0
 43 45  1  0  0  0
 45 46  1  0  0  0
 42 49  1  0  0  0
 49 50  1  0  0  0
 50 51  2  0  0  0
 51 52  1  0  0  0
 52 53  2  0  0  0
 53 54  1  0  0  0
 53 55  1  0  0  0
 55 56  2  0  0  0
 56 57  1  0  0  0
 57 58  2  0  0  0
 14 15  1  0  0  0
 15 16  1  0  0  0
 15 17  1  0  0  0
 17 18  1  0  0  0
 30 22  1  0  0  0
 17 12  1  0  0  0
 30 26  2  0  0  0
 45 40  1  0  0  0
 58 49  1  0  0  0
 58 52  1  0  0  0
 21 31  1  0  0  0
 21 32  1  0  0  0
  7  9  1  0  0  0
  2  4  1  0  0  0
 35 37  1  0  0  0
 44 47  1  0  0  0
 46 48  1  0  0  0
 54 59  1  0  0  0
 54 60  1  0  0  0
 16 19  1  0  0  0
 18 20  1  0  0  0
M  END
> <minimizedAffinity>
-6.53517

> <CNNscore>
0.2113263309

> <CNNaffinity>
5.4217591286

> <CNN_VS>
1.1457604170

> <CNNaffinity_variance>
1.2310602665

$$$$
[H]O[C@]1([H])[C@@]([H])(C([H])([H])OP(=O)(O[H])OP(=O)(O[H])OP(=O)(O[H])OC([H])([H])[C@@]2([H])O[C@@]([H])(n3c([H])nc4c(N([H])[H])nc([H])nc43)[C@]([H])(O[H])[C@@]2([H])O[H])O[C@@]([H])(n2c([H])nc3c(N([H])[H])nc([H])nc32)[C@]1([H])O[H]


 60 65  0  0  0  0  0  0  0  0999 V2000
  153.9689  141.2042  182.7617 P   0  0  0  0  0  0  0  0  0  0  0  0
  154.2861  141.9500  184.2466 O   0  0  0  0  0  0  0  0  0  0  0  0
  153.1405  142.1644  181.9018 O   0  0  0  0  0  0  0  0  0  0  0  0
  154.5452  142.8783  184.0521 H   0  0  0  0  0  0  0  0  0  0  0  0
  155.4676  140.8968  182.0336 O   0  0  0  0  0  0  0  0  0  0  0  0
  156.4724  140.2363  183.2237 P   0  0  0  0  0  0  0  0  0  0  0  0
  156.9234  141.4582  184.3159 O   0  0  0  0  0  0  0  0  0  0  0  0
  157.7395  139.7439  182.5697 O   0  0  0  0  0  0  0  0  0  0  0  0
  157.8615  141.7680  184.1567 H   0  0  0  0  0  0  0  0  0  0  0  0
  155.6280  139.0055  183.9866 O   0  0  0  0  0  0  0  0  0  0  0  0
  155.8358  138.9923  185.3604 C   0  0  0  0  0  0  0  0  0  0  0  0
  154.6015  136.5760  187.6113 C   0  0  0  0  0  0  0  0  0  0  0  0
  154.9866  137.8903  187.2687 O   0  0  0  0  0  0  0  0  0  0  0  0
  155.5015  137.6841  185.9906 C   0  0  0  0  0  0  0  0  0  0  0  0
  154.3212  136.9935  185.3130 C   0  0  0  0  0  0  0  0  0  0  0  0
  153.3301  137.9228  185.1107 O   0  0  0  0  0  0  0  0  0  0  0  0
  153.8921  136.0181  186.4090 C   0  0  0  0  0  0  0  0  0  0  0  0
  154.4834  134.7948  186.0933 O   0  0  0  0  0  0  0  0  0  0  0  0
  152.4423  137.4475  185.1416 H   0  0  0  0  0  0  0  0  0  0  0  0
  155.4703  134.9869  186.0291 H   0  0  0  0  0  0  0  0  0  0  0  0
  152.3290  136.1860  193.1571 N   0  0  0  0  0  0  0  0  0  0  0  0
  153.4344  136.1350  192.2739 C   0  0  0  0  0  0  0  0  0  0  0  0
  154.6974  135.8912  192.6612 N   0  0  0  0  0  0  0  0  0  0  0  0
  155.7445  135.8434  191.8194 C   0  0  0  0  0  0  0  0  0  0  0  0
  155.5310  136.0491  190.5136 N   0  0  0  0  0  0  0  0  0  0  0  0
  154.2838  136.3030  190.0314 C   0  0  0  0  0  0  0  0  0  0  0  0
  153.8045  136.5398  188.7968 N   0  0  0  0  0  0  0  0  0  0  0  0
  152.4893  136.7252  188.9091 C   0  0  0  0  0  0  0  0  0  0  0  0
  152.1460  136.6058  190.2038 N   0  0  0  0  0  0  0  0  0  0  0  0
  153.2401  136.3446  190.9167 C   0  0  0  0  0  0  0  0  0  0  0  0
  152.0170  137.1062  193.5126 H   0  0  0  0  0  0  0  0  0  0  0  0
  151.8404  135.3311  193.4447 H   0  0  0  0  0  0  0  0  0  0  0  0
  153.1691  139.7470  182.9267 O   0  0  0  0  0  0  0  0  0  0  0  0
  152.4491  139.1995  181.5231 P   0  0  0  0  0  0  0  0  0  0  0  0
  152.8584  140.1123  180.1640 O   0  0  0  0  0  0  0  0  0  0  0  0
  152.9735  137.7847  181.2681 O   0  0  0  0  0  0  0  0  0  0  0  0
  153.0486  141.0494  180.4147 H   0  0  0  0  0  0  0  0  0  0  0  0
  150.7905  139.0798  181.7281 O   0  0  0  0  0  0  0  0  0  0  0  0
  150.0878  139.4273  180.5629 C   0  0  0  0  0  0  0  0  0  0  0  0
  149.5024  138.1611  180.0017 C   0  0  0  0  0  0  0  0  0  0  0  0
  149.8791  137.0164  180.6452 O   0  0  0  0  0  0  0  0  0  0  0  0
  148.7557  136.4467  181.2579 C   0  0  0  0  0  0  0  0  0  0  0  0
  147.6538  136.7973  180.3631 C   0  0  0  0  0  0  0  0  0  0  0  0
  147.8234  136.0311  179.1779 O   0  0  0  0  0  0  0  0  0  0  0  0
  147.9905  138.2122  179.9541 C   0  0  0  0  0  0  0  0  0  0  0  0
  147.5513  138.4235  178.6410 O   0  0  0  0  0  0  0  0  0  0  0  0
  148.7576  136.1098  178.8916 H   0  0  0  0  0  0  0  0  0  0  0  0
  147.4307  139.3841  178.4393 H   0  0  0  0  0  0  0  0  0  0  0  0
  148.7397  136.8895  182.5980 N   0  0  0  0  0  0  0  0  0  0  0  0
  149.8347  136.7564  183.4053 C   0  0  0  0  0  0  0  0  0  0  0  0
  149.5186  137.2622  184.6050 N   0  0  0  0  0  0  0  0  0  0  0  0
  148.2346  137.7204  184.5850 C   0  0  0  0  0  0  0  0  0  0  0  0
  147.4253  138.3168  185.5154 C   0  0  0  0  0  0  0  0  0  0  0  0
  147.9365  138.5549  186.8144 N   0  0  0  0  0  0  0  0  0  0  0  0
  146.1779  138.6420  185.1283 N   0  0  0  0  0  0  0  0  0  0  0  0
  145.7432  138.3888  183.8686 C   0  0  0  0  0  0  0  0  0  0  0  0
  146.5335  137.8054  182.9570 N   0  0  0  0  0  0  0  0  0  0  0  0
  147.7801  137.4662  183.3011 C   0  0  0  0  0  0  0  0  0  0  0  0
  148.9502  138.7029  186.9669 H   0  0  0  0  0  0  0  0  0  0  0  0
  147.2906  138.5815  187.6233 H   0  0  0  0  0  0  0  0  0  0  0  0
 21 22  1  0  0  0
 22 23  2  0  0  0
 23 24  1  0  0  0
 24 25  2  0  0  0
 25 26  1  0  0  0
 26 27  1  0  0  0
 27 28  1  0  0  0
 28 29  2  0  0  0
 29 30  1  0  0  0
 27 12  1  0  0  0
 12 13  1  0  0  0
 13 14  1  0  0  0
 14 11  1  0  0  0
 11 10  1  0  0  0
 10  6  1  0  0  0
  6  7  1  0  0  0
  6  8  2  0  0  0
  6  5  1  0  0  0
  5  1  1  0  0  0
  1  2  1  0  0  0
  1  3  2  0  0  0
  1 33  1  0  0  0
 33 34  1  0  0  0
 34 35  1  0  0  0
 34 36  2  0  0  0
 34 38  1  0  0  0
 38 39  1  0  0  0
 39 40  1  0  0  0
 40 41  1  0  0  0
 41 42  1  0  0  0
 42 43  1  0  0  0
 43 44  1  0  0  0
 43 45  1  0  0  0
 45 46  1  0  0  0
 42 49  1  0  0  0
 49 50  1  0  0  0
 50 51  2  0  0  0
 51 52  1  0  0  0
 52 53  2  0  0  0
 53 54  1  0  0  0
 53 55  1  0  0  0
 55 56  2  0  0  0
 56 57  1  0  0  0
 57 58  2  0  0  0
 14 15  1  0  0  0
 15 16  1  0  0  0
 15 17  1  0  0  0
 17 18  1  0  0  0
 30 22  1  0  0  0
 17 12  1  0  0  0
 30 26  2  0  0  0
 45 40  1  0  0  0
 58 49  1  0  0  0
 58 52  1  0  0  0
 21 31  1  0  0  0
 21 32  1  0  0  0
  7  9  1  0  0  0
  2  4  1  0  0  0
 35 37  1  0  0  0
 44 47  1  0  0  0
 46 48  1  0  0  0
 54 59  1  0  0  0
 54 60  1  0  0  0
 16 19  1  0  0  0
 18 20  1  0  0  0
M  END
> <minimizedAffinity>
-6.28490

> <CNNscore>
0.2109961361

> <CNNaffinity>
4.8806295395

> <CNN_VS>
1.0297939777

> <CNNaffinity_variance>
0.4468597770

$$$$
[H]O[C@]1([H])[C@@]([H])(C([H])([H])OP(=O)(O[H])OP(=O)(O[H])OP(=O)(O[H])OC([H])([H])[C@@]2([H])O[C@@]([H])(n3c([H])nc4c(N([H])[H])nc([H])nc43)[C@]([H])(O[H])[C@@]2([H])O[H])O[C@@]([H])(n2c([H])nc3c(N([H])[H])nc([H])nc32)[C@]1([H])O[H]


 60 65  0  0  0  0  0  0  0  0999 V2000
  153.5696  138.4041  183.9730 P   0  0  0  0  0  0  0  0  0  0  0  0
  154.3849  137.0099  183.4698 O   0  0  0  0  0  0  0  0  0  0  0  0
  152.9461  139.0737  182.7439 O   0  0  0  0  0  0  0  0  0  0  0  0
  153.7978  136.5490  182.8299 H   0  0  0  0  0  0  0  0  0  0  0  0
  152.3639  137.9075  185.0548 O   0  0  0  0  0  0  0  0  0  0  0  0
  153.0863  136.8359  186.1467 P   0  0  0  0  0  0  0  0  0  0  0  0
  154.7606  137.1262  186.1901 O   0  0  0  0  0  0  0  0  0  0  0  0
  152.8990  135.4275  185.6396 O   0  0  0  0  0  0  0  0  0  0  0  0
  155.2689  136.4339  185.6767 H   0  0  0  0  0  0  0  0  0  0  0  0
  152.3781  137.0733  187.6473 O   0  0  0  0  0  0  0  0  0  0  0  0
  153.2408  137.6824  188.5503 C   0  0  0  0  0  0  0  0  0  0  0  0
  153.5413  134.9252  190.7265 C   0  0  0  0  0  0  0  0  0  0  0  0
  153.0823  135.5463  189.5447 O   0  0  0  0  0  0  0  0  0  0  0  0
  153.4915  136.8594  189.7669 C   0  0  0  0  0  0  0  0  0  0  0  0
  154.9795  136.6550  190.0378 C   0  0  0  0  0  0  0  0  0  0  0  0
  155.5964  136.3251  188.8558 O   0  0  0  0  0  0  0  0  0  0  0  0
  154.9387  135.4310  190.9527 C   0  0  0  0  0  0  0  0  0  0  0  0
  155.0106  135.9190  192.2575 O   0  0  0  0  0  0  0  0  0  0  0  0
  156.3882  135.7390  189.0671 H   0  0  0  0  0  0  0  0  0  0  0  0
  154.2411  136.5640  192.3414 H   0  0  0  0  0  0  0  0  0  0  0  0
  154.0473  129.0723  189.4775 N   0  0  0  0  0  0  0  0  0  0  0  0
  154.3986  130.4198  189.2221 C   0  0  0  0  0  0  0  0  0  0  0  0
  155.2596  130.8055  188.2658 N   0  0  0  0  0  0  0  0  0  0  0  0
  155.5905  132.0863  188.0260 C   0  0  0  0  0  0  0  0  0  0  0  0
  155.0365  133.0461  188.7776 N   0  0  0  0  0  0  0  0  0  0  0  0
  154.1534  132.7476  189.7693 C   0  0  0  0  0  0  0  0  0  0  0  0
  153.4686  133.5001  190.6495 N   0  0  0  0  0  0  0  0  0  0  0  0
  152.7417  132.6725  191.4001 C   0  0  0  0  0  0  0  0  0  0  0  0
  152.9687  131.4106  190.9942 N   0  0  0  0  0  0  0  0  0  0  0  0
  153.8388  131.4328  189.9864 C   0  0  0  0  0  0  0  0  0  0  0  0
  154.5478  128.5596  190.2240 H   0  0  0  0  0  0  0  0  0  0  0  0
  153.3113  128.6048  188.9372 H   0  0  0  0  0  0  0  0  0  0  0  0
  154.5637  139.4832  184.7713 O   0  0  0  0  0  0  0  0  0  0  0  0
  155.2299  140.6561  183.7870 P   0  0  0  0  0  0  0  0  0  0  0  0
  155.3378  140.1865  182.1696 O   0  0  0  0  0  0  0  0  0  0  0  0
  154.2919  141.8645  183.8251 O   0  0  0  0  0  0  0  0  0  0  0  0
  155.4481  139.2070  182.0950 H   0  0  0  0  0  0  0  0  0  0  0  0
  156.7062  141.1597  184.3988 O   0  0  0  0  0  0  0  0  0  0  0  0
  157.2850  140.1967  185.2413 C   0  0  0  0  0  0  0  0  0  0  0  0
  158.7149  140.6035  185.4662 C   0  0  0  0  0  0  0  0  0  0  0  0
  159.6221  140.0056  184.6380 O   0  0  0  0  0  0  0  0  0  0  0  0
  160.1985  140.9801  183.8134 C   0  0  0  0  0  0  0  0  0  0  0  0
  160.2176  142.1793  184.6497 C   0  0  0  0  0  0  0  0  0  0  0  0
  161.1943  141.9637  185.6598 O   0  0  0  0  0  0  0  0  0  0  0  0
  158.8949  142.1036  185.3757 C   0  0  0  0  0  0  0  0  0  0  0  0
  159.0450  142.6544  186.6546 O   0  0  0  0  0  0  0  0  0  0  0  0
  161.0465  141.0749  186.0461 H   0  0  0  0  0  0  0  0  0  0  0  0
  158.1806  142.9419  187.0394 H   0  0  0  0  0  0  0  0  0  0  0  0
  159.4774  140.9820  182.6000 N   0  0  0  0  0  0  0  0  0  0  0  0
  158.9169  139.8387  182.1028 C   0  0  0  0  0  0  0  0  0  0  0  0
  158.3055  140.1530  180.9528 N   0  0  0  0  0  0  0  0  0  0  0  0
  158.4630  141.4835  180.6993 C   0  0  0  0  0  0  0  0  0  0  0  0
  158.0534  142.3117  179.6880 C   0  0  0  0  0  0  0  0  0  0  0  0
  157.2947  141.7676  178.6232 N   0  0  0  0  0  0  0  0  0  0  0  0
  158.4048  143.6082  179.7736 N   0  0  0  0  0  0  0  0  0  0  0  0
  159.1339  144.0724  180.8190 C   0  0  0  0  0  0  0  0  0  0  0  0
  159.5355  143.2636  181.8092 N   0  0  0  0  0  0  0  0  0  0  0  0
  159.2076  141.9684  181.7622 C   0  0  0  0  0  0  0  0  0  0  0  0
  156.6936  140.9371  178.7702 H   0  0  0  0  0  0  0  0  0  0  0  0
  157.3402  142.2039  177.6852 H   0  0  0  0  0  0  0  0  0  0  0  0
 21 22  1  0  0  0
 22 23  2  0  0  0
 23 24  1  0  0  0
 24 25  2  0  0  0
 25 26  1  0  0  0
 26 27  1  0  0  0
 27 28  1  0  0  0
 28 29  2  0  0  0
 29 30  1  0  0  0
 27 12  1  0  0  0
 12 13  1  0  0  0
 13 14  1  0  0  0
 14 11  1  0  0  0
 11 10  1  0  0  0
 10  6  1  0  0  0
  6  7  1  0  0  0
  6  8  2  0  0  0
  6  5  1  0  0  0
  5  1  1  0  0  0
  1  2  1  0  0  0
  1  3  2  0  0  0
  1 33  1  0  0  0
 33 34  1  0  0  0
 34 35  1  0  0  0
 34 36  2  0  0  0
 34 38  1  0  0  0
 38 39  1  0  0  0
 39 40  1  0  0  0
 40 41  1  0  0  0
 41 42  1  0  0  0
 42 43  1  0  0  0
 43 44  1  0  0  0
 43 45  1  0  0  0
 45 46  1  0  0  0
 42 49  1  0  0  0
 49 50  1  0  0  0
 50 51  2  0  0  0
 51 52  1  0  0  0
 52 53  2  0  0  0
 53 54  1  0  0  0
 53 55  1  0  0  0
 55 56  2  0  0  0
 56 57  1  0  0  0
 57 58  2  0  0  0
 14 15  1  0  0  0
 15 16  1  0  0  0
 15 17  1  0  0  0
 17 18  1  0  0  0
 30 22  1  0  0  0
 17 12  1  0  0  0
 30 26  2  0  0  0
 45 40  1  0  0  0
 58 49  1  0  0  0
 58 52  1  0  0  0
 21 31  1  0  0  0
 21 32  1  0  0  0
  7  9  1  0  0  0
  2  4  1  0  0  0
 35 37  1  0  0  0
 44 47  1  0  0  0
 46 48  1  0  0  0
 54 59  1  0  0  0
 54 60  1  0  0  0
 16 19  1  0  0  0
 18 20  1  0  0  0
M  END
> <minimizedAffinity>
-5.86286

> <CNNscore>
0.2007357627

> <CNNaffinity>
5.5093078613

> <CNN_VS>
1.1059150696

> <CNNaffinity_variance>
1.5838737488

$$$$
[H]O[C@]1([H])[C@@]([H])(C([H])([H])OP(=O)(O[H])OP(=O)(O[H])OP(=O)(O[H])OC([H])([H])[C@@]2([H])O[C@@]([H])(n3c([H])nc4c(N([H])[H])nc([H])nc43)[C@]([H])(O[H])[C@@]2([H])O[H])O[C@@]([H])(n2c([H])nc3c(N([H])[H])nc([H])nc32)[C@]1([H])O[H]


 60 65  0  0  0  0  0  0  0  0999 V2000
  153.4659  136.2728  186.6476 P   0  0  0  0  0  0  0  0  0  0  0  0
  154.7617  137.3392  186.8600 O   0  0  0  0  0  0  0  0  0  0  0  0
  152.1621  137.0310  186.9177 O   0  0  0  0  0  0  0  0  0  0  0  0
  154.5142  138.1832  186.4205 H   0  0  0  0  0  0  0  0  0  0  0  0
  153.5222  135.7416  185.0397 O   0  0  0  0  0  0  0  0  0  0  0  0
  152.8706  136.9771  184.0849 P   0  0  0  0  0  0  0  0  0  0  0  0
  151.1953  137.0696  184.3574 O   0  0  0  0  0  0  0  0  0  0  0  0
  153.0588  136.6174  182.6320 O   0  0  0  0  0  0  0  0  0  0  0  0
  150.6758  136.6597  183.6069 H   0  0  0  0  0  0  0  0  0  0  0  0
  153.6438  138.4070  184.4937 O   0  0  0  0  0  0  0  0  0  0  0  0
  153.5499  139.3657  183.4923 C   0  0  0  0  0  0  0  0  0  0  0  0
  156.3561  141.4807  183.7756 C   0  0  0  0  0  0  0  0  0  0  0  0
  155.7480  140.2114  183.6662 O   0  0  0  0  0  0  0  0  0  0  0  0
  154.4019  140.5618  183.7450 C   0  0  0  0  0  0  0  0  0  0  0  0
  154.3072  141.5940  182.6248 C   0  0  0  0  0  0  0  0  0  0  0  0
  154.3957  140.9394  181.4204 O   0  0  0  0  0  0  0  0  0  0  0  0
  155.5857  142.3967  182.8660 C   0  0  0  0  0  0  0  0  0  0  0  0
  155.2072  143.5160  183.6073 O   0  0  0  0  0  0  0  0  0  0  0  0
  154.8157  141.5657  180.7523 H   0  0  0  0  0  0  0  0  0  0  0  0
  154.7505  143.1484  184.4268 H   0  0  0  0  0  0  0  0  0  0  0  0
  162.3604  141.6010  183.6964 N   0  0  0  0  0  0  0  0  0  0  0  0
  161.1358  141.7472  184.3918 C   0  0  0  0  0  0  0  0  0  0  0  0
  161.0420  142.0721  185.6919 N   0  0  0  0  0  0  0  0  0  0  0  0
  159.8772  142.2102  186.3488 C   0  0  0  0  0  0  0  0  0  0  0  0
  158.7337  142.0154  185.6799 N   0  0  0  0  0  0  0  0  0  0  0  0
  158.7331  141.6834  184.3600 C   0  0  0  0  0  0  0  0  0  0  0  0
  157.7520  141.4374  183.4729 N   0  0  0  0  0  0  0  0  0  0  0  0
  158.3316  141.1573  182.3057 C   0  0  0  0  0  0  0  0  0  0  0  0
  159.6658  141.2270  182.4592 N   0  0  0  0  0  0  0  0  0  0  0  0
  159.9373  141.5509  183.7220 C   0  0  0  0  0  0  0  0  0  0  0  0
  162.7647  140.6543  183.5924 H   0  0  0  0  0  0  0  0  0  0  0  0
  162.8449  142.4135  183.2997 H   0  0  0  0  0  0  0  0  0  0  0  0
  153.5636  134.9299  187.6362 O   0  0  0  0  0  0  0  0  0  0  0  0
  152.9413  133.5359  186.9596 P   0  0  0  0  0  0  0  0  0  0  0  0
  152.7393  133.6394  185.2873 O   0  0  0  0  0  0  0  0  0  0  0  0
  153.9603  132.4208  187.2041 O   0  0  0  0  0  0  0  0  0  0  0  0
  152.5597  134.5717  185.0124 H   0  0  0  0  0  0  0  0  0  0  0  0
  151.5276  133.0905  187.7408 O   0  0  0  0  0  0  0  0  0  0  0  0
  150.7220  134.1992  188.0479 C   0  0  0  0  0  0  0  0  0  0  0  0
  149.9870  133.8770  189.3193 C   0  0  0  0  0  0  0  0  0  0  0  0
  150.5718  132.9179  190.0968 O   0  0  0  0  0  0  0  0  0  0  0  0
  150.9906  133.4991  191.3004 C   0  0  0  0  0  0  0  0  0  0  0  0
  150.0004  134.5463  191.5464 C   0  0  0  0  0  0  0  0  0  0  0  0
  148.7839  133.8939  191.8859 O   0  0  0  0  0  0  0  0  0  0  0  0
  149.7582  135.1105  190.1660 C   0  0  0  0  0  0  0  0  0  0  0  0
  148.4240  135.5259  190.0712 O   0  0  0  0  0  0  0  0  0  0  0  0
  148.6225  133.1832  191.2302 H   0  0  0  0  0  0  0  0  0  0  0  0
  148.2918  136.1909  189.3513 H   0  0  0  0  0  0  0  0  0  0  0  0
  152.3515  133.8418  191.1489 N   0  0  0  0  0  0  0  0  0  0  0  0
  153.2727  132.9274  190.7200 C   0  0  0  0  0  0  0  0  0  0  0  0
  154.4633  133.5403  190.6764 N   0  0  0  0  0  0  0  0  0  0  0  0
  154.3250  134.8380  191.0713 C   0  0  0  0  0  0  0  0  0  0  0  0
  155.1966  135.8856  191.2101 C   0  0  0  0  0  0  0  0  0  0  0  0
  156.5641  135.6831  190.9026 N   0  0  0  0  0  0  0  0  0  0  0  0
  154.6885  137.0568  191.6366 N   0  0  0  0  0  0  0  0  0  0  0  0
  153.3681  137.1911  191.9164 C   0  0  0  0  0  0  0  0  0  0  0  0
  152.5140  136.1674  191.7812 N   0  0  0  0  0  0  0  0  0  0  0  0
  152.9782  134.9864  191.3601 C   0  0  0  0  0  0  0  0  0  0  0  0
  156.8517  134.9725  190.2061 H   0  0  0  0  0  0  0  0  0  0  0  0
  157.2869  136.2511  191.3791 H   0  0  0  0  0  0  0  0  0  0  0  0
 21 22  1  0  0  0
 22 23  2  0  0  0
 23 24  1  0  0  0
 24 25  2  0  0  0
 25 26  1  0  0  0
 26 27  1  0  0  0
 27 28  1  0  0  0
 28 29  2  0  0  0
 29 30  1  0  0  0
 27 12  1  0  0  0
 12 13  1  0  0  0
 13 14  1  0  0  0
 14 11  1  0  0  0
 11 10  1  0  0  0
 10  6  1  0  0  0
  6  7  1  0  0  0
  6  8  2  0  0  0
  6  5  1  0  0  0
  5  1  1  0  0  0
  1  2  1  0  0  0
  1  3  2  0  0  0
  1 33  1  0  0  0
 33 34  1  0  0  0
 34 35  1  0  0  0
 34 36  2  0  0  0
 34 38  1  0  0  0
 38 39  1  0  0  0
 39 40  1  0  0  0
 40 41  1  0  0  0
 41 42  1  0  0  0
 42 43  1  0  0  0
 43 44  1  0  0  0
 43 45  1  0  0  0
 45 46  1  0  0  0
 42 49  1  0  0  0
 49 50  1  0  0  0
 50 51  2  0  0  0
 51 52  1  0  0  0
 52 53  2  0  0  0
 53 54  1  0  0  0
 53 55  1  0  0  0
 55 56  2  0  0  0
 56 57  1  0  0  0
 57 58  2  0  0  0
 14 15  1  0  0  0
 15 16  1  0  0  0
 15 17  1  0  0  0
 17 18  1  0  0  0
 30 22  1  0  0  0
 17 12  1  0  0  0
 30 26  2  0  0  0
 45 40  1  0  0  0
 58 49  1  0  0  0
 58 52  1  0  0  0
 21 31  1  0  0  0
 21 32  1  0  0  0
  7  9  1  0  0  0
  2  4  1  0  0  0
 35 37  1  0  0  0
 44 47  1  0  0  0
 46 48  1  0  0  0
 54 59  1  0  0  0
 54 60  1  0  0  0
 16 19  1  0  0  0
 18 20  1  0  0  0
M  END
> <minimizedAffinity>
-6.40725

> <CNNscore>
0.1967676133

> <CNNaffinity>
5.4788799286

> <CNN_VS>
1.0780661106

> <CNNaffinity_variance>
0.7527967691

$$$$
[H]O[C@]1([H])[C@@]([H])(C([H])([H])OP(=O)(O[H])OP(=O)(O[H])OP(=O)(O[H])OC([H])([H])[C@@]2([H])O[C@@]([H])(n3c([H])nc4c(N([H])[H])nc([H])nc43)[C@]([H])(O[H])[C@@]2([H])O[H])O[C@@]([H])(n2c([H])nc3c(N([H])[H])nc([H])nc32)[C@]1([H])O[H]


 60 65  0  0  0  0  0  0  0  0999 V2000
  152.8460  135.9124  184.2121 P   0  0  0  0  0  0  0  0  0  0  0  0
  151.7666  135.2767  183.0752 O   0  0  0  0  0  0  0  0  0  0  0  0
  154.2674  135.7956  183.6522 O   0  0  0  0  0  0  0  0  0  0  0  0
  152.0419  135.6185  182.1953 H   0  0  0  0  0  0  0  0  0  0  0  0
  152.4269  137.5388  184.4350 O   0  0  0  0  0  0  0  0  0  0  0  0
  153.6405  138.2395  185.3829 P   0  0  0  0  0  0  0  0  0  0  0  0
  154.6999  137.0247  185.9224 O   0  0  0  0  0  0  0  0  0  0  0  0
  153.0074  138.8456  186.6107 O   0  0  0  0  0  0  0  0  0  0  0  0
  154.5369  136.7919  186.8819 H   0  0  0  0  0  0  0  0  0  0  0  0
  154.4336  139.3801  184.4448 O   0  0  0  0  0  0  0  0  0  0  0  0
  155.8154  139.2457  184.5021 C   0  0  0  0  0  0  0  0  0  0  0  0
  157.5197  141.4753  182.3684 C   0  0  0  0  0  0  0  0  0  0  0  0
  156.7380  141.1778  183.5058 O   0  0  0  0  0  0  0  0  0  0  0  0
  156.5090  139.8170  183.3135 C   0  0  0  0  0  0  0  0  0  0  0  0
  157.9385  139.3026  183.1677 C   0  0  0  0  0  0  0  0  0  0  0  0
  158.5471  139.3521  184.3980 O   0  0  0  0  0  0  0  0  0  0  0  0
  158.5373  140.3745  182.2570 C   0  0  0  0  0  0  0  0  0  0  0  0
  158.4733  139.8628  180.9610 O   0  0  0  0  0  0  0  0  0  0  0  0
  159.5335  139.4992  184.2552 H   0  0  0  0  0  0  0  0  0  0  0  0
  157.5015  139.6429  180.8112 H   0  0  0  0  0  0  0  0  0  0  0  0
  160.7027  146.4258  183.5657 N   0  0  0  0  0  0  0  0  0  0  0  0
  160.4139  145.0607  183.8056 C   0  0  0  0  0  0  0  0  0  0  0  0
  161.0531  144.3036  184.7126 N   0  0  0  0  0  0  0  0  0  0  0  0
  160.7759  143.0075  184.9377 C   0  0  0  0  0  0  0  0  0  0  0  0
  159.8068  142.4226  184.2223 N   0  0  0  0  0  0  0  0  0  0  0  0
  159.1063  143.1129  183.2815 C   0  0  0  0  0  0  0  0  0  0  0  0
  158.1087  142.7750  182.4444 N   0  0  0  0  0  0  0  0  0  0  0  0
  157.8009  143.8597  181.7334 C   0  0  0  0  0  0  0  0  0  0  0  0
  158.5990  144.8702  182.1213 N   0  0  0  0  0  0  0  0  0  0  0  0
  159.4148  144.4313  183.0780 C   0  0  0  0  0  0  0  0  0  0  0  0
  161.3421  146.6713  182.7901 H   0  0  0  0  0  0  0  0  0  0  0  0
  160.2901  147.1647  184.1454 H   0  0  0  0  0  0  0  0  0  0  0  0
  152.7491  135.1488  185.6945 O   0  0  0  0  0  0  0  0  0  0  0  0
  151.1993  135.0361  186.3057 P   0  0  0  0  0  0  0  0  0  0  0  0
  150.2633  136.4081  186.0063 O   0  0  0  0  0  0  0  0  0  0  0  0
  150.5111  133.8766  185.5822 O   0  0  0  0  0  0  0  0  0  0  0  0
  150.8308  137.2159  185.9549 H   0  0  0  0  0  0  0  0  0  0  0  0
  151.2428  134.6435  187.9340 O   0  0  0  0  0  0  0  0  0  0  0  0
  151.1648  135.7811  188.7538 C   0  0  0  0  0  0  0  0  0  0  0  0
  152.5732  136.1785  189.0991 C   0  0  0  0  0  0  0  0  0  0  0  0
  152.6817  137.1339  190.0696 O   0  0  0  0  0  0  0  0  0  0  0  0
  153.2992  136.5731  191.1948 C   0  0  0  0  0  0  0  0  0  0  0  0
  154.2158  135.5820  190.6333 C   0  0  0  0  0  0  0  0  0  0  0  0
  155.2607  136.3015  189.9919 O   0  0  0  0  0  0  0  0  0  0  0  0
  153.4129  134.9852  189.5012 C   0  0  0  0  0  0  0  0  0  0  0  0
  154.2834  134.6300  188.4631 O   0  0  0  0  0  0  0  0  0  0  0  0
  154.8565  136.9972  189.4320 H   0  0  0  0  0  0  0  0  0  0  0  0
  153.8893  133.9490  187.8640 H   0  0  0  0  0  0  0  0  0  0  0  0
  152.2742  136.1623  192.0740 N   0  0  0  0  0  0  0  0  0  0  0  0
  151.1717  136.9395  192.2952 C   0  0  0  0  0  0  0  0  0  0  0  0
  150.3864  136.2918  193.1664 N   0  0  0  0  0  0  0  0  0  0  0  0
  150.9657  135.1068  193.5118 C   0  0  0  0  0  0  0  0  0  0  0  0
  150.6046  134.0813  194.3450 C   0  0  0  0  0  0  0  0  0  0  0  0
  149.3799  134.1720  195.0504 N   0  0  0  0  0  0  0  0  0  0  0  0
  151.4505  133.0387  194.4406 N   0  0  0  0  0  0  0  0  0  0  0  0
  152.6114  133.0075  193.7397 C   0  0  0  0  0  0  0  0  0  0  0  0
  152.9664  134.0099  192.9241 N   0  0  0  0  0  0  0  0  0  0  0  0
  152.1540  135.0646  192.8007 C   0  0  0  0  0  0  0  0  0  0  0  0
  148.5862  134.7162  194.6676 H   0  0  0  0  0  0  0  0  0  0  0  0
  149.2748  133.6894  195.9604 H   0  0  0  0  0  0  0  0  0  0  0  0
 21 22  1  0  0  0
 22 23  2  0  0  0
 23 24  1  0  0  0
 24 25  2  0  0  0
 25 26  1  0  0  0
 26 27  1  0  0  0
 27 28  1  0  0  0
 28 29  2  0  0  0
 29 30  1  0  0  0
 27 12  1  0  0  0
 12 13  1  0  0  0
 13 14  1  0  0  0
 14 11  1  0  0  0
 11 10  1  0  0  0
 10  6  1  0  0  0
  6  7  1  0  0  0
  6  8  2  0  0  0
  6  5  1  0  0  0
  5  1  1  0  0  0
  1  2  1  0  0  0
  1  3  2  0  0  0
  1 33  1  0  0  0
 33 34  1  0  0  0
 34 35  1  0  0  0
 34 36  2  0  0  0
 34 38  1  0  0  0
 38 39  1  0  0  0
 39 40  1  0  0  0
 40 41  1  0  0  0
 41 42  1  0  0  0
 42 43  1  0  0  0
 43 44  1  0  0  0
 43 45  1  0  0  0
 45 46  1  0  0  0
 42 49  1  0  0  0
 49 50  1  0  0  0
 50 51  2  0  0  0
 51 52  1  0  0  0
 52 53  2  0  0  0
 53 54  1  0  0  0
 53 55  1  0  0  0
 55 56  2  0  0  0
 56 57  1  0  0  0
 57 58  2  0  0  0
 14 15  1  0  0  0
 15 16  1  0  0  0
 15 17  1  0  0  0
 17 18  1  0  0  0
 30 22  1  0  0  0
 17 12  1  0  0  0
 30 26  2  0  0  0
 45 40  1  0  0  0
 58 49  1  0  0  0
 58 52  1  0  0  0
 21 31  1  0  0  0
 21 32  1  0  0  0
  7  9  1  0  0  0
  2  4  1  0  0  0
 35 37  1  0  0  0
 44 47  1  0  0  0
 46 48  1  0  0  0
 54 59  1  0  0  0
 54 60  1  0  0  0
 16 19  1  0  0  0
 18 20  1  0  0  0
M  END
> <minimizedAffinity>
-7.06668

> <CNNscore>
0.1926945597

> <CNNaffinity>
5.1657085419

> <CNN_VS>
0.9954039454

> <CNNaffinity_variance>
0.6903449297

$$$$
[H]O[C@]([H])(C([H])([H])[H])[C@@]([H])(C(=O)N1C([H])([H])C([H])([H])C([H])([H])[C@@]1([H])C(=O)N([H])[C@]([H])(C(=O)N1C([H])([H])C([H])([H])C([H])([H])C1([H])[H])C([H])([H])[H])N([H])[H]


 28 29  0  0  0  0  0  0  0  0999 V2000
  153.3775  135.6272  191.2487 C   0  0  0  0  0  0  0  0  0  0  0  0
  153.7827  134.6685  192.0193 O   0  0  0  0  0  0  0  0  0  0  0  0
  154.3173  136.5664  190.8271 N   0  0  0  0  0  0  0  0  0  0  0  0
  155.7364  136.4752  191.1821 C   0  0  0  0  0  0  0  0  0  0  0  0
  156.2270  137.8837  191.1094 C   0  0  0  0  0  0  0  0  0  0  0  0
  155.0588  138.7466  190.7673 C   0  0  0  0  0  0  0  0  0  0  0  0
  154.1546  137.7361  190.0417 C   0  0  0  0  0  0  0  0  0  0  0  0
  151.9512  135.5620  190.9378 C   0  0  0  0  0  0  0  0  0  0  0  0
  151.4674  134.4026  190.2764 N   0  0  0  0  0  0  0  0  0  0  0  0
  150.7449  133.8877  190.8136 H   0  0  0  0  0  0  0  0  0  0  0  0
  151.1033  134.6125  189.2987 H   0  0  0  0  0  0  0  0  0  0  0  0
  151.3171  137.1287  192.7597 C   0  0  0  0  0  0  0  0  0  0  0  0
  151.1485  135.7201  192.2389 C   0  0  0  0  0  0  0  0  0  0  0  0
  149.8156  135.4176  192.0817 O   0  0  0  0  0  0  0  0  0  0  0  0
  149.5436  134.8567  192.8571 H   0  0  0  0  0  0  0  0  0  0  0  0
  154.6417  137.5078  188.6615 C   0  0  0  0  0  0  0  0  0  0  0  0
  155.3922  138.3618  188.1470 O   0  0  0  0  0  0  0  0  0  0  0  0
  154.2988  136.3669  187.8932 N   0  0  0  0  0  0  0  0  0  0  0  0
  153.6710  135.6647  188.3394 H   0  0  0  0  0  0  0  0  0  0  0  0
  154.7752  136.1534  186.5571 C   0  0  0  0  0  0  0  0  0  0  0  0
  155.0633  134.7026  186.2617 C   0  0  0  0  0  0  0  0  0  0  0  0
  153.6893  136.5754  185.6126 C   0  0  0  0  0  0  0  0  0  0  0  0
  152.5755  135.9927  185.5900 O   0  0  0  0  0  0  0  0  0  0  0  0
  153.8885  137.6540  184.7092 N   0  0  0  0  0  0  0  0  0  0  0  0
  155.1120  138.4348  184.6086 C   0  0  0  0  0  0  0  0  0  0  0  0
  154.5521  139.8172  184.2524 C   0  0  0  0  0  0  0  0  0  0  0  0
  153.5426  139.4280  183.1818 C   0  0  0  0  0  0  0  0  0  0  0  0
  152.9575  138.1760  183.7441 C   0  0  0  0  0  0  0  0  0  0  0  0
 12 13  1  0  0  0
 13 14  1  0  0  0
 13  8  1  0  0  0
  8  9  1  0  0  0
  8  1  1  0  0  0
  1  2  2  0  0  0
  1  3  1  0  0  0
  3  4  1  0  0  0
  4  5  1  0  0  0
  5  6  1  0  0  0
  6  7  1  0  0  0
  7 16  1  0  0  0
 16 17  2  0  0  0
 16 18  1  0  0  0
 18 20  1  0  0  0
 20 21  1  0  0  0
 20 22  1  0  0  0
 22 23  2  0  0  0
 22 24  1  0  0  0
 24 25  1  0  0  0
 25 26  1  0  0  0
 26 27  1  0  0  0
 27 28  1  0  0  0
  7  3  1  0  0  0
 28 24  1  0  0  0
 14 15  1  0  0  0
  9 10  1  0  0  0
  9 11  1  0  0  0
 18 19  1  0  0  0
M  END
> <minimizedAffinity>
-5.17701

> <CNNscore>
0.4271315634

> <CNNaffinity>
4.6976671219

> <CNN_VS>
2.0065219402

> <CNNaffinity_variance>
0.1826039255

$$$$
[H]O[C@]([H])(C([H])([H])[H])[C@@]([H])(C(=O)N1C([H])([H])C([H])([H])C([H])([H])[C@@]1([H])C(=O)N([H])[C@]([H])(C(=O)N1C([H])([H])C([H])([H])C([H])([H])C1([H])[H])C([H])([H])[H])N([H])[H]


 28 29  0  0  0  0  0  0  0  0999 V2000
  159.5418  141.3762  183.8041 C   0  0  0  0  0  0  0  0  0  0  0  0
  159.9614  140.1564  183.9183 O   0  0  0  0  0  0  0  0  0  0  0  0
  158.7421  141.6908  182.7066 N   0  0  0  0  0  0  0  0  0  0  0  0
  158.3267  140.6883  181.7213 C   0  0  0  0  0  0  0  0  0  0  0  0
  158.0742  141.4750  180.4774 C   0  0  0  0  0  0  0  0  0  0  0  0
  158.4057  142.8992  180.7744 C   0  0  0  0  0  0  0  0  0  0  0  0
  158.1958  142.9340  182.2976 C   0  0  0  0  0  0  0  0  0  0  0  0
  159.9923  142.2512  184.8842 C   0  0  0  0  0  0  0  0  0  0  0  0
  159.7452  141.8394  186.2203 N   0  0  0  0  0  0  0  0  0  0  0  0
  160.6066  141.7226  186.7861 H   0  0  0  0  0  0  0  0  0  0  0  0
  159.0693  142.4857  186.7282 H   0  0  0  0  0  0  0  0  0  0  0  0
  162.1048  142.7010  186.1136 C   0  0  0  0  0  0  0  0  0  0  0  0
  161.5058  142.4796  184.7440 C   0  0  0  0  0  0  0  0  0  0  0  0
  162.1422  141.4450  184.0979 O   0  0  0  0  0  0  0  0  0  0  0  0
  162.7731  141.8464  183.4416 H   0  0  0  0  0  0  0  0  0  0  0  0
  156.7508  142.9975  182.6169 C   0  0  0  0  0  0  0  0  0  0  0  0
  156.1098  144.0116  182.2728 O   0  0  0  0  0  0  0  0  0  0  0  0
  156.0565  141.9638  183.2943 N   0  0  0  0  0  0  0  0  0  0  0  0
  156.6083  141.1250  183.5739 H   0  0  0  0  0  0  0  0  0  0  0  0
  154.6566  142.0332  183.5994 C   0  0  0  0  0  0  0  0  0  0  0  0
  153.8508  142.6959  182.5101 C   0  0  0  0  0  0  0  0  0  0  0  0
  154.1449  140.6282  183.7163 C   0  0  0  0  0  0  0  0  0  0  0  0
  154.2898  139.9623  184.7727 O   0  0  0  0  0  0  0  0  0  0  0  0
  153.4762  140.0039  182.6289 N   0  0  0  0  0  0  0  0  0  0  0  0
  153.2227  140.6327  181.3416 C   0  0  0  0  0  0  0  0  0  0  0  0
  151.8750  140.0049  180.9662 C   0  0  0  0  0  0  0  0  0  0  0  0
  152.1537  138.5491  181.3121 C   0  0  0  0  0  0  0  0  0  0  0  0
  152.9334  138.6723  182.5781 C   0  0  0  0  0  0  0  0  0  0  0  0
 12 13  1  0  0  0
 13 14  1  0  0  0
 13  8  1  0  0  0
  8  9  1  0  0  0
  8  1  1  0  0  0
  1  2  2  0  0  0
  1  3  1  0  0  0
  3  4  1  0  0  0
  4  5  1  0  0  0
  5  6  1  0  0  0
  6  7  1  0  0  0
  7 16  1  0  0  0
 16 17  2  0  0  0
 16 18  1  0  0  0
 18 20  1  0  0  0
 20 21  1  0  0  0
 20 22  1  0  0  0
 22 23  2  0  0  0
 22 24  1  0  0  0
 24 25  1  0  0  0
 25 26  1  0  0  0
 26 27  1  0  0  0
 27 28  1  0  0  0
  7  3  1  0  0  0
 28 24  1  0  0  0
 14 15  1  0  0  0
  9 10  1  0  0  0
  9 11  1  0  0  0
 18 19  1  0  0  0
M  END
> <minimizedAffinity>
-8.32791

> <CNNscore>
0.4227549136

> <CNNaffinity>
6.2160792351

> <CNN_VS>
2.6278779507

> <CNNaffinity_variance>
0.0541589744

$$$$
[H]O[C@]([H])(C([H])([H])[H])[C@@]([H])(C(=O)N1C([H])([H])C([H])([H])C([H])([H])[C@@]1([H])C(=O)N([H])[C@]([H])(C(=O)N1C([H])([H])C([H])([H])C([H])([H])C1([H])[H])C([H])([H])[H])N([H])[H]


 28 29  0  0  0  0  0  0  0  0999 V2000
  155.8473  136.1067  191.2030 C   0  0  0  0  0  0  0  0  0  0  0  0
  156.5850  137.0022  191.7782 O   0  0  0  0  0  0  0  0  0  0  0  0
  154.4640  136.2706  191.2536 N   0  0  0  0  0  0  0  0  0  0  0  0
  153.8308  137.4325  191.8839 C   0  0  0  0  0  0  0  0  0  0  0  0
  152.4759  136.9457  192.2802 C   0  0  0  0  0  0  0  0  0  0  0  0
  152.3948  135.5018  191.9126 C   0  0  0  0  0  0  0  0  0  0  0  0
  153.4242  135.4349  190.7720 C   0  0  0  0  0  0  0  0  0  0  0  0
  156.6157  135.0351  190.5732 C   0  0  0  0  0  0  0  0  0  0  0  0
  156.1399  133.7049  190.7137 N   0  0  0  0  0  0  0  0  0  0  0  0
  155.9228  133.2427  189.8109 H   0  0  0  0  0  0  0  0  0  0  0  0
  156.8019  133.0922  191.2783 H   0  0  0  0  0  0  0  0  0  0  0  0
  158.1444  135.0130  188.6139 C   0  0  0  0  0  0  0  0  0  0  0  0
  156.7375  135.3253  189.0688 C   0  0  0  0  0  0  0  0  0  0  0  0
  155.8191  134.6298  188.3167 O   0  0  0  0  0  0  0  0  0  0  0  0
  155.4375  135.2633  187.6512 H   0  0  0  0  0  0  0  0  0  0  0  0
  152.8476  135.9882  189.5248 C   0  0  0  0  0  0  0  0  0  0  0  0
  151.6380  135.7903  189.2902 O   0  0  0  0  0  0  0  0  0  0  0  0
  153.6002  136.7326  188.5819 N   0  0  0  0  0  0  0  0  0  0  0  0
  154.6086  136.8874  188.7948 H   0  0  0  0  0  0  0  0  0  0  0  0
  153.0337  137.2653  187.3765 C   0  0  0  0  0  0  0  0  0  0  0  0
  153.0238  138.7733  187.3493 C   0  0  0  0  0  0  0  0  0  0  0  0
  153.8961  136.8219  186.2323 C   0  0  0  0  0  0  0  0  0  0  0  0
  155.1504  136.8213  186.3171 O   0  0  0  0  0  0  0  0  0  0  0  0
  153.3168  136.3860  185.0101 N   0  0  0  0  0  0  0  0  0  0  0  0
  151.8873  136.3215  184.7479 C   0  0  0  0  0  0  0  0  0  0  0  0
  151.8102  135.0959  183.8294 C   0  0  0  0  0  0  0  0  0  0  0  0
  152.9703  135.3937  182.8901 C   0  0  0  0  0  0  0  0  0  0  0  0
  153.9983  135.9366  183.8251 C   0  0  0  0  0  0  0  0  0  0  0  0
 12 13  1  0  0  0
 13 14  1  0  0  0
 13  8  1  0  0  0
  8  9  1  0  0  0
  8  1  1  0  0  0
  1  2  2  0  0  0
  1  3  1  0  0  0
  3  4  1  0  0  0
  4  5  1  0  0  0
  5  6  1  0  0  0
  6  7  1  0  0  0
  7 16  1  0  0  0
 16 17  2  0  0  0
 16 18  1  0  0  0
 18 20  1  0  0  0
 20 21  1  0  0  0
 20 22  1  0  0  0
 22 23  2  0  0  0
 22 24  1  0  0  0
 24 25  1  0  0  0
 25 26  1  0  0  0
 26 27  1  0  0  0
 27 28  1  0  0  0
  7  3  1  0  0  0
 28 24  1  0  0  0
 14 15  1  0  0  0
  9 10  1  0  0  0
  9 11  1  0  0  0
 18 19  1  0  0  0
M  END
> <minimizedAffinity>
-4.24901

> <CNNscore>
0.3743744493

> <CNNaffinity>
4.4483079910

> <CNN_VS>
1.6653329134

> <CNNaffinity_variance>
0.1233658418

$$$$
[H]O[C@]([H])(C([H])([H])[H])[C@@]([H])(C(=O)N1C([H])([H])C([H])([H])C([H])([H])[C@@]1([H])C(=O)N([H])[C@]([H])(C(=O)N1C([H])([H])C([H])([H])C([H])([H])C1([H])[H])C([H])([H])[H])N([H])[H]


 28 29  0  0  0  0  0  0  0  0999 V2000
  156.7132  136.0321  188.5817 C   0  0  0  0  0  0  0  0  0  0  0  0
  156.6256  136.2964  187.3170 O   0  0  0  0  0  0  0  0  0  0  0  0
  155.8537  136.7039  189.4494 N   0  0  0  0  0  0  0  0  0  0  0  0
  154.8362  137.6472  188.9769 C   0  0  0  0  0  0  0  0  0  0  0  0
  154.6094  138.5586  190.1379 C   0  0  0  0  0  0  0  0  0  0  0  0
  155.5452  138.1416  191.2228 C   0  0  0  0  0  0  0  0  0  0  0  0
  155.7636  136.6620  190.8642 C   0  0  0  0  0  0  0  0  0  0  0  0
  157.7350  135.0372  188.9000 C   0  0  0  0  0  0  0  0  0  0  0  0
  157.3130  133.8152  189.4867 N   0  0  0  0  0  0  0  0  0  0  0  0
  157.5517  132.9782  188.9226 H   0  0  0  0  0  0  0  0  0  0  0  0
  157.6765  133.6922  190.4793 H   0  0  0  0  0  0  0  0  0  0  0  0
  159.9736  134.5141  187.9560 C   0  0  0  0  0  0  0  0  0  0  0  0
  158.5110  134.6908  187.6193 C   0  0  0  0  0  0  0  0  0  0  0  0
  158.0206  133.5719  186.9864 O   0  0  0  0  0  0  0  0  0  0  0  0
  157.9738  133.7760  186.0138 H   0  0  0  0  0  0  0  0  0  0  0  0
  154.5979  135.8521  191.2875 C   0  0  0  0  0  0  0  0  0  0  0  0
  154.3921  134.7621  190.7157 O   0  0  0  0  0  0  0  0  0  0  0  0
  153.7020  136.2517  192.3108 N   0  0  0  0  0  0  0  0  0  0  0  0
  153.8898  137.1649  192.7767 H   0  0  0  0  0  0  0  0  0  0  0  0
  152.5755  135.4610  192.7149 C   0  0  0  0  0  0  0  0  0  0  0  0
  152.3209  135.5184  194.2005 C   0  0  0  0  0  0  0  0  0  0  0  0
  151.3573  136.0287  192.0493 C   0  0  0  0  0  0  0  0  0  0  0  0
  150.9527  137.1919  192.3020 O   0  0  0  0  0  0  0  0  0  0  0  0
  150.6193  135.2634  191.1064 N   0  0  0  0  0  0  0  0  0  0  0  0
  150.9520  133.9069  190.6989 C   0  0  0  0  0  0  0  0  0  0  0  0
  150.5062  133.9212  189.2318 C   0  0  0  0  0  0  0  0  0  0  0  0
  149.1522  134.6023  189.3715 C   0  0  0  0  0  0  0  0  0  0  0  0
  149.4359  135.6565  190.3885 C   0  0  0  0  0  0  0  0  0  0  0  0
 12 13  1  0  0  0
 13 14  1  0  0  0
 13  8  1  0  0  0
  8  9  1  0  0  0
  8  1  1  0  0  0
  1  2  2  0  0  0
  1  3  1  0  0  0
  3  4  1  0  0  0
  4  5  1  0  0  0
  5  6  1  0  0  0
  6  7  1  0  0  0
  7 16  1  0  0  0
 16 17  2  0  0  0
 16 18  1  0  0  0
 18 20  1  0  0  0
 20 21  1  0  0  0
 20 22  1  0  0  0
 22 23  2  0  0  0
 22 24  1  0  0  0
 24 25  1  0  0  0
 25 26  1  0  0  0
 26 27  1  0  0  0
 27 28  1  0  0  0
  7  3  1  0  0  0
 28 24  1  0  0  0
 14 15  1  0  0  0
  9 10  1  0  0  0
  9 11  1  0  0  0
 18 19  1  0  0  0
M  END
> <minimizedAffinity>
-5.19404

> <CNNscore>
0.3589257598

> <CNNaffinity>
4.4885940552

> <CNN_VS>
1.6110720634

> <CNNaffinity_variance>
0.1583849192

$$$$
[H]O[C@]([H])(C([H])([H])[H])[C@@]([H])(C(=O)N1C([H])([H])C([H])([H])C([H])([H])[C@@]1([H])C(=O)N([H])[C@]([H])(C(=O)N1C([H])([H])C([H])([H])C([H])([H])C1([H])[H])C([H])([H])[H])N([H])[H]


 28 29  0  0  0  0  0  0  0  0999 V2000
  154.3768  135.2275  191.4948 C   0  0  0  0  0  0  0  0  0  0  0  0
  155.1880  134.2347  191.6771 O   0  0  0  0  0  0  0  0  0  0  0  0
  154.8766  136.3732  190.8779 N   0  0  0  0  0  0  0  0  0  0  0  0
  156.2560  136.4682  190.3915 C   0  0  0  0  0  0  0  0  0  0  0  0
  156.5542  137.9314  190.4089 C   0  0  0  0  0  0  0  0  0  0  0  0
  155.3526  138.6258  190.9571 C   0  0  0  0  0  0  0  0  0  0  0  0
  154.2481  137.6151  190.6052 C   0  0  0  0  0  0  0  0  0  0  0  0
  153.0236  134.9720  191.9833 C   0  0  0  0  0  0  0  0  0  0  0  0
  152.5863  133.6232  192.0548 N   0  0  0  0  0  0  0  0  0  0  0  0
  152.3262  133.3199  193.0119 H   0  0  0  0  0  0  0  0  0  0  0  0
  151.7850  133.4179  191.3852 H   0  0  0  0  0  0  0  0  0  0  0  0
  151.8192  136.6599  193.3532 C   0  0  0  0  0  0  0  0  0  0  0  0
  152.8760  135.5802  193.3871 C   0  0  0  0  0  0  0  0  0  0  0  0
  152.5775  134.6395  194.3457 O   0  0  0  0  0  0  0  0  0  0  0  0
  153.1521  134.8265  195.1361 H   0  0  0  0  0  0  0  0  0  0  0  0
  153.8961  137.7159  189.1699 C   0  0  0  0  0  0  0  0  0  0  0  0
  153.8554  138.8478  188.6459 O   0  0  0  0  0  0  0  0  0  0  0  0
  153.6026  136.5910  188.3589 N   0  0  0  0  0  0  0  0  0  0  0  0
  153.6414  135.6541  188.8140 H   0  0  0  0  0  0  0  0  0  0  0  0
  153.2628  136.6975  186.9693 C   0  0  0  0  0  0  0  0  0  0  0  0
  154.4576  136.5516  186.0603 C   0  0  0  0  0  0  0  0  0  0  0  0
  152.3328  135.5682  186.6391 C   0  0  0  0  0  0  0  0  0  0  0  0
  152.7376  134.3792  186.5828 O   0  0  0  0  0  0  0  0  0  0  0  0
  150.9570  135.8102  186.3784 N   0  0  0  0  0  0  0  0  0  0  0  0
  150.3273  137.1214  186.4059 C   0  0  0  0  0  0  0  0  0  0  0  0
  148.9294  136.7672  186.9274 C   0  0  0  0  0  0  0  0  0  0  0  0
  148.6259  135.5477  186.0687 C   0  0  0  0  0  0  0  0  0  0  0  0
  149.9423  134.8459  186.0457 C   0  0  0  0  0  0  0  0  0  0  0  0
 12 13  1  0  0  0
 13 14  1  0  0  0
 13  8  1  0  0  0
  8  9  1  0  0  0
  8  1  1  0  0  0
  1  2  2  0  0  0
  1  3  1  0  0  0
  3  4  1  0  0  0
  4  5  1  0  0  0
  5  6  1  0  0  0
  6  7  1  0  0  0
  7 16  1  0  0  0
 16 17  2  0  0  0
 16 18  1  0  0  0
 18 20  1  0  0  0
 20 21  1  0  0  0
 20 22  1  0  0  0
 22 23  2  0  0  0
 22 24  1  0  0  0
 24 25  1  0  0  0
 25 26  1  0  0  0
 26 27  1  0  0  0
 27 28  1  0  0  0
  7  3  1  0  0  0
 28 24  1  0  0  0
 14 15  1  0  0  0
  9 10  1  0  0  0
  9 11  1  0  0  0
 18 19  1  0  0  0
M  END
> <minimizedAffinity>
-4.53911

> <CNNscore>
0.3585022688

> <CNNaffinity>
4.4220056534

> <CNN_VS>
1.5852990150

> <CNNaffinity_variance>
0.1605315357

$$$$
[H]O[C@]([H])(C([H])([H])[H])[C@@]([H])(C(=O)N1C([H])([H])C([H])([H])C([H])([H])[C@@]1([H])C(=O)N([H])[C@]([H])(C(=O)N1C([H])([H])C([H])([H])C([H])([H])C1([H])[H])C([H])([H])[H])N([H])[H]


 28 29  0  0  0  0  0  0  0  0999 V2000
  155.3865  136.4548  188.7614 C   0  0  0  0  0  0  0  0  0  0  0  0
  156.4650  135.9583  188.2446 O   0  0  0  0  0  0  0  0  0  0  0  0
  154.4141  136.9478  187.8928 N   0  0  0  0  0  0  0  0  0  0  0  0
  154.5506  136.8766  186.4352 C   0  0  0  0  0  0  0  0  0  0  0  0
  153.7052  137.9988  185.9294 C   0  0  0  0  0  0  0  0  0  0  0  0
  153.1530  138.7129  187.1176 C   0  0  0  0  0  0  0  0  0  0  0  0
  153.1803  137.5906  188.1687 C   0  0  0  0  0  0  0  0  0  0  0  0
  155.3674  136.4136  190.2220 C   0  0  0  0  0  0  0  0  0  0  0  0
  155.9042  135.2654  190.8616 N   0  0  0  0  0  0  0  0  0  0  0  0
  156.7008  135.4742  191.4921 H   0  0  0  0  0  0  0  0  0  0  0  0
  155.1662  134.7104  191.3906 H   0  0  0  0  0  0  0  0  0  0  0  0
  155.1235  138.7280  191.0937 C   0  0  0  0  0  0  0  0  0  0  0  0
  156.1187  137.6389  190.7663 C   0  0  0  0  0  0  0  0  0  0  0  0
  156.8930  137.3435  191.8645 O   0  0  0  0  0  0  0  0  0  0  0  0
  157.7733  137.7894  191.7374 H   0  0  0  0  0  0  0  0  0  0  0  0
  152.0491  136.6583  187.9560 C   0  0  0  0  0  0  0  0  0  0  0  0
  151.1053  137.0252  187.2265 O   0  0  0  0  0  0  0  0  0  0  0  0
  151.9827  135.3680  188.5393 N   0  0  0  0  0  0  0  0  0  0  0  0
  152.7798  135.0792  189.1455 H   0  0  0  0  0  0  0  0  0  0  0  0
  150.8834  134.4711  188.3278 C   0  0  0  0  0  0  0  0  0  0  0  0
  151.1473  133.4672  187.2335 C   0  0  0  0  0  0  0  0  0  0  0  0
  150.6853  133.6863  189.5904 C   0  0  0  0  0  0  0  0  0  0  0  0
  150.9573  132.4604  189.6512 O   0  0  0  0  0  0  0  0  0  0  0  0
  150.1812  134.3096  190.7637 N   0  0  0  0  0  0  0  0  0  0  0  0
  149.8214  135.7157  190.8651 C   0  0  0  0  0  0  0  0  0  0  0  0
  150.2021  136.0141  192.3203 C   0  0  0  0  0  0  0  0  0  0  0  0
  149.6055  134.7939  193.0073 C   0  0  0  0  0  0  0  0  0  0  0  0
  149.9313  133.7022  192.0440 C   0  0  0  0  0  0  0  0  0  0  0  0
 12 13  1  0  0  0
 13 14  1  0  0  0
 13  8  1  0  0  0
  8  9  1  0  0  0
  8  1  1  0  0  0
  1  2  2  0  0  0
  1  3  1  0  0  0
  3  4  1  0  0  0
  4  5  1  0  0  0
  5  6  1  0  0  0
  6  7  1  0  0  0
  7 16  1  0  0  0
 16 17  2  0  0  0
 16 18  1  0  0  0
 18 20  1  0  0  0
 20 21  1  0  0  0
 20 22  1  0  0  0
 22 23  2  0  0  0
 22 24  1  0  0  0
 24 25  1  0  0  0
 25 26  1  0  0  0
 26 27  1  0  0  0
 27 28  1  0  0  0
  7  3  1  0  0  0
 28 24  1  0  0  0
 14 15  1  0  0  0
  9 10  1  0  0  0
  9 11  1  0  0  0
 18 19  1  0  0  0
M  END
> <minimizedAffinity>
-4.53759

> <CNNscore>
0.3200089633

> <CNNaffinity>
4.4183320999

> <CNN_VS>
1.4139058590

> <CNNaffinity_variance>
0.0284332782

$$$$
[H]O[C@]([H])(C([H])([H])[H])[C@@]([H])(C(=O)N1C([H])([H])C([H])([H])C([H])([H])[C@@]1([H])C(=O)N([H])[C@]([H])(C(=O)N1C([H])([H])C([H])([H])C([H])([H])C1([H])[H])C([H])([H])[H])N([H])[H]


 28 29  0  0  0  0  0  0  0  0999 V2000
  156.3373  135.3698  188.2633 C   0  0  0  0  0  0  0  0  0  0  0  0
  156.0522  134.6941  187.1960 O   0  0  0  0  0  0  0  0  0  0  0  0
  155.3755  136.2518  188.7532 N   0  0  0  0  0  0  0  0  0  0  0  0
  154.0538  136.3981  188.1366 C   0  0  0  0  0  0  0  0  0  0  0  0
  153.6227  137.7784  188.5093 C   0  0  0  0  0  0  0  0  0  0  0  0
  154.7363  138.4005  189.2836 C   0  0  0  0  0  0  0  0  0  0  0  0
  155.4297  137.1498  189.8496 C   0  0  0  0  0  0  0  0  0  0  0  0
  157.6677  135.0843  188.7961 C   0  0  0  0  0  0  0  0  0  0  0  0
  157.7565  134.3082  189.9816 N   0  0  0  0  0  0  0  0  0  0  0  0
  158.2891  133.4261  189.8629 H   0  0  0  0  0  0  0  0  0  0  0  0
  158.1552  134.8584  190.8006 H   0  0  0  0  0  0  0  0  0  0  0  0
  159.9516  134.7479  187.8760 C   0  0  0  0  0  0  0  0  0  0  0  0
  158.4966  134.3726  187.7151 C   0  0  0  0  0  0  0  0  0  0  0  0
  158.3428  133.0056  187.7408 O   0  0  0  0  0  0  0  0  0  0  0  0
  158.2285  132.7007  186.8007 H   0  0  0  0  0  0  0  0  0  0  0  0
  154.6657  136.6134  190.9996 C   0  0  0  0  0  0  0  0  0  0  0  0
  155.0458  135.5443  191.5193 O   0  0  0  0  0  0  0  0  0  0  0  0
  153.5227  137.2529  191.5419 N   0  0  0  0  0  0  0  0  0  0  0  0
  153.2201  138.1444  191.0947 H   0  0  0  0  0  0  0  0  0  0  0  0
  152.7886  136.7267  192.6563 C   0  0  0  0  0  0  0  0  0  0  0  0
  152.0258  137.7874  193.4099 C   0  0  0  0  0  0  0  0  0  0  0  0
  151.7694  135.7665  192.1188 C   0  0  0  0  0  0  0  0  0  0  0  0
  151.0747  136.0437  191.1083 O   0  0  0  0  0  0  0  0  0  0  0  0
  151.5576  134.5061  192.7401 N   0  0  0  0  0  0  0  0  0  0  0  0
  152.2768  134.0289  193.9113 C   0  0  0  0  0  0  0  0  0  0  0  0
  152.3474  132.5246  193.6222 C   0  0  0  0  0  0  0  0  0  0  0  0
  150.9140  132.2713  193.1771 C   0  0  0  0  0  0  0  0  0  0  0  0
  150.6236  133.4817  192.3545 C   0  0  0  0  0  0  0  0  0  0  0  0
 12 13  1  0  0  0
 13 14  1  0  0  0
 13  8  1  0  0  0
  8  9  1  0  0  0
  8  1  1  0  0  0
  1  2  2  0  0  0
  1  3  1  0  0  0
  3  4  1  0  0  0
  4  5  1  0  0  0
  5  6  1  0  0  0
  6  7  1  0  0  0
  7 16  1  0  0  0
 16 17  2  0  0  0
 16 18  1  0  0  0
 18 20  1  0  0  0
 20 21  1  0  0  0
 20 22  1  0  0  0
 22 23  2  0  0  0
 22 24  1  0  0  0
 24 25  1  0  0  0
 25 26  1  0  0  0
 26 27  1  0  0  0
 27 28  1  0  0  0
  7  3  1  0  0  0
 28 24  1  0  0  0
 14 15  1  0  0  0
  9 10  1  0  0  0
  9 11  1  0  0  0
 18 19  1  0  0  0
M  END
> <minimizedAffinity>
-5.10581

> <CNNscore>
0.3183686733

> <CNNaffinity>
4.3809051514

> <CNN_VS>
1.3947429657

> <CNNaffinity_variance>
0.2187553346

$$$$
[H]O[C@]([H])(C([H])([H])[H])[C@@]([H])(C(=O)N1C([H])([H])C([H])([H])C([H])([H])[C@@]1([H])C(=O)N([H])[C@]([H])(C(=O)N1C([H])([H])C([H])([H])C([H])([H])C1([H])[H])C([H])([H])[H])N([H])[H]


 28 29  0  0  0  0  0  0  0  0999 V2000
  156.6956  134.6065  189.1761 C   0  0  0  0  0  0  0  0  0  0  0  0
  157.1712  134.5302  187.9740 O   0  0  0  0  0  0  0  0  0  0  0  0
  156.2381  135.8464  189.6190 N   0  0  0  0  0  0  0  0  0  0  0  0
  156.2321  137.0359  188.7626 C   0  0  0  0  0  0  0  0  0  0  0  0
  156.2948  138.1807  189.7193 C   0  0  0  0  0  0  0  0  0  0  0  0
  156.3897  137.6091  191.0944 C   0  0  0  0  0  0  0  0  0  0  0  0
  155.7288  136.2365  190.8839 C   0  0  0  0  0  0  0  0  0  0  0  0
  156.7180  133.3338  189.8938 C   0  0  0  0  0  0  0  0  0  0  0  0
  157.0944  133.3492  191.2627 N   0  0  0  0  0  0  0  0  0  0  0  0
  156.3592  132.9911  191.9007 H   0  0  0  0  0  0  0  0  0  0  0  0
  158.0059  132.8296  191.4411 H   0  0  0  0  0  0  0  0  0  0  0  0
  154.7096  132.6409  191.1830 C   0  0  0  0  0  0  0  0  0  0  0  0
  155.3274  132.6853  189.8046 C   0  0  0  0  0  0  0  0  0  0  0  0
  154.4948  133.3319  188.9205 O   0  0  0  0  0  0  0  0  0  0  0  0
  154.0358  132.6348  188.3789 H   0  0  0  0  0  0  0  0  0  0  0  0
  154.2552  136.3773  190.8305 C   0  0  0  0  0  0  0  0  0  0  0  0
  153.6841  137.0032  191.7468 O   0  0  0  0  0  0  0  0  0  0  0  0
  153.4582  135.8369  189.7902 N   0  0  0  0  0  0  0  0  0  0  0  0
  153.9527  135.3173  189.0340 H   0  0  0  0  0  0  0  0  0  0  0  0
  152.0314  135.9781  189.7459 C   0  0  0  0  0  0  0  0  0  0  0  0
  151.4920  136.0466  188.3391 C   0  0  0  0  0  0  0  0  0  0  0  0
  151.4322  134.7558  190.3755 C   0  0  0  0  0  0  0  0  0  0  0  0
  151.6290  133.6087  189.9001 O   0  0  0  0  0  0  0  0  0  0  0  0
  150.6187  134.8589  191.5361 N   0  0  0  0  0  0  0  0  0  0  0  0
  150.2957  136.1056  192.2128 C   0  0  0  0  0  0  0  0  0  0  0  0
  150.2279  135.6407  193.6725 C   0  0  0  0  0  0  0  0  0  0  0  0
  149.4079  134.3687  193.5092 C   0  0  0  0  0  0  0  0  0  0  0  0
  149.9711  133.7927  192.2534 C   0  0  0  0  0  0  0  0  0  0  0  0
 12 13  1  0  0  0
 13 14  1  0  0  0
 13  8  1  0  0  0
  8  9  1  0  0  0
  8  1  1  0  0  0
  1  2  2  0  0  0
  1  3  1  0  0  0
  3  4  1  0  0  0
  4  5  1  0  0  0
  5  6  1  0  0  0
  6  7  1  0  0  0
  7 16  1  0  0  0
 16 17  2  0  0  0
 16 18  1  0  0  0
 18 20  1  0  0  0
 20 21  1  0  0  0
 20 22  1  0  0  0
 22 23  2  0  0  0
 22 24  1  0  0  0
 24 25  1  0  0  0
 25 26  1  0  0  0
 26 27  1  0  0  0
 27 28  1  0  0  0
  7  3  1  0  0  0
 28 24  1  0  0  0
 14 15  1  0  0  0
  9 10  1  0  0  0
  9 11  1  0  0  0
 18 19  1  0  0  0
M  END
> <minimizedAffinity>
-4.35003

> <CNNscore>
0.3121252358

> <CNNaffinity>
4.3320150375

> <CNN_VS>
1.3521312475

> <CNNaffinity_variance>
0.0461820103

$$$$
[H]O[C@]([H])(C([H])([H])[H])[C@@]([H])(C(=O)N1C([H])([H])C([H])([H])C([H])([H])[C@@]1([H])C(=O)N([H])[C@]([H])(C(=O)N1C([H])([H])C([H])([H])C([H])([H])C1([H])[H])C([H])([H])[H])N([H])[H]


 28 29  0  0  0  0  0  0  0  0999 V2000
  153.5022  137.8955  184.2970 C   0  0  0  0  0  0  0  0  0  0  0  0
  153.6898  137.0483  183.3358 O   0  0  0  0  0  0  0  0  0  0  0  0
  153.2346  137.3906  185.5684 N   0  0  0  0  0  0  0  0  0  0  0  0
  153.2095  135.9536  185.8563 C   0  0  0  0  0  0  0  0  0  0  0  0
  152.3163  135.8306  187.0467 C   0  0  0  0  0  0  0  0  0  0  0  0
  151.8133  137.1974  187.3710 C   0  0  0  0  0  0  0  0  0  0  0  0
  152.9347  138.0671  186.7783 C   0  0  0  0  0  0  0  0  0  0  0  0
  153.6066  139.2902  183.8736 C   0  0  0  0  0  0  0  0  0  0  0  0
  154.8041  139.9894  184.1783 N   0  0  0  0  0  0  0  0  0  0  0  0
  155.3055  140.3409  183.3412 H   0  0  0  0  0  0  0  0  0  0  0  0
  154.6467  140.7894  184.8623 H   0  0  0  0  0  0  0  0  0  0  0  0
  151.9284  139.5306  182.0565 C   0  0  0  0  0  0  0  0  0  0  0  0
  153.4014  139.3672  182.3524 C   0  0  0  0  0  0  0  0  0  0  0  0
  154.1284  140.3786  181.7680 O   0  0  0  0  0  0  0  0  0  0  0  0
  154.5460  140.0082  180.9445 H   0  0  0  0  0  0  0  0  0  0  0  0
  154.1120  138.0721  187.6771 C   0  0  0  0  0  0  0  0  0  0  0  0
  155.2465  138.1890  187.1703 O   0  0  0  0  0  0  0  0  0  0  0  0
  154.0168  137.9509  189.0863 N   0  0  0  0  0  0  0  0  0  0  0  0
  153.0614  137.8540  189.4913 H   0  0  0  0  0  0  0  0  0  0  0  0
  155.1624  137.9569  189.9497 C   0  0  0  0  0  0  0  0  0  0  0  0
  155.0221  138.9178  191.1038 C   0  0  0  0  0  0  0  0  0  0  0  0
  155.2914  136.5869  190.5462 C   0  0  0  0  0  0  0  0  0  0  0  0
  154.5409  136.2035  191.4791 O   0  0  0  0  0  0  0  0  0  0  0  0
  156.2724  135.6752  190.0710 N   0  0  0  0  0  0  0  0  0  0  0  0
  157.2147  135.9572  188.9989 C   0  0  0  0  0  0  0  0  0  0  0  0
  157.3497  134.5733  188.3525 C   0  0  0  0  0  0  0  0  0  0  0  0
  157.5051  133.7117  189.5975 C   0  0  0  0  0  0  0  0  0  0  0  0
  156.5270  134.3371  190.5347 C   0  0  0  0  0  0  0  0  0  0  0  0
 12 13  1  0  0  0
 13 14  1  0  0  0
 13  8  1  0  0  0
  8  9  1  0  0  0
  8  1  1  0  0  0
  1  2  2  0  0  0
  1  3  1  0  0  0
  3  4  1  0  0  0
  4  5  1  0  0  0
  5  6  1  0  0  0
  6  7  1  0  0  0
  7 16  1  0  0  0
 16 17  2  0  0  0
 16 18  1  0  0  0
 18 20  1  0  0  0
 20 21  1  0  0  0
 20 22  1  0  0  0
 22 23  2  0  0  0
 22 24  1  0  0  0
 24 25  1  0  0  0
 25 26  1  0  0  0
 26 27  1  0  0  0
 27 28  1  0  0  0
  7  3  1  0  0  0
 28 24  1  0  0  0
 14 15  1  0  0  0
  9 10  1  0  0  0
  9 11  1  0  0  0
 18 19  1  0  0  0
M  END
> <minimizedAffinity>
-4.95185

> <CNNscore>
0.2987003028

> <CNNaffinity>
4.8205161095

> <CNN_VS>
1.4398896694

> <CNNaffinity_variance>
0.0714402199

$$$$
