[H]c1nc(N2C([H])([H])C([H])([H])N(c3nc(C(=O)N([H])c4c([H])c([H])c(C(F)(F)F)c([H])c4[H])nc(N4C([H])([H])C([H])([H])N(C([H])([H])[H])C([H])([H])C4([H])[H])c3[H])C([H])([H])C2([H])[H])nc([H])c1C(F)(F)F


 43 47  0  0  0  0  0  0  0  0999 V2000
  154.4582  132.8319  182.1172 C   0  0  0  0  0  0  0  0  0  0  0  0
  153.6108  133.8938  182.0210 C   0  0  0  0  0  0  0  0  0  0  0  0
  153.3584  134.7662  183.0569 C   0  0  0  0  0  0  0  0  0  0  0  0
  154.0219  134.5142  184.2343 N   0  0  0  0  0  0  0  0  0  0  0  0
  154.8609  133.4852  184.3588 C   0  0  0  0  0  0  0  0  0  0  0  0
  155.0813  132.6402  183.3000 N   0  0  0  0  0  0  0  0  0  0  0  0
  156.8475  130.8292  178.6443 C   0  0  0  0  0  0  0  0  0  0  0  0
  155.5266  130.2743  178.9314 N   0  0  0  0  0  0  0  0  0  0  0  0
  154.5554  131.3098  178.7075 C   0  0  0  0  0  0  0  0  0  0  0  0
  153.8851  131.8775  179.9076 C   0  0  0  0  0  0  0  0  0  0  0  0
  154.7430  131.9226  181.0603 N   0  0  0  0  0  0  0  0  0  0  0  0
  155.8725  131.0370  181.1818 C   0  0  0  0  0  0  0  0  0  0  0  0
  155.5173  129.8187  180.3345 C   0  0  0  0  0  0  0  0  0  0  0  0
  152.5055  135.8902  182.9018 N   0  0  0  0  0  0  0  0  0  0  0  0
  153.0754  136.9672  182.0923 C   0  0  0  0  0  0  0  0  0  0  0  0
  152.3693  138.2675  182.4031 C   0  0  0  0  0  0  0  0  0  0  0  0
  150.9385  138.0772  182.4283 N   0  0  0  0  0  0  0  0  0  0  0  0
  150.2950  136.8682  182.8323 C   0  0  0  0  0  0  0  0  0  0  0  0
  151.2314  135.9223  183.5183 C   0  0  0  0  0  0  0  0  0  0  0  0
  150.1344  139.1849  181.9935 C   0  0  0  0  0  0  0  0  0  0  0  0
  150.7210  140.2253  181.3418 N   0  0  0  0  0  0  0  0  0  0  0  0
  150.0244  141.3055  180.9244 C   0  0  0  0  0  0  0  0  0  0  0  0
  148.6689  141.3979  181.1457 C   0  0  0  0  0  0  0  0  0  0  0  0
  148.0732  140.3298  181.8096 C   0  0  0  0  0  0  0  0  0  0  0  0
  148.8191  139.2698  182.2096 N   0  0  0  0  0  0  0  0  0  0  0  0
  147.9045  142.5863  180.6940 C   0  0  0  0  0  0  0  0  0  0  0  0
  147.6278  143.4444  181.7457 F   0  0  0  0  0  0  0  0  0  0  0  0
  148.5445  143.2133  179.6796 F   0  0  0  0  0  0  0  0  0  0  0  0
  146.6514  142.1849  180.1931 F   0  0  0  0  0  0  0  0  0  0  0  0
  155.5664  133.0783  185.5744 C   0  0  0  0  0  0  0  0  0  0  0  0
  156.8257  133.1986  185.5939 O   0  0  0  0  0  0  0  0  0  0  0  0
  154.8328  132.5728  186.6602 N   0  0  0  0  0  0  0  0  0  0  0  0
  153.8239  132.4798  186.6363 H   0  0  0  0  0  0  0  0  0  0  0  0
  155.4979  132.1413  187.8554 C   0  0  0  0  0  0  0  0  0  0  0  0
  156.8041  132.5387  188.1417 C   0  0  0  0  0  0  0  0  0  0  0  0
  157.4705  132.1596  189.2872 C   0  0  0  0  0  0  0  0  0  0  0  0
  156.8380  131.3394  190.2216 C   0  0  0  0  0  0  0  0  0  0  0  0
  155.5486  130.9442  189.9355 C   0  0  0  0  0  0  0  0  0  0  0  0
  154.8866  131.3380  188.7679 C   0  0  0  0  0  0  0  0  0  0  0  0
  157.5622  130.9334  191.4511 C   0  0  0  0  0  0  0  0  0  0  0  0
  157.0392  129.8219  192.0419 F   0  0  0  0  0  0  0  0  0  0  0  0
  158.8863  130.8106  191.1048 F   0  0  0  0  0  0  0  0  0  0  0  0
  157.4955  131.9736  192.4008 F   0  0  0  0  0  0  0  0  0  0  0  0
  7  8  1  0  0  0
  8  9  1  0  0  0
  9 10  1  0  0  0
 10 11  1  0  0  0
 11 12  1  0  0  0
 12 13  1  0  0  0
 11  1  1  0  0  0
  1  2  2  0  0  0
  2  3  1  0  0  0
  3  4  2  0  0  0
  4  5  1  0  0  0
  5  6  2  0  0  0
  5 30  1  0  0  0
 30 31  2  0  0  0
 30 32  1  0  0  0
 32 34  1  0  0  0
 34 35  2  0  0  0
 35 36  1  0  0  0
 36 37  2  0  0  0
 37 38  1  0  0  0
 38 39  2  0  0  0
 37 40  1  0  0  0
 40 41  1  0  0  0
 40 42  1  0  0  0
 40 43  1  0  0  0
  3 14  1  0  0  0
 14 15  1  0  0  0
 15 16  1  0  0  0
 16 17  1  0  0  0
 17 18  1  0  0  0
 18 19  1  0  0  0
 17 20  1  0  0  0
 20 21  2  0  0  0
 21 22  1  0  0  0
 22 23  2  0  0  0
 23 24  1  0  0  0
 24 25  2  0  0  0
 23 26  1  0  0  0
 26 27  1  0  0  0
 26 28  1  0  0  0
 26 29  1  0  0  0
 13  8  1  0  0  0
  6  1  1  0  0  0
 39 34  1  0  0  0
 19 14  1  0  0  0
 25 20  1  0  0  0
 32 33  1  0  0  0
M  END
> <minimizedAffinity>
5.49002

> <CNNscore>
0.4704756737

> <CNNaffinity>
6.2155456543

> <CNN_VS>
2.9242630005

> <CNNaffinity_variance>
1.3960038424

$$$$
[H]c1nc(N2C([H])([H])C([H])([H])N(c3nc(C(=O)N([H])c4c([H])c([H])c(C(F)(F)F)c([H])c4[H])nc(N4C([H])([H])C([H])([H])N(C([H])([H])[H])C([H])([H])C4([H])[H])c3[H])C([H])([H])C2([H])[H])nc([H])c1C(F)(F)F


 43 47  0  0  0  0  0  0  0  0999 V2000
  153.3900  136.9269  186.6112 C   0  0  0  0  0  0  0  0  0  0  0  0
  154.5439  137.6334  186.4540 C   0  0  0  0  0  0  0  0  0  0  0  0
  154.8521  138.3506  185.3190 C   0  0  0  0  0  0  0  0  0  0  0  0
  153.9133  138.3258  184.3150 N   0  0  0  0  0  0  0  0  0  0  0  0
  152.7723  137.6471  184.4401 C   0  0  0  0  0  0  0  0  0  0  0  0
  152.5073  136.9448  185.5891 N   0  0  0  0  0  0  0  0  0  0  0  0
  151.3526  135.9781  190.7012 C   0  0  0  0  0  0  0  0  0  0  0  0
  152.2331  134.9468  190.1569 N   0  0  0  0  0  0  0  0  0  0  0  0
  153.5552  135.5023  190.0601 C   0  0  0  0  0  0  0  0  0  0  0  0
  154.0729  135.7784  188.6935 C   0  0  0  0  0  0  0  0  0  0  0  0
  153.0441  136.1864  187.7760 N   0  0  0  0  0  0  0  0  0  0  0  0
  151.6662  135.8297  187.9971 C   0  0  0  0  0  0  0  0  0  0  0  0
  151.7135  134.5541  188.8332 C   0  0  0  0  0  0  0  0  0  0  0  0
  156.0441  139.1143  185.2132 N   0  0  0  0  0  0  0  0  0  0  0  0
  156.6634  139.4385  186.4983 C   0  0  0  0  0  0  0  0  0  0  0  0
  157.5737  140.6352  186.3384 C   0  0  0  0  0  0  0  0  0  0  0  0
  158.4025  140.4920  185.1651 N   0  0  0  0  0  0  0  0  0  0  0  0
  158.0031  139.8079  183.9770 C   0  0  0  0  0  0  0  0  0  0  0  0
  156.5341  139.5193  183.9482 C   0  0  0  0  0  0  0  0  0  0  0  0
  159.7172  141.0661  185.2321 C   0  0  0  0  0  0  0  0  0  0  0  0
  160.1281  141.6704  186.3798 N   0  0  0  0  0  0  0  0  0  0  0  0
  161.3445  142.2465  186.5012 C   0  0  0  0  0  0  0  0  0  0  0  0
  162.2327  142.2446  185.4495 C   0  0  0  0  0  0  0  0  0  0  0  0
  161.8090  141.6223  184.2792 C   0  0  0  0  0  0  0  0  0  0  0  0
  160.5761  141.0609  184.2093 N   0  0  0  0  0  0  0  0  0  0  0  0
  163.5656  142.8828  185.5794 C   0  0  0  0  0  0  0  0  0  0  0  0
  164.0896  143.2248  184.3435 F   0  0  0  0  0  0  0  0  0  0  0  0
  163.5125  143.9413  186.4211 F   0  0  0  0  0  0  0  0  0  0  0  0
  164.4792  141.9687  186.1383 F   0  0  0  0  0  0  0  0  0  0  0  0
  151.7351  137.4909  183.4199 C   0  0  0  0  0  0  0  0  0  0  0  0
  150.9552  136.4996  183.5184 O   0  0  0  0  0  0  0  0  0  0  0  0
  151.6444  138.4307  182.3800 N   0  0  0  0  0  0  0  0  0  0  0  0
  152.2733  139.2222  182.3086 H   0  0  0  0  0  0  0  0  0  0  0  0
  150.6554  138.2904  181.3509 C   0  0  0  0  0  0  0  0  0  0  0  0
  151.0032  138.3340  180.0006 C   0  0  0  0  0  0  0  0  0  0  0  0
  150.0849  138.1859  178.9834 C   0  0  0  0  0  0  0  0  0  0  0  0
  148.7381  137.9842  179.2851 C   0  0  0  0  0  0  0  0  0  0  0  0
  148.3952  137.9453  180.6198 C   0  0  0  0  0  0  0  0  0  0  0  0
  149.3398  138.0974  181.6400 C   0  0  0  0  0  0  0  0  0  0  0  0
  147.7550  137.8279  178.1850 C   0  0  0  0  0  0  0  0  0  0  0  0
  148.2513  137.1500  177.1116 F   0  0  0  0  0  0  0  0  0  0  0  0
  146.6348  137.2551  178.7375 F   0  0  0  0  0  0  0  0  0  0  0  0
  147.3622  139.1004  177.7216 F   0  0  0  0  0  0  0  0  0  0  0  0
  7  8  1  0  0  0
  8  9  1  0  0  0
  9 10  1  0  0  0
 10 11  1  0  0  0
 11 12  1  0  0  0
 12 13  1  0  0  0
 11  1  1  0  0  0
  1  2  2  0  0  0
  2  3  1  0  0  0
  3  4  2  0  0  0
  4  5  1  0  0  0
  5  6  2  0  0  0
  5 30  1  0  0  0
 30 31  2  0  0  0
 30 32  1  0  0  0
 32 34  1  0  0  0
 34 35  2  0  0  0
 35 36  1  0  0  0
 36 37  2  0  0  0
 37 38  1  0  0  0
 38 39  2  0  0  0
 37 40  1  0  0  0
 40 41  1  0  0  0
 40 42  1  0  0  0
 40 43  1  0  0  0
  3 14  1  0  0  0
 14 15  1  0  0  0
 15 16  1  0  0  0
 16 17  1  0  0  0
 17 18  1  0  0  0
 18 19  1  0  0  0
 17 20  1  0  0  0
 20 21  2  0  0  0
 21 22  1  0  0  0
 22 23  2  0  0  0
 23 24  1  0  0  0
 24 25  2  0  0  0
 23 26  1  0  0  0
 26 27  1  0  0  0
 26 28  1  0  0  0
 26 29  1  0  0  0
 13  8  1  0  0  0
  6  1  1  0  0  0
 39 34  1  0  0  0
 19 14  1  0  0  0
 25 20  1  0  0  0
 32 33  1  0  0  0
M  END
> <minimizedAffinity>
2.16707

> <CNNscore>
0.2975403368

> <CNNaffinity>
6.5033464432

> <CNN_VS>
1.9350079298

> <CNNaffinity_variance>
1.0577863455

$$$$
[H]c1nc(N2C([H])([H])C([H])([H])N(c3nc(C(=O)N([H])c4c([H])c([H])c(C(F)(F)F)c([H])c4[H])nc(N4C([H])([H])C([H])([H])N(C([H])([H])[H])C([H])([H])C4([H])[H])c3[H])C([H])([H])C2([H])[H])nc([H])c1C(F)(F)F


 43 47  0  0  0  0  0  0  0  0999 V2000
  157.6779  142.2658  181.6214 C   0  0  0  0  0  0  0  0  0  0  0  0
  156.4737  141.6295  181.6142 C   0  0  0  0  0  0  0  0  0  0  0  0
  155.9714  140.9323  182.6910 C   0  0  0  0  0  0  0  0  0  0  0  0
  156.7621  140.9051  183.8153 N   0  0  0  0  0  0  0  0  0  0  0  0
  157.9440  141.5215  183.8551 C   0  0  0  0  0  0  0  0  0  0  0  0
  158.4058  142.2037  182.7574 N   0  0  0  0  0  0  0  0  0  0  0  0
  160.7331  143.5273  178.3268 C   0  0  0  0  0  0  0  0  0  0  0  0
  159.4980  144.3045  178.4024 N   0  0  0  0  0  0  0  0  0  0  0  0
  159.4498  144.9307  179.6952 C   0  0  0  0  0  0  0  0  0  0  0  0
  158.4421  144.4130  180.6588 C   0  0  0  0  0  0  0  0  0  0  0  0
  158.2145  142.9997  180.5268 N   0  0  0  0  0  0  0  0  0  0  0  0
  158.4895  142.3144  179.2900 C   0  0  0  0  0  0  0  0  0  0  0  0
  158.3642  143.3813  178.2063 C   0  0  0  0  0  0  0  0  0  0  0  0
  154.6894  140.3236  182.6602 N   0  0  0  0  0  0  0  0  0  0  0  0
  153.8537  140.7441  181.5356 C   0  0  0  0  0  0  0  0  0  0  0  0
  152.3994  140.4794  181.8536 C   0  0  0  0  0  0  0  0  0  0  0  0
  152.2315  139.1578  182.4096 N   0  0  0  0  0  0  0  0  0  0  0  0
  153.2098  138.4911  183.2081 C   0  0  0  0  0  0  0  0  0  0  0  0
  154.2970  139.4115  183.6695 C   0  0  0  0  0  0  0  0  0  0  0  0
  151.0000  138.4841  182.1066 C   0  0  0  0  0  0  0  0  0  0  0  0
  150.6752  137.3454  182.7767 N   0  0  0  0  0  0  0  0  0  0  0  0
  149.5417  136.6538  182.5255 C   0  0  0  0  0  0  0  0  0  0  0  0
  148.6542  137.0817  181.5641 C   0  0  0  0  0  0  0  0  0  0  0  0
  148.9893  138.2486  180.8840 C   0  0  0  0  0  0  0  0  0  0  0  0
  150.1413  138.9036  181.1736 N   0  0  0  0  0  0  0  0  0  0  0  0
  147.4130  136.3195  181.2827 C   0  0  0  0  0  0  0  0  0  0  0  0
  146.6250  136.9588  180.3396 F   0  0  0  0  0  0  0  0  0  0  0  0
  147.7005  135.0456  180.9274 F   0  0  0  0  0  0  0  0  0  0  0  0
  146.6248  136.2452  182.4471 F   0  0  0  0  0  0  0  0  0  0  0  0
  158.8986  141.5045  184.9638 C   0  0  0  0  0  0  0  0  0  0  0  0
  158.6160  140.7985  185.9749 O   0  0  0  0  0  0  0  0  0  0  0  0
  160.0766  142.2639  184.8704 N   0  0  0  0  0  0  0  0  0  0  0  0
  160.2953  142.8268  184.0567 H   0  0  0  0  0  0  0  0  0  0  0  0
  161.0191  142.2884  185.9512 C   0  0  0  0  0  0  0  0  0  0  0  0
  162.3919  142.2055  185.7176 C   0  0  0  0  0  0  0  0  0  0  0  0
  163.3292  142.2432  186.7276 C   0  0  0  0  0  0  0  0  0  0  0  0
  162.9181  142.3667  188.0548 C   0  0  0  0  0  0  0  0  0  0  0  0
  161.5610  142.4445  188.2845 C   0  0  0  0  0  0  0  0  0  0  0  0
  160.6229  142.4047  187.2477 C   0  0  0  0  0  0  0  0  0  0  0  0
  163.9324  142.4042  189.1368 C   0  0  0  0  0  0  0  0  0  0  0  0
  163.5155  143.0836  190.2424 F   0  0  0  0  0  0  0  0  0  0  0  0
  164.2908  141.1010  189.3848 F   0  0  0  0  0  0  0  0  0  0  0  0
  165.0941  143.0528  188.6696 F   0  0  0  0  0  0  0  0  0  0  0  0
  7  8  1  0  0  0
  8  9  1  0  0  0
  9 10  1  0  0  0
 10 11  1  0  0  0
 11 12  1  0  0  0
 12 13  1  0  0  0
 11  1  1  0  0  0
  1  2  2  0  0  0
  2  3  1  0  0  0
  3  4  2  0  0  0
  4  5  1  0  0  0
  5  6  2  0  0  0
  5 30  1  0  0  0
 30 31  2  0  0  0
 30 32  1  0  0  0
 32 34  1  0  0  0
 34 35  2  0  0  0
 35 36  1  0  0  0
 36 37  2  0  0  0
 37 38  1  0  0  0
 38 39  2  0  0  0
 37 40  1  0  0  0
 40 41  1  0  0  0
 40 42  1  0  0  0
 40 43  1  0  0  0
  3 14  1  0  0  0
 14 15  1  0  0  0
 15 16  1  0  0  0
 16 17  1  0  0  0
 17 18  1  0  0  0
 18 19  1  0  0  0
 17 20  1  0  0  0
 20 21  2  0  0  0
 21 22  1  0  0  0
 22 23  2  0  0  0
 23 24  1  0  0  0
 24 25  2  0  0  0
 23 26  1  0  0  0
 26 27  1  0  0  0
 26 28  1  0  0  0
 26 29  1  0  0  0
 13  8  1  0  0  0
  6  1  1  0  0  0
 39 34  1  0  0  0
 19 14  1  0  0  0
 25 20  1  0  0  0
 32 33  1  0  0  0
M  END
> <minimizedAffinity>
5.54881

> <CNNscore>
0.2486772686

> <CNNaffinity>
6.9993185997

> <CNN_VS>
1.7405713797

> <CNNaffinity_variance>
1.1351532936

$$$$
[H]c1nc(N2C([H])([H])C([H])([H])N(c3nc(C(=O)N([H])c4c([H])c([H])c(C(F)(F)F)c([H])c4[H])nc(N4C([H])([H])C([H])([H])N(C([H])([H])[H])C([H])([H])C4([H])[H])c3[H])C([H])([H])C2([H])[H])nc([H])c1C(F)(F)F


 43 47  0  0  0  0  0  0  0  0999 V2000
  154.4655  137.3749  186.1751 C   0  0  0  0  0  0  0  0  0  0  0  0
  153.7631  136.5271  185.3732 C   0  0  0  0  0  0  0  0  0  0  0  0
  153.5904  136.7222  184.0205 C   0  0  0  0  0  0  0  0  0  0  0  0
  154.1785  137.8469  183.4922 N   0  0  0  0  0  0  0  0  0  0  0  0
  154.8758  138.6940  184.2502 C   0  0  0  0  0  0  0  0  0  0  0  0
  155.0210  138.4606  185.5948 N   0  0  0  0  0  0  0  0  0  0  0  0
  156.2405  138.0862  190.4323 C   0  0  0  0  0  0  0  0  0  0  0  0
  155.2590  137.0110  190.3067 N   0  0  0  0  0  0  0  0  0  0  0  0
  155.7912  136.0322  189.3987 C   0  0  0  0  0  0  0  0  0  0  0  0
  155.1444  135.9277  188.0636 C   0  0  0  0  0  0  0  0  0  0  0  0
  154.6662  137.1912  187.5719 N   0  0  0  0  0  0  0  0  0  0  0  0
  154.3531  138.2699  188.4736 C   0  0  0  0  0  0  0  0  0  0  0  0
  154.0039  137.5951  189.7969 C   0  0  0  0  0  0  0  0  0  0  0  0
  152.8924  135.7891  183.2098 N   0  0  0  0  0  0  0  0  0  0  0  0
  151.4412  135.8031  183.3947 C   0  0  0  0  0  0  0  0  0  0  0  0
  150.8541  134.4921  182.9227 C   0  0  0  0  0  0  0  0  0  0  0  0
  151.4046  134.1190  181.6413 N   0  0  0  0  0  0  0  0  0  0  0  0
  152.7283  134.4379  181.2112 C   0  0  0  0  0  0  0  0  0  0  0  0
  153.5927  134.9274  182.3316 C   0  0  0  0  0  0  0  0  0  0  0  0
  150.5356  133.3993  180.7528 C   0  0  0  0  0  0  0  0  0  0  0  0
  149.5290  132.6414  181.2660 N   0  0  0  0  0  0  0  0  0  0  0  0
  148.6896  131.9253  180.4857 C   0  0  0  0  0  0  0  0  0  0  0  0
  148.8218  131.9343  179.1156 C   0  0  0  0  0  0  0  0  0  0  0  0
  149.8507  132.7137  178.5955 C   0  0  0  0  0  0  0  0  0  0  0  0
  150.6671  133.4120  179.4237 N   0  0  0  0  0  0  0  0  0  0  0  0
  147.9053  131.1431  178.2585 C   0  0  0  0  0  0  0  0  0  0  0  0
  148.3060  129.8200  178.1691 F   0  0  0  0  0  0  0  0  0  0  0  0
  146.6262  131.2604  178.6848 F   0  0  0  0  0  0  0  0  0  0  0  0
  147.9383  131.6385  176.9409 F   0  0  0  0  0  0  0  0  0  0  0  0
  155.4847  139.9520  183.8170 C   0  0  0  0  0  0  0  0  0  0  0  0
  154.7193  140.8547  183.3699 O   0  0  0  0  0  0  0  0  0  0  0  0
  156.8773  140.1106  183.9079 N   0  0  0  0  0  0  0  0  0  0  0  0
  157.4833  139.3822  184.2674 H   0  0  0  0  0  0  0  0  0  0  0  0
  157.5063  141.3218  183.4670 C   0  0  0  0  0  0  0  0  0  0  0  0
  158.1289  141.4033  182.2213 C   0  0  0  0  0  0  0  0  0  0  0  0
  158.7287  142.5535  181.7553 C   0  0  0  0  0  0  0  0  0  0  0  0
  158.7322  143.7051  182.5426 C   0  0  0  0  0  0  0  0  0  0  0  0
  158.1200  143.6220  183.7750 C   0  0  0  0  0  0  0  0  0  0  0  0
  157.5159  142.4465  184.2329 C   0  0  0  0  0  0  0  0  0  0  0  0
  159.3816  144.9388  182.0354 C   0  0  0  0  0  0  0  0  0  0  0  0
  159.5704  145.8834  182.9998 F   0  0  0  0  0  0  0  0  0  0  0  0
  160.5381  144.5442  181.4068 F   0  0  0  0  0  0  0  0  0  0  0  0
  158.5695  145.5228  181.0415 F   0  0  0  0  0  0  0  0  0  0  0  0
  7  8  1  0  0  0
  8  9  1  0  0  0
  9 10  1  0  0  0
 10 11  1  0  0  0
 11 12  1  0  0  0
 12 13  1  0  0  0
 11  1  1  0  0  0
  1  2  2  0  0  0
  2  3  1  0  0  0
  3  4  2  0  0  0
  4  5  1  0  0  0
  5  6  2  0  0  0
  5 30  1  0  0  0
 30 31  2  0  0  0
 30 32  1  0  0  0
 32 34  1  0  0  0
 34 35  2  0  0  0
 35 36  1  0  0  0
 36 37  2  0  0  0
 37 38  1  0  0  0
 38 39  2  0  0  0
 37 40  1  0  0  0
 40 41  1  0  0  0
 40 42  1  0  0  0
 40 43  1  0  0  0
  3 14  1  0  0  0
 14 15  1  0  0  0
 15 16  1  0  0  0
 16 17  1  0  0  0
 17 18  1  0  0  0
 18 19  1  0  0  0
 17 20  1  0  0  0
 20 21  2  0  0  0
 21 22  1  0  0  0
 22 23  2  0  0  0
 23 24  1  0  0  0
 24 25  2  0  0  0
 23 26  1  0  0  0
 26 27  1  0  0  0
 26 28  1  0  0  0
 26 29  1  0  0  0
 13  8  1  0  0  0
  6  1  1  0  0  0
 39 34  1  0  0  0
 19 14  1  0  0  0
 25 20  1  0  0  0
 32 33  1  0  0  0
M  END
> <minimizedAffinity>
-3.42205

> <CNNscore>
0.2464319617

> <CNNaffinity>
6.5108785629

> <CNN_VS>
1.6044886112

> <CNNaffinity_variance>
0.3774875700

$$$$
[H]c1nc(N2C([H])([H])C([H])([H])N(c3nc(C(=O)N([H])c4c([H])c([H])c(C(F)(F)F)c([H])c4[H])nc(N4C([H])([H])C([H])([H])N(C([H])([H])[H])C([H])([H])C4([H])[H])c3[H])C([H])([H])C2([H])[H])nc([H])c1C(F)(F)F


 43 47  0  0  0  0  0  0  0  0999 V2000
  152.9081  136.9158  185.5793 C   0  0  0  0  0  0  0  0  0  0  0  0
  152.1181  136.2023  184.7297 C   0  0  0  0  0  0  0  0  0  0  0  0
  151.9917  136.4827  183.3869 C   0  0  0  0  0  0  0  0  0  0  0  0
  152.7232  137.5493  182.9209 N   0  0  0  0  0  0  0  0  0  0  0  0
  153.5089  138.2648  183.7265 C   0  0  0  0  0  0  0  0  0  0  0  0
  153.6033  137.9503  185.0591 N   0  0  0  0  0  0  0  0  0  0  0  0
  154.9710  136.7394  189.7619 C   0  0  0  0  0  0  0  0  0  0  0  0
  153.6232  136.1816  189.6758 N   0  0  0  0  0  0  0  0  0  0  0  0
  153.6585  135.0849  188.7475 C   0  0  0  0  0  0  0  0  0  0  0  0
  152.9800  135.2858  187.4393 C   0  0  0  0  0  0  0  0  0  0  0  0
  153.0631  136.6411  186.9669 N   0  0  0  0  0  0  0  0  0  0  0  0
  153.2682  137.7358  187.8803 C   0  0  0  0  0  0  0  0  0  0  0  0
  152.7149  137.2495  189.2166 C   0  0  0  0  0  0  0  0  0  0  0  0
  151.1954  135.6846  182.5244 N   0  0  0  0  0  0  0  0  0  0  0  0
  150.9153  136.3006  181.2274 C   0  0  0  0  0  0  0  0  0  0  0  0
  149.6909  135.6610  180.6125 C   0  0  0  0  0  0  0  0  0  0  0  0
  149.7601  134.2229  180.7170 N   0  0  0  0  0  0  0  0  0  0  0  0
  150.3987  133.5241  181.7861 C   0  0  0  0  0  0  0  0  0  0  0  0
  150.7212  134.4180  182.9433 C   0  0  0  0  0  0  0  0  0  0  0  0
  149.1581  133.4708  179.6520 C   0  0  0  0  0  0  0  0  0  0  0  0
  149.6906  133.5333  178.4015 N   0  0  0  0  0  0  0  0  0  0  0  0
  149.1605  132.8659  177.3529 C   0  0  0  0  0  0  0  0  0  0  0  0
  148.0403  132.0816  177.5108 C   0  0  0  0  0  0  0  0  0  0  0  0
  147.5015  132.0182  178.7923 C   0  0  0  0  0  0  0  0  0  0  0  0
  148.0716  132.7101  179.8103 N   0  0  0  0  0  0  0  0  0  0  0  0
  147.4534  131.3540  176.3589 C   0  0  0  0  0  0  0  0  0  0  0  0
  148.4304  130.9263  175.4748 F   0  0  0  0  0  0  0  0  0  0  0  0
  146.6682  130.3360  176.7820 F   0  0  0  0  0  0  0  0  0  0  0  0
  146.6263  132.2206  175.6191 F   0  0  0  0  0  0  0  0  0  0  0  0
  154.2762  139.4562  183.3622 C   0  0  0  0  0  0  0  0  0  0  0  0
  153.6340  140.5145  183.1012 O   0  0  0  0  0  0  0  0  0  0  0  0
  155.6780  139.3842  183.3123 N   0  0  0  0  0  0  0  0  0  0  0  0
  156.1847  138.5322  183.5230 H   0  0  0  0  0  0  0  0  0  0  0  0
  156.4566  140.5276  182.9332 C   0  0  0  0  0  0  0  0  0  0  0  0
  156.9514  140.6700  181.6368 C   0  0  0  0  0  0  0  0  0  0  0  0
  157.6882  141.7616  181.2298 C   0  0  0  0  0  0  0  0  0  0  0  0
  157.9709  142.7866  182.1327 C   0  0  0  0  0  0  0  0  0  0  0  0
  157.4847  142.6427  183.4146 C   0  0  0  0  0  0  0  0  0  0  0  0
  156.7384  141.5281  183.8113 C   0  0  0  0  0  0  0  0  0  0  0  0
  158.7665  143.9573  181.6882 C   0  0  0  0  0  0  0  0  0  0  0  0
  159.3431  144.6389  182.7182 F   0  0  0  0  0  0  0  0  0  0  0  0
  159.6625  143.4925  180.7558 F   0  0  0  0  0  0  0  0  0  0  0  0
  157.9270  144.8667  181.0125 F   0  0  0  0  0  0  0  0  0  0  0  0
  7  8  1  0  0  0
  8  9  1  0  0  0
  9 10  1  0  0  0
 10 11  1  0  0  0
 11 12  1  0  0  0
 12 13  1  0  0  0
 11  1  1  0  0  0
  1  2  2  0  0  0
  2  3  1  0  0  0
  3  4  2  0  0  0
  4  5  1  0  0  0
  5  6  2  0  0  0
  5 30  1  0  0  0
 30 31  2  0  0  0
 30 32  1  0  0  0
 32 34  1  0  0  0
 34 35  2  0  0  0
 35 36  1  0  0  0
 36 37  2  0  0  0
 37 38  1  0  0  0
 38 39  2  0  0  0
 37 40  1  0  0  0
 40 41  1  0  0  0
 40 42  1  0  0  0
 40 43  1  0  0  0
  3 14  1  0  0  0
 14 15  1  0  0  0
 15 16  1  0  0  0
 16 17  1  0  0  0
 17 18  1  0  0  0
 18 19  1  0  0  0
 17 20  1  0  0  0
 20 21  2  0  0  0
 21 22  1  0  0  0
 22 23  2  0  0  0
 23 24  1  0  0  0
 24 25  2  0  0  0
 23 26  1  0  0  0
 26 27  1  0  0  0
 26 28  1  0  0  0
 26 29  1  0  0  0
 13  8  1  0  0  0
  6  1  1  0  0  0
 39 34  1  0  0  0
 19 14  1  0  0  0
 25 20  1  0  0  0
 32 33  1  0  0  0
M  END
> <minimizedAffinity>
-4.38004

> <CNNscore>
0.2403081059

> <CNNaffinity>
6.3209142685

> <CNN_VS>
1.5189669132

> <CNNaffinity_variance>
0.6841673255

$$$$
[H]c1nc(N2C([H])([H])C([H])([H])N(c3nc(C(=O)N([H])c4c([H])c([H])c(C(F)(F)F)c([H])c4[H])nc(N4C([H])([H])C([H])([H])N(C([H])([H])[H])C([H])([H])C4([H])[H])c3[H])C([H])([H])C2([H])[H])nc([H])c1C(F)(F)F


 43 47  0  0  0  0  0  0  0  0999 V2000
  150.7478  137.5966  183.3026 C   0  0  0  0  0  0  0  0  0  0  0  0
  150.4311  136.7186  184.2946 C   0  0  0  0  0  0  0  0  0  0  0  0
  151.2416  136.4670  185.3798 C   0  0  0  0  0  0  0  0  0  0  0  0
  152.4254  137.1646  185.4245 N   0  0  0  0  0  0  0  0  0  0  0  0
  152.7621  138.0340  184.4711 C   0  0  0  0  0  0  0  0  0  0  0  0
  151.9240  138.2523  183.4064 N   0  0  0  0  0  0  0  0  0  0  0  0
  149.6378  138.8678  178.9516 C   0  0  0  0  0  0  0  0  0  0  0  0
  148.5250  138.5260  179.8347 N   0  0  0  0  0  0  0  0  0  0  0  0
  148.5343  139.4518  180.9340 C   0  0  0  0  0  0  0  0  0  0  0  0
  148.9316  138.9169  182.2636 C   0  0  0  0  0  0  0  0  0  0  0  0
  149.9247  137.8811  182.1773 N   0  0  0  0  0  0  0  0  0  0  0  0
  150.0810  137.0987  180.9780 C   0  0  0  0  0  0  0  0  0  0  0  0
  148.7169  137.1378  180.2955 C   0  0  0  0  0  0  0  0  0  0  0  0
  150.8532  135.5804  186.4181 N   0  0  0  0  0  0  0  0  0  0  0  0
  151.0325  136.1212  187.7656 C   0  0  0  0  0  0  0  0  0  0  0  0
  151.0999  134.9886  188.7650 C   0  0  0  0  0  0  0  0  0  0  0  0
  150.0515  134.0275  188.5178 N   0  0  0  0  0  0  0  0  0  0  0  0
  149.5198  133.7319  187.2258 C   0  0  0  0  0  0  0  0  0  0  0  0
  150.3618  134.2868  186.1190 C   0  0  0  0  0  0  0  0  0  0  0  0
  149.5115  133.3549  189.6660 C   0  0  0  0  0  0  0  0  0  0  0  0
  150.1016  132.2141  190.1150 N   0  0  0  0  0  0  0  0  0  0  0  0
  149.6315  131.5235  191.1772 C   0  0  0  0  0  0  0  0  0  0  0  0
  148.5166  131.9546  191.8599 C   0  0  0  0  0  0  0  0  0  0  0  0
  147.9188  133.1236  191.3989 C   0  0  0  0  0  0  0  0  0  0  0  0
  148.4300  133.7775  190.3260 N   0  0  0  0  0  0  0  0  0  0  0  0
  147.9956  131.1935  193.0218 C   0  0  0  0  0  0  0  0  0  0  0  0
  148.8144  131.3318  194.1305 F   0  0  0  0  0  0  0  0  0  0  0  0
  146.7144  131.5390  193.2881 F   0  0  0  0  0  0  0  0  0  0  0  0
  147.9887  129.8170  192.7255 F   0  0  0  0  0  0  0  0  0  0  0  0
  154.0180  138.7786  184.3751 C   0  0  0  0  0  0  0  0  0  0  0  0
  154.8350  138.6839  185.3363 O   0  0  0  0  0  0  0  0  0  0  0  0
  154.2681  139.5639  183.2376 N   0  0  0  0  0  0  0  0  0  0  0  0
  153.6081  139.6342  182.4719 H   0  0  0  0  0  0  0  0  0  0  0  0
  155.4780  140.3259  183.1260 C   0  0  0  0  0  0  0  0  0  0  0  0
  155.4604  141.7206  183.1436 C   0  0  0  0  0  0  0  0  0  0  0  0
  156.6026  142.4873  183.0562 C   0  0  0  0  0  0  0  0  0  0  0  0
  157.8484  141.8702  182.9416 C   0  0  0  0  0  0  0  0  0  0  0  0
  157.8640  140.4919  182.9204 C   0  0  0  0  0  0  0  0  0  0  0  0
  156.6952  139.7287  183.0100 C   0  0  0  0  0  0  0  0  0  0  0  0
  159.0733  142.7018  182.8457 C   0  0  0  0  0  0  0  0  0  0  0  0
  159.7581  142.5194  181.6814 F   0  0  0  0  0  0  0  0  0  0  0  0
  158.6844  144.0011  183.0667 F   0  0  0  0  0  0  0  0  0  0  0  0
  159.9521  142.3668  183.8963 F   0  0  0  0  0  0  0  0  0  0  0  0
  7  8  1  0  0  0
  8  9  1  0  0  0
  9 10  1  0  0  0
 10 11  1  0  0  0
 11 12  1  0  0  0
 12 13  1  0  0  0
 11  1  1  0  0  0
  1  2  2  0  0  0
  2  3  1  0  0  0
  3  4  2  0  0  0
  4  5  1  0  0  0
  5  6  2  0  0  0
  5 30  1  0  0  0
 30 31  2  0  0  0
 30 32  1  0  0  0
 32 34  1  0  0  0
 34 35  2  0  0  0
 35 36  1  0  0  0
 36 37  2  0  0  0
 37 38  1  0  0  0
 38 39  2  0  0  0
 37 40  1  0  0  0
 40 41  1  0  0  0
 40 42  1  0  0  0
 40 43  1  0  0  0
  3 14  1  0  0  0
 14 15  1  0  0  0
 15 16  1  0  0  0
 16 17  1  0  0  0
 17 18  1  0  0  0
 18 19  1  0  0  0
 17 20  1  0  0  0
 20 21  2  0  0  0
 21 22  1  0  0  0
 22 23  2  0  0  0
 23 24  1  0  0  0
 24 25  2  0  0  0
 23 26  1  0  0  0
 26 27  1  0  0  0
 26 28  1  0  0  0
 26 29  1  0  0  0
 13  8  1  0  0  0
  6  1  1  0  0  0
 39 34  1  0  0  0
 19 14  1  0  0  0
 25 20  1  0  0  0
 32 33  1  0  0  0
M  END
> <minimizedAffinity>
-5.90795

> <CNNscore>
0.2384904623

> <CNNaffinity>
6.1997566223

> <CNN_VS>
1.4785828590

> <CNNaffinity_variance>
0.4497066438

$$$$
[H]c1nc(N2C([H])([H])C([H])([H])N(c3nc(C(=O)N([H])c4c([H])c([H])c(C(F)(F)F)c([H])c4[H])nc(N4C([H])([H])C([H])([H])N(C([H])([H])[H])C([H])([H])C4([H])[H])c3[H])C([H])([H])C2([H])[H])nc([H])c1C(F)(F)F


 43 47  0  0  0  0  0  0  0  0999 V2000
  154.6491  140.9262  184.2154 C   0  0  0  0  0  0  0  0  0  0  0  0
  153.9959  139.8006  184.6171 C   0  0  0  0  0  0  0  0  0  0  0  0
  154.6063  138.7581  185.2793 C   0  0  0  0  0  0  0  0  0  0  0  0
  155.9500  138.9054  185.5296 N   0  0  0  0  0  0  0  0  0  0  0  0
  156.6168  139.9970  185.1526 C   0  0  0  0  0  0  0  0  0  0  0  0
  155.9680  141.0111  184.4936 N   0  0  0  0  0  0  0  0  0  0  0  0
  154.2856  144.6024  181.3635 C   0  0  0  0  0  0  0  0  0  0  0  0
  153.0839  144.2343  182.1088 N   0  0  0  0  0  0  0  0  0  0  0  0
  153.3764  144.3663  183.5097 C   0  0  0  0  0  0  0  0  0  0  0  0
  153.4883  143.1096  184.2972 C   0  0  0  0  0  0  0  0  0  0  0  0
  154.0402  142.0201  183.5389 N   0  0  0  0  0  0  0  0  0  0  0  0
  153.9587  141.9982  182.1010 C   0  0  0  0  0  0  0  0  0  0  0  0
  152.7361  142.8443  181.7578 C   0  0  0  0  0  0  0  0  0  0  0  0
  153.8799  137.6228  185.7249 N   0  0  0  0  0  0  0  0  0  0  0  0
  152.4298  137.7426  185.5736 C   0  0  0  0  0  0  0  0  0  0  0  0
  151.7378  136.7769  186.5089 C   0  0  0  0  0  0  0  0  0  0  0  0
  152.3547  135.4733  186.4435 N   0  0  0  0  0  0  0  0  0  0  0  0
  153.7404  135.2518  186.1791 C   0  0  0  0  0  0  0  0  0  0  0  0
  154.5509  136.5068  186.2804 C   0  0  0  0  0  0  0  0  0  0  0  0
  151.4915  134.3425  186.6398 C   0  0  0  0  0  0  0  0  0  0  0  0
  151.8843  133.1146  186.2049 N   0  0  0  0  0  0  0  0  0  0  0  0
  151.1109  132.0148  186.3415 C   0  0  0  0  0  0  0  0  0  0  0  0
  149.8725  132.0944  186.9371 C   0  0  0  0  0  0  0  0  0  0  0  0
  149.4769  133.3517  187.3833 C   0  0  0  0  0  0  0  0  0  0  0  0
  150.2910  134.4243  187.2194 N   0  0  0  0  0  0  0  0  0  0  0  0
  149.0198  130.8891  187.0813 C   0  0  0  0  0  0  0  0  0  0  0  0
  149.4424  129.8634  186.2515 F   0  0  0  0  0  0  0  0  0  0  0  0
  148.9497  130.5010  188.3760 F   0  0  0  0  0  0  0  0  0  0  0  0
  147.7039  131.1851  186.6774 F   0  0  0  0  0  0  0  0  0  0  0  0
  158.0528  140.2354  185.3009 C   0  0  0  0  0  0  0  0  0  0  0  0
  158.8414  139.2924  185.0019 O   0  0  0  0  0  0  0  0  0  0  0  0
  158.4996  141.4831  185.7662 N   0  0  0  0  0  0  0  0  0  0  0  0
  157.8611  142.2334  186.0034 H   0  0  0  0  0  0  0  0  0  0  0  0
  159.8994  141.7384  185.9469 C   0  0  0  0  0  0  0  0  0  0  0  0
  160.8324  141.3844  184.9721 C   0  0  0  0  0  0  0  0  0  0  0  0
  162.1829  141.6285  185.1013 C   0  0  0  0  0  0  0  0  0  0  0  0
  162.6707  142.2545  186.2484 C   0  0  0  0  0  0  0  0  0  0  0  0
  161.7480  142.6002  187.2126 C   0  0  0  0  0  0  0  0  0  0  0  0
  160.3806  142.3451  187.0658 C   0  0  0  0  0  0  0  0  0  0  0  0
  164.1257  142.5119  186.3815 C   0  0  0  0  0  0  0  0  0  0  0  0
  164.7738  142.5717  185.1839 F   0  0  0  0  0  0  0  0  0  0  0  0
  164.2557  143.6480  187.1436 F   0  0  0  0  0  0  0  0  0  0  0  0
  164.7218  141.4689  187.1198 F   0  0  0  0  0  0  0  0  0  0  0  0
  7  8  1  0  0  0
  8  9  1  0  0  0
  9 10  1  0  0  0
 10 11  1  0  0  0
 11 12  1  0  0  0
 12 13  1  0  0  0
 11  1  1  0  0  0
  1  2  2  0  0  0
  2  3  1  0  0  0
  3  4  2  0  0  0
  4  5  1  0  0  0
  5  6  2  0  0  0
  5 30  1  0  0  0
 30 31  2  0  0  0
 30 32  1  0  0  0
 32 34  1  0  0  0
 34 35  2  0  0  0
 35 36  1  0  0  0
 36 37  2  0  0  0
 37 38  1  0  0  0
 38 39  2  0  0  0
 37 40  1  0  0  0
 40 41  1  0  0  0
 40 42  1  0  0  0
 40 43  1  0  0  0
  3 14  1  0  0  0
 14 15  1  0  0  0
 15 16  1  0  0  0
 16 17  1  0  0  0
 17 18  1  0  0  0
 18 19  1  0  0  0
 17 20  1  0  0  0
 20 21  2  0  0  0
 21 22  1  0  0  0
 22 23  2  0  0  0
 23 24  1  0  0  0
 24 25  2  0  0  0
 23 26  1  0  0  0
 26 27  1  0  0  0
 26 28  1  0  0  0
 26 29  1  0  0  0
 13  8  1  0  0  0
  6  1  1  0  0  0
 39 34  1  0  0  0
 19 14  1  0  0  0
 25 20  1  0  0  0
 32 33  1  0  0  0
M  END
> <minimizedAffinity>
4.92765

> <CNNscore>
0.2233000696

> <CNNaffinity>
6.4805054665

> <CNN_VS>
1.4470973015

> <CNNaffinity_variance>
0.9375364184

$$$$
[H]c1nc(N2C([H])([H])C([H])([H])N(c3nc(C(=O)N([H])c4c([H])c([H])c(C(F)(F)F)c([H])c4[H])nc(N4C([H])([H])C([H])([H])N(C([H])([H])[H])C([H])([H])C4([H])[H])c3[H])C([H])([H])C2([H])[H])nc([H])c1C(F)(F)F


 43 47  0  0  0  0  0  0  0  0999 V2000
  152.6052  136.0690  185.9790 C   0  0  0  0  0  0  0  0  0  0  0  0
  151.8565  135.4319  185.0363 C   0  0  0  0  0  0  0  0  0  0  0  0
  151.8792  135.7535  183.6970 C   0  0  0  0  0  0  0  0  0  0  0  0
  152.7201  136.7794  183.3361 N   0  0  0  0  0  0  0  0  0  0  0  0
  153.4688  137.4199  184.2346 C   0  0  0  0  0  0  0  0  0  0  0  0
  153.4132  137.0667  185.5597 N   0  0  0  0  0  0  0  0  0  0  0  0
  150.8891  135.1678  190.2243 C   0  0  0  0  0  0  0  0  0  0  0  0
  152.3445  135.1602  190.0946 N   0  0  0  0  0  0  0  0  0  0  0  0
  152.7576  136.4757  189.6889 C   0  0  0  0  0  0  0  0  0  0  0  0
  153.2631  136.6256  188.2983 C   0  0  0  0  0  0  0  0  0  0  0  0
  152.6069  135.7500  187.3658 N   0  0  0  0  0  0  0  0  0  0  0  0
  151.9764  134.5322  187.8064 C   0  0  0  0  0  0  0  0  0  0  0  0
  152.7084  134.1449  189.0880 C   0  0  0  0  0  0  0  0  0  0  0  0
  151.1201  135.0327  182.7382 N   0  0  0  0  0  0  0  0  0  0  0  0
  150.9942  135.7056  181.4454 C   0  0  0  0  0  0  0  0  0  0  0  0
  149.7960  135.1609  180.7012 C   0  0  0  0  0  0  0  0  0  0  0  0
  149.7734  133.7186  180.7577 N   0  0  0  0  0  0  0  0  0  0  0  0
  150.2716  132.9488  181.8524 C   0  0  0  0  0  0  0  0  0  0  0  0
  150.5384  133.7842  183.0660 C   0  0  0  0  0  0  0  0  0  0  0  0
  149.2283  133.0385  179.6163 C   0  0  0  0  0  0  0  0  0  0  0  0
  149.8628  133.1269  178.4160 N   0  0  0  0  0  0  0  0  0  0  0  0
  149.3916  132.5273  177.3003 C   0  0  0  0  0  0  0  0  0  0  0  0
  148.2299  131.7897  177.3343 C   0  0  0  0  0  0  0  0  0  0  0  0
  147.5866  131.6996  178.5650 C   0  0  0  0  0  0  0  0  0  0  0  0
  148.1012  132.3229  179.6543 N   0  0  0  0  0  0  0  0  0  0  0  0
  147.7081  131.1369  176.1086 C   0  0  0  0  0  0  0  0  0  0  0  0
  148.7328  130.7603  175.2559 F   0  0  0  0  0  0  0  0  0  0  0  0
  146.8994  130.0983  176.4235 F   0  0  0  0  0  0  0  0  0  0  0  0
  146.9246  132.0509  175.3785 F   0  0  0  0  0  0  0  0  0  0  0  0
  154.3436  138.5654  183.9822 C   0  0  0  0  0  0  0  0  0  0  0  0
  155.4462  138.6133  184.6007 O   0  0  0  0  0  0  0  0  0  0  0  0
  153.9337  139.5592  183.0782 N   0  0  0  0  0  0  0  0  0  0  0  0
  153.0487  139.5131  182.5867 H   0  0  0  0  0  0  0  0  0  0  0  0
  154.7571  140.7069  182.8294 C   0  0  0  0  0  0  0  0  0  0  0  0
  154.4424  141.9550  183.3674 C   0  0  0  0  0  0  0  0  0  0  0  0
  155.2176  143.0768  183.1656 C   0  0  0  0  0  0  0  0  0  0  0  0
  156.3745  142.9936  182.3908 C   0  0  0  0  0  0  0  0  0  0  0  0
  156.6821  141.7606  181.8565 C   0  0  0  0  0  0  0  0  0  0  0  0
  155.8845  140.6318  182.0711 C   0  0  0  0  0  0  0  0  0  0  0  0
  157.2026  144.2057  182.1760 C   0  0  0  0  0  0  0  0  0  0  0  0
  158.0390  144.1036  181.1046 F   0  0  0  0  0  0  0  0  0  0  0  0
  156.3337  145.2680  182.1063 F   0  0  0  0  0  0  0  0  0  0  0  0
  158.0117  144.4289  183.3091 F   0  0  0  0  0  0  0  0  0  0  0  0
  7  8  1  0  0  0
  8  9  1  0  0  0
  9 10  1  0  0  0
 10 11  1  0  0  0
 11 12  1  0  0  0
 12 13  1  0  0  0
 11  1  1  0  0  0
  1  2  2  0  0  0
  2  3  1  0  0  0
  3  4  2  0  0  0
  4  5  1  0  0  0
  5  6  2  0  0  0
  5 30  1  0  0  0
 30 31  2  0  0  0
 30 32  1  0  0  0
 32 34  1  0  0  0
 34 35  2  0  0  0
 35 36  1  0  0  0
 36 37  2  0  0  0
 37 38  1  0  0  0
 38 39  2  0  0  0
 37 40  1  0  0  0
 40 41  1  0  0  0
 40 42  1  0  0  0
 40 43  1  0  0  0
  3 14  1  0  0  0
 14 15  1  0  0  0
 15 16  1  0  0  0
 16 17  1  0  0  0
 17 18  1  0  0  0
 18 19  1  0  0  0
 17 20  1  0  0  0
 20 21  2  0  0  0
 21 22  1  0  0  0
 22 23  2  0  0  0
 23 24  1  0  0  0
 24 25  2  0  0  0
 23 26  1  0  0  0
 26 27  1  0  0  0
 26 28  1  0  0  0
 26 29  1  0  0  0
 13  8  1  0  0  0
  6  1  1  0  0  0
 39 34  1  0  0  0
 19 14  1  0  0  0
 25 20  1  0  0  0
 32 33  1  0  0  0
M  END
> <minimizedAffinity>
-4.61934

> <CNNscore>
0.2126498669

> <CNNaffinity>
6.1829571724

> <CNN_VS>
1.3148050308

> <CNNaffinity_variance>
0.5116239190

$$$$
[H]c1nc(N2C([H])([H])C([H])([H])N(c3nc(C(=O)N([H])c4c([H])c([H])c(C(F)(F)F)c([H])c4[H])nc(N4C([H])([H])C([H])([H])N(C([H])([H])[H])C([H])([H])C4([H])[H])c3[H])C([H])([H])C2([H])[H])nc([H])c1C(F)(F)F


 43 47  0  0  0  0  0  0  0  0999 V2000
  150.6466  134.9386  183.5834 C   0  0  0  0  0  0  0  0  0  0  0  0
  151.5462  135.9602  183.5384 C   0  0  0  0  0  0  0  0  0  0  0  0
  152.2043  136.4482  184.6459 C   0  0  0  0  0  0  0  0  0  0  0  0
  151.9076  135.8391  185.8421 N   0  0  0  0  0  0  0  0  0  0  0  0
  151.0347  134.8339  185.9184 C   0  0  0  0  0  0  0  0  0  0  0  0
  150.4008  134.3808  184.7886 N   0  0  0  0  0  0  0  0  0  0  0  0
  148.4243  131.8051  180.9333 C   0  0  0  0  0  0  0  0  0  0  0  0
  148.6183  133.1311  180.3507 N   0  0  0  0  0  0  0  0  0  0  0  0
  150.0326  133.3662  180.2513 C   0  0  0  0  0  0  0  0  0  0  0  0
  150.6154  134.3765  181.1741 C   0  0  0  0  0  0  0  0  0  0  0  0
  149.9611  134.4105  182.4537 N   0  0  0  0  0  0  0  0  0  0  0  0
  148.6056  133.9484  182.6084 C   0  0  0  0  0  0  0  0  0  0  0  0
  147.9669  134.1178  181.2330 C   0  0  0  0  0  0  0  0  0  0  0  0
  153.1719  137.4824  184.5499 N   0  0  0  0  0  0  0  0  0  0  0  0
  154.3402  137.2911  185.4092 C   0  0  0  0  0  0  0  0  0  0  0  0
  155.0278  138.6180  185.6384 C   0  0  0  0  0  0  0  0  0  0  0  0
  155.1687  139.3404  184.3964 N   0  0  0  0  0  0  0  0  0  0  0  0
  154.2465  139.2582  183.3093 C   0  0  0  0  0  0  0  0  0  0  0  0
  152.9624  138.5922  183.6962 C   0  0  0  0  0  0  0  0  0  0  0  0
  156.3322  140.1718  184.2642 C   0  0  0  0  0  0  0  0  0  0  0  0
  157.5054  139.7798  184.8309 N   0  0  0  0  0  0  0  0  0  0  0  0
  158.6303  140.5252  184.7597 C   0  0  0  0  0  0  0  0  0  0  0  0
  158.6344  141.7326  184.0987 C   0  0  0  0  0  0  0  0  0  0  0  0
  157.4330  142.1274  183.5179 C   0  0  0  0  0  0  0  0  0  0  0  0
  156.3316  141.3423  183.6208 N   0  0  0  0  0  0  0  0  0  0  0  0
  159.8670  142.5549  184.0258 C   0  0  0  0  0  0  0  0  0  0  0  0
  160.0612  143.2862  185.1861 F   0  0  0  0  0  0  0  0  0  0  0  0
  160.9398  141.7882  183.7210 F   0  0  0  0  0  0  0  0  0  0  0  0
  159.7452  143.5060  182.9947 F   0  0  0  0  0  0  0  0  0  0  0  0
  150.5890  134.1575  187.1370 C   0  0  0  0  0  0  0  0  0  0  0  0
  149.7215  133.2440  187.0210 O   0  0  0  0  0  0  0  0  0  0  0  0
  151.1291  134.5422  188.3752 N   0  0  0  0  0  0  0  0  0  0  0  0
  151.8239  135.2751  188.4592 H   0  0  0  0  0  0  0  0  0  0  0  0
  150.6934  133.9162  189.5899 C   0  0  0  0  0  0  0  0  0  0  0  0
  149.6167  134.4205  190.3194 C   0  0  0  0  0  0  0  0  0  0  0  0
  149.1577  133.8375  191.4811 C   0  0  0  0  0  0  0  0  0  0  0  0
  149.7784  132.6911  191.9772 C   0  0  0  0  0  0  0  0  0  0  0  0
  150.8448  132.1960  191.2574 C   0  0  0  0  0  0  0  0  0  0  0  0
  151.2982  132.8000  190.0800 C   0  0  0  0  0  0  0  0  0  0  0  0
  149.2804  132.0703  193.2293 C   0  0  0  0  0  0  0  0  0  0  0  0
  147.9202  132.0173  193.3000 F   0  0  0  0  0  0  0  0  0  0  0  0
  149.8927  130.8443  193.3306 F   0  0  0  0  0  0  0  0  0  0  0  0
  149.7203  132.8259  194.3356 F   0  0  0  0  0  0  0  0  0  0  0  0
  7  8  1  0  0  0
  8  9  1  0  0  0
  9 10  1  0  0  0
 10 11  1  0  0  0
 11 12  1  0  0  0
 12 13  1  0  0  0
 11  1  1  0  0  0
  1  2  2  0  0  0
  2  3  1  0  0  0
  3  4  2  0  0  0
  4  5  1  0  0  0
  5  6  2  0  0  0
  5 30  1  0  0  0
 30 31  2  0  0  0
 30 32  1  0  0  0
 32 34  1  0  0  0
 34 35  2  0  0  0
 35 36  1  0  0  0
 36 37  2  0  0  0
 37 38  1  0  0  0
 38 39  2  0  0  0
 37 40  1  0  0  0
 40 41  1  0  0  0
 40 42  1  0  0  0
 40 43  1  0  0  0
  3 14  1  0  0  0
 14 15  1  0  0  0
 15 16  1  0  0  0
 16 17  1  0  0  0
 17 18  1  0  0  0
 18 19  1  0  0  0
 17 20  1  0  0  0
 20 21  2  0  0  0
 21 22  1  0  0  0
 22 23  2  0  0  0
 23 24  1  0  0  0
 24 25  2  0  0  0
 23 26  1  0  0  0
 26 27  1  0  0  0
 26 28  1  0  0  0
 26 29  1  0  0  0
 13  8  1  0  0  0
  6  1  1  0  0  0
 39 34  1  0  0  0
 19 14  1  0  0  0
 25 20  1  0  0  0
 32 33  1  0  0  0
M  END
> <minimizedAffinity>
-5.22299

> <CNNscore>
0.2095528096

> <CNNaffinity>
6.0178933144

> <CNN_VS>
1.2610664368

> <CNNaffinity_variance>
0.4012214541

$$$$
[H]c1c(C(=O)N([H])c2c([H])c([H])c(S(=O)(=O)N([H])[H])c([H])c2[H])nc(C(F)(F)F)nc1N1C([H])([H])C([H])([H])N(C(F)(F)F)C([H])([H])[C@@]1([H])C([H])([H])[H]


 37 39  0  0  0  0  0  0  0  0999 V2000
  152.3005  138.8264  182.2879 C   0  0  0  0  0  0  0  0  0  0  0  0
  152.5988  138.0390  183.3768 C   0  0  0  0  0  0  0  0  0  0  0  0
  153.5150  138.4593  184.3068 C   0  0  0  0  0  0  0  0  0  0  0  0
  154.1115  139.6746  184.1131 N   0  0  0  0  0  0  0  0  0  0  0  0
  153.8294  140.4485  183.0594 C   0  0  0  0  0  0  0  0  0  0  0  0
  152.9429  140.0275  182.1697 N   0  0  0  0  0  0  0  0  0  0  0  0
  152.2215  140.0283  179.5364 C   0  0  0  0  0  0  0  0  0  0  0  0
  151.2199  139.0368  179.9833 C   0  0  0  0  0  0  0  0  0  0  0  0
  149.8156  139.6009  179.8788 C   0  0  0  0  0  0  0  0  0  0  0  0
  148.7772  138.7184  180.2451 N   0  0  0  0  0  0  0  0  0  0  0  0
  148.9842  137.9741  181.4525 C   0  0  0  0  0  0  0  0  0  0  0  0
  150.3939  137.4600  181.6386 C   0  0  0  0  0  0  0  0  0  0  0  0
  151.3735  138.4964  181.3010 N   0  0  0  0  0  0  0  0  0  0  0  0
  148.2280  137.8954  179.2015 C   0  0  0  0  0  0  0  0  0  0  0  0
  146.8441  137.8286  179.4041 F   0  0  0  0  0  0  0  0  0  0  0  0
  148.6778  136.5919  179.4242 F   0  0  0  0  0  0  0  0  0  0  0  0
  148.4580  138.3461  177.9418 F   0  0  0  0  0  0  0  0  0  0  0  0
  154.5008  141.7852  182.8730 C   0  0  0  0  0  0  0  0  0  0  0  0
  155.2314  142.0556  184.0218 F   0  0  0  0  0  0  0  0  0  0  0  0
  155.2859  141.7275  181.7478 F   0  0  0  0  0  0  0  0  0  0  0  0
  153.5035  142.7554  182.7107 F   0  0  0  0  0  0  0  0  0  0  0  0
  153.9024  137.7071  185.4956 C   0  0  0  0  0  0  0  0  0  0  0  0
  153.3976  136.5379  185.6824 O   0  0  0  0  0  0  0  0  0  0  0  0
  154.8091  138.2537  186.4150 N   0  0  0  0  0  0  0  0  0  0  0  0
  155.2356  139.2209  186.2565 H   0  0  0  0  0  0  0  0  0  0  0  0
  155.1901  137.5594  187.5757 C   0  0  0  0  0  0  0  0  0  0  0  0
  156.0024  136.4630  187.5299 C   0  0  0  0  0  0  0  0  0  0  0  0
  156.3947  135.8180  188.7206 C   0  0  0  0  0  0  0  0  0  0  0  0
  155.9457  136.3148  189.9087 C   0  0  0  0  0  0  0  0  0  0  0  0
  155.1256  137.4170  189.9862 C   0  0  0  0  0  0  0  0  0  0  0  0
  154.7488  138.0384  188.7969 C   0  0  0  0  0  0  0  0  0  0  0  0
  156.4062  135.5282  191.3937 S   0  0  0  0  0  0  0  0  0  0  0  0
  155.0655  134.5925  191.9517 N   0  0  0  0  0  0  0  0  0  0  0  0
  157.5857  134.6111  191.1802 O   0  0  0  0  0  0  0  0  0  0  0  0
  156.7556  136.6111  192.3934 O   0  0  0  0  0  0  0  0  0  0  0  0
  154.8051  134.9445  192.9087 H   0  0  0  0  0  0  0  0  0  0  0  0
  154.2569  134.7336  191.3347 H   0  0  0  0  0  0  0  0  0  0  0  0
  7  8  1  0  0  0
  8  9  1  0  0  0
  9 10  1  0  0  0
 10 11  1  0  0  0
 11 12  1  0  0  0
 12 13  1  0  0  0
 13  1  1  0  0  0
  1  2  2  0  0  0
  2  3  1  0  0  0
  3  4  2  0  0  0
  4  5  1  0  0  0
  5  6  2  0  0  0
  5 18  1  0  0  0
 18 19  1  0  0  0
 18 20  1  0  0  0
 18 21  1  0  0  0
  3 22  1  0  0  0
 22 23  2  0  0  0
 22 24  1  0  0  0
 24 26  1  0  0  0
 26 27  2  0  0  0
 27 28  1  0  0  0
 28 29  2  0  0  0
 29 30  1  0  0  0
 30 31  2  0  0  0
 29 32  1  0  0  0
 32 33  1  0  0  0
 32 34  2  0  0  0
 32 35  2  0  0  0
 10 14  1  0  0  0
 14 15  1  0  0  0
 14 16  1  0  0  0
 14 17  1  0  0  0
 13  8  1  0  0  0
  6  1  1  0  0  0
 31 26  1  0  0  0
 24 25  1  0  0  0
 33 36  1  0  0  0
 33 37  1  0  0  0
M  END
> <minimizedAffinity>
-7.33935

> <CNNscore>
0.4564002752

> <CNNaffinity>
5.9227571487

> <CNN_VS>
2.7031478882

> <CNNaffinity_variance>
0.0959085599

$$$$
[H]c1c(C(=O)N([H])c2c([H])c([H])c(S(=O)(=O)N([H])[H])c([H])c2[H])nc(C(F)(F)F)nc1N1C([H])([H])C([H])([H])N(C(F)(F)F)C([H])([H])[C@@]1([H])C([H])([H])[H]


 37 39  0  0  0  0  0  0  0  0999 V2000
  155.5191  140.6627  182.7911 C   0  0  0  0  0  0  0  0  0  0  0  0
  155.6749  139.9557  183.9619 C   0  0  0  0  0  0  0  0  0  0  0  0
  154.7192  139.0571  184.3620 C   0  0  0  0  0  0  0  0  0  0  0  0
  153.6214  138.8927  183.5632 N   0  0  0  0  0  0  0  0  0  0  0  0
  153.4594  139.5736  182.4235 C   0  0  0  0  0  0  0  0  0  0  0  0
  154.3912  140.4385  182.0517 N   0  0  0  0  0  0  0  0  0  0  0  0
  158.2914  139.9812  181.8578 C   0  0  0  0  0  0  0  0  0  0  0  0
  157.7912  141.3724  181.8653 C   0  0  0  0  0  0  0  0  0  0  0  0
  158.6827  142.2639  182.7090 C   0  0  0  0  0  0  0  0  0  0  0  0
  158.3152  143.6257  182.7515 N   0  0  0  0  0  0  0  0  0  0  0  0
  156.9210  143.8925  182.9509 C   0  0  0  0  0  0  0  0  0  0  0  0
  155.9915  142.9736  182.1908 C   0  0  0  0  0  0  0  0  0  0  0  0
  156.4398  141.5820  182.2916 N   0  0  0  0  0  0  0  0  0  0  0  0
  158.8807  144.4811  181.7433 C   0  0  0  0  0  0  0  0  0  0  0  0
  159.9554  145.1635  182.3265 F   0  0  0  0  0  0  0  0  0  0  0  0
  157.9395  145.4769  181.4718 F   0  0  0  0  0  0  0  0  0  0  0  0
  159.3294  143.8357  180.6366 F   0  0  0  0  0  0  0  0  0  0  0  0
  152.2398  139.3698  181.5614 C   0  0  0  0  0  0  0  0  0  0  0  0
  152.5425  138.3914  180.6246 F   0  0  0  0  0  0  0  0  0  0  0  0
  151.1859  139.0208  182.3695 F   0  0  0  0  0  0  0  0  0  0  0  0
  151.9613  140.5769  180.9074 F   0  0  0  0  0  0  0  0  0  0  0  0
  154.7852  138.2558  185.5798 C   0  0  0  0  0  0  0  0  0  0  0  0
  153.8263  137.4363  185.8365 O   0  0  0  0  0  0  0  0  0  0  0  0
  155.8765  138.3808  186.4512 N   0  0  0  0  0  0  0  0  0  0  0  0
  156.6775  139.0547  186.2347 H   0  0  0  0  0  0  0  0  0  0  0  0
  155.9611  137.6333  187.6380 C   0  0  0  0  0  0  0  0  0  0  0  0
  156.4798  136.3705  187.6631 C   0  0  0  0  0  0  0  0  0  0  0  0
  156.5844  135.6685  188.8812 C   0  0  0  0  0  0  0  0  0  0  0  0
  156.1583  136.2794  190.0236 C   0  0  0  0  0  0  0  0  0  0  0  0
  155.6304  137.5500  190.0293 C   0  0  0  0  0  0  0  0  0  0  0  0
  155.5347  138.2255  188.8140 C   0  0  0  0  0  0  0  0  0  0  0  0
  156.2655  135.4281  191.5401 S   0  0  0  0  0  0  0  0  0  0  0  0
  157.2866  134.0522  191.3202 N   0  0  0  0  0  0  0  0  0  0  0  0
  156.8559  136.3064  192.6162 O   0  0  0  0  0  0  0  0  0  0  0  0
  154.8640  134.9985  191.9214 O   0  0  0  0  0  0  0  0  0  0  0  0
  156.7234  133.1943  191.5539 H   0  0  0  0  0  0  0  0  0  0  0  0
  157.5737  133.9807  190.3369 H   0  0  0  0  0  0  0  0  0  0  0  0
  7  8  1  0  0  0
  8  9  1  0  0  0
  9 10  1  0  0  0
 10 11  1  0  0  0
 11 12  1  0  0  0
 12 13  1  0  0  0
 13  1  1  0  0  0
  1  2  2  0  0  0
  2  3  1  0  0  0
  3  4  2  0  0  0
  4  5  1  0  0  0
  5  6  2  0  0  0
  5 18  1  0  0  0
 18 19  1  0  0  0
 18 20  1  0  0  0
 18 21  1  0  0  0
  3 22  1  0  0  0
 22 23  2  0  0  0
 22 24  1  0  0  0
 24 26  1  0  0  0
 26 27  2  0  0  0
 27 28  1  0  0  0
 28 29  2  0  0  0
 29 30  1  0  0  0
 30 31  2  0  0  0
 29 32  1  0  0  0
 32 33  1  0  0  0
 32 34  2  0  0  0
 32 35  2  0  0  0
 10 14  1  0  0  0
 14 15  1  0  0  0
 14 16  1  0  0  0
 14 17  1  0  0  0
 13  8  1  0  0  0
  6  1  1  0  0  0
 31 26  1  0  0  0
 24 25  1  0  0  0
 33 36  1  0  0  0
 33 37  1  0  0  0
M  END
> <minimizedAffinity>
-8.75751

> <CNNscore>
0.3617504835

> <CNNaffinity>
6.4629492760

> <CNN_VS>
2.3379750252

> <CNNaffinity_variance>
0.0376688205

$$$$
[H]c1c(C(=O)N([H])c2c([H])c([H])c(S(=O)(=O)N([H])[H])c([H])c2[H])nc(C(F)(F)F)nc1N1C([H])([H])C([H])([H])N(C(F)(F)F)C([H])([H])[C@@]1([H])C([H])([H])[H]


 37 39  0  0  0  0  0  0  0  0999 V2000
  154.8002  140.1934  183.1248 C   0  0  0  0  0  0  0  0  0  0  0  0
  154.5948  139.3801  184.2162 C   0  0  0  0  0  0  0  0  0  0  0  0
  153.5503  138.4915  184.2324 C   0  0  0  0  0  0  0  0  0  0  0  0
  152.7330  138.4449  183.1370 N   0  0  0  0  0  0  0  0  0  0  0  0
  152.9229  139.2297  182.0707 C   0  0  0  0  0  0  0  0  0  0  0  0
  153.9357  140.0834  182.0712 N   0  0  0  0  0  0  0  0  0  0  0  0
  154.6156  143.0992  183.8623 C   0  0  0  0  0  0  0  0  0  0  0  0
  155.8458  142.5181  183.2835 C   0  0  0  0  0  0  0  0  0  0  0  0
  156.2354  143.2376  182.0060 C   0  0  0  0  0  0  0  0  0  0  0  0
  157.4223  142.7853  181.3913 N   0  0  0  0  0  0  0  0  0  0  0  0
  157.5739  141.3634  181.2919 C   0  0  0  0  0  0  0  0  0  0  0  0
  157.1214  140.5972  182.5143 C   0  0  0  0  0  0  0  0  0  0  0  0
  155.8406  141.1129  183.0058 N   0  0  0  0  0  0  0  0  0  0  0  0
  158.6458  143.4226  181.7976 C   0  0  0  0  0  0  0  0  0  0  0  0
  159.6994  142.5681  181.4505 F   0  0  0  0  0  0  0  0  0  0  0  0
  158.6566  143.4423  183.1943 F   0  0  0  0  0  0  0  0  0  0  0  0
  158.8701  144.6357  181.2313 F   0  0  0  0  0  0  0  0  0  0  0  0
  152.0070  139.1549  180.8758 C   0  0  0  0  0  0  0  0  0  0  0  0
  152.7990  139.1425  179.7359 F   0  0  0  0  0  0  0  0  0  0  0  0
  151.2280  138.0300  180.9911 F   0  0  0  0  0  0  0  0  0  0  0  0
  151.1980  140.2985  180.8739 F   0  0  0  0  0  0  0  0  0  0  0  0
  153.2439  137.5841  185.3334 C   0  0  0  0  0  0  0  0  0  0  0  0
  153.6469  136.3636  185.2626 O   0  0  0  0  0  0  0  0  0  0  0  0
  152.5226  138.0394  186.4463 N   0  0  0  0  0  0  0  0  0  0  0  0
  152.1950  139.0549  186.5100 H   0  0  0  0  0  0  0  0  0  0  0  0
  152.2004  137.1860  187.5149 C   0  0  0  0  0  0  0  0  0  0  0  0
  152.9525  137.1350  188.6533 C   0  0  0  0  0  0  0  0  0  0  0  0
  152.5729  136.2945  189.7197 C   0  0  0  0  0  0  0  0  0  0  0  0
  151.4440  135.5413  189.5852 C   0  0  0  0  0  0  0  0  0  0  0  0
  150.6669  135.5707  188.4501 C   0  0  0  0  0  0  0  0  0  0  0  0
  151.0611  136.4074  187.4074 C   0  0  0  0  0  0  0  0  0  0  0  0
  150.9604  134.4853  190.8840 S   0  0  0  0  0  0  0  0  0  0  0  0
  150.3286  135.4550  192.1665 N   0  0  0  0  0  0  0  0  0  0  0  0
  149.8922  133.5201  190.4310 O   0  0  0  0  0  0  0  0  0  0  0  0
  152.1920  133.7312  191.3406 O   0  0  0  0  0  0  0  0  0  0  0  0
  150.9114  135.2723  193.0237 H   0  0  0  0  0  0  0  0  0  0  0  0
  150.4190  136.4507  191.9321 H   0  0  0  0  0  0  0  0  0  0  0  0
  7  8  1  0  0  0
  8  9  1  0  0  0
  9 10  1  0  0  0
 10 11  1  0  0  0
 11 12  1  0  0  0
 12 13  1  0  0  0
 13  1  1  0  0  0
  1  2  2  0  0  0
  2  3  1  0  0  0
  3  4  2  0  0  0
  4  5  1  0  0  0
  5  6  2  0  0  0
  5 18  1  0  0  0
 18 19  1  0  0  0
 18 20  1  0  0  0
 18 21  1  0  0  0
  3 22  1  0  0  0
 22 23  2  0  0  0
 22 24  1  0  0  0
 24 26  1  0  0  0
 26 27  2  0  0  0
 27 28  1  0  0  0
 28 29  2  0  0  0
 29 30  1  0  0  0
 30 31  2  0  0  0
 29 32  1  0  0  0
 32 33  1  0  0  0
 32 34  2  0  0  0
 32 35  2  0  0  0
 10 14  1  0  0  0
 14 15  1  0  0  0
 14 16  1  0  0  0
 14 17  1  0  0  0
 13  8  1  0  0  0
  6  1  1  0  0  0
 31 26  1  0  0  0
 24 25  1  0  0  0
 33 36  1  0  0  0
 33 37  1  0  0  0
M  END
> <minimizedAffinity>
-7.86712

> <CNNscore>
0.2740317881

> <CNNaffinity>
6.1889481544

> <CNN_VS>
1.6959685087

> <CNNaffinity_variance>
0.1020407230

$$$$
[H]c1c(C(=O)N([H])c2c([H])c([H])c(S(=O)(=O)N([H])[H])c([H])c2[H])nc(C(F)(F)F)nc1N1C([H])([H])C([H])([H])N(C(F)(F)F)C([H])([H])[C@@]1([H])C([H])([H])[H]


 37 39  0  0  0  0  0  0  0  0999 V2000
  152.4719  139.1545  182.7804 C   0  0  0  0  0  0  0  0  0  0  0  0
  152.6173  138.4387  183.9471 C   0  0  0  0  0  0  0  0  0  0  0  0
  153.7362  138.5983  184.7240 C   0  0  0  0  0  0  0  0  0  0  0  0
  154.6877  139.4848  184.3008 N   0  0  0  0  0  0  0  0  0  0  0  0
  154.5571  140.1861  183.1695 C   0  0  0  0  0  0  0  0  0  0  0  0
  153.4709  140.0196  182.4299 N   0  0  0  0  0  0  0  0  0  0  0  0
  149.9887  137.5614  183.3437 C   0  0  0  0  0  0  0  0  0  0  0  0
  150.1617  138.3166  182.0845 C   0  0  0  0  0  0  0  0  0  0  0  0
  150.0441  137.3991  180.8822 C   0  0  0  0  0  0  0  0  0  0  0  0
  150.1551  138.0283  179.6240 N   0  0  0  0  0  0  0  0  0  0  0  0
  151.2197  138.9788  179.4905 C   0  0  0  0  0  0  0  0  0  0  0  0
  151.4267  139.8628  180.6996 C   0  0  0  0  0  0  0  0  0  0  0  0
  151.3671  139.0760  181.9345 N   0  0  0  0  0  0  0  0  0  0  0  0
  148.9366  138.5088  179.0303 C   0  0  0  0  0  0  0  0  0  0  0  0
  148.3504  139.3996  179.9379 F   0  0  0  0  0  0  0  0  0  0  0  0
  148.0506  137.4303  178.9765 F   0  0  0  0  0  0  0  0  0  0  0  0
  149.0957  139.1463  177.8425 F   0  0  0  0  0  0  0  0  0  0  0  0
  155.6214  141.1585  182.7289 C   0  0  0  0  0  0  0  0  0  0  0  0
  156.7078  140.4213  182.2787 F   0  0  0  0  0  0  0  0  0  0  0  0
  155.0948  141.9728  181.7567 F   0  0  0  0  0  0  0  0  0  0  0  0
  156.0001  141.9235  183.8396 F   0  0  0  0  0  0  0  0  0  0  0  0
  153.9897  137.8938  185.9764 C   0  0  0  0  0  0  0  0  0  0  0  0
  155.1969  137.5504  186.2623 O   0  0  0  0  0  0  0  0  0  0  0  0
  152.9327  137.5987  186.8493 N   0  0  0  0  0  0  0  0  0  0  0  0
  151.9311  137.8910  186.6169 H   0  0  0  0  0  0  0  0  0  0  0  0
  153.1436  136.9092  188.0553 C   0  0  0  0  0  0  0  0  0  0  0  0
  153.4916  137.5545  189.2071 C   0  0  0  0  0  0  0  0  0  0  0  0
  153.6549  136.8313  190.4062 C   0  0  0  0  0  0  0  0  0  0  0  0
  153.4569  135.4821  190.3851 C   0  0  0  0  0  0  0  0  0  0  0  0
  153.1070  134.8044  189.2399 C   0  0  0  0  0  0  0  0  0  0  0  0
  152.9522  135.5385  188.0653 C   0  0  0  0  0  0  0  0  0  0  0  0
  153.6647  134.5639  191.8513 S   0  0  0  0  0  0  0  0  0  0  0  0
  154.9918  133.4802  191.6306 N   0  0  0  0  0  0  0  0  0  0  0  0
  153.9635  135.4686  193.0218 O   0  0  0  0  0  0  0  0  0  0  0  0
  152.3818  133.7960  192.0936 O   0  0  0  0  0  0  0  0  0  0  0  0
  154.6319  132.5006  191.7668 H   0  0  0  0  0  0  0  0  0  0  0  0
  155.3492  133.5525  190.6707 H   0  0  0  0  0  0  0  0  0  0  0  0
  7  8  1  0  0  0
  8  9  1  0  0  0
  9 10  1  0  0  0
 10 11  1  0  0  0
 11 12  1  0  0  0
 12 13  1  0  0  0
 13  1  1  0  0  0
  1  2  2  0  0  0
  2  3  1  0  0  0
  3  4  2  0  0  0
  4  5  1  0  0  0
  5  6  2  0  0  0
  5 18  1  0  0  0
 18 19  1  0  0  0
 18 20  1  0  0  0
 18 21  1  0  0  0
  3 22  1  0  0  0
 22 23  2  0  0  0
 22 24  1  0  0  0
 24 26  1  0  0  0
 26 27  2  0  0  0
 27 28  1  0  0  0
 28 29  2  0  0  0
 29 30  1  0  0  0
 30 31  2  0  0  0
 29 32  1  0  0  0
 32 33  1  0  0  0
 32 34  2  0  0  0
 32 35  2  0  0  0
 10 14  1  0  0  0
 14 15  1  0  0  0
 14 16  1  0  0  0
 14 17  1  0  0  0
 13  8  1  0  0  0
  6  1  1  0  0  0
 31 26  1  0  0  0
 24 25  1  0  0  0
 33 36  1  0  0  0
 33 37  1  0  0  0
M  END
> <minimizedAffinity>
-5.96907

> <CNNscore>
0.2660537958

> <CNNaffinity>
5.8246111870

> <CNN_VS>
1.5496599674

> <CNNaffinity_variance>
0.2161474675

$$$$
[H]c1c(C(=O)N([H])c2c([H])c([H])c(S(=O)(=O)N([H])[H])c([H])c2[H])nc(C(F)(F)F)nc1N1C([H])([H])C([H])([H])N(C(F)(F)F)C([H])([H])[C@@]1([H])C([H])([H])[H]


 37 39  0  0  0  0  0  0  0  0999 V2000
  155.1598  140.2463  183.1020 C   0  0  0  0  0  0  0  0  0  0  0  0
  155.0909  139.3891  184.1769 C   0  0  0  0  0  0  0  0  0  0  0  0
  154.0207  138.5439  184.3226 C   0  0  0  0  0  0  0  0  0  0  0  0
  153.0392  138.5846  183.3712 N   0  0  0  0  0  0  0  0  0  0  0  0
  153.0956  139.4127  182.3224 C   0  0  0  0  0  0  0  0  0  0  0  0
  154.1355  140.2235  182.1968 N   0  0  0  0  0  0  0  0  0  0  0  0
  155.0842  143.2003  183.6398 C   0  0  0  0  0  0  0  0  0  0  0  0
  156.2641  142.5482  183.0329 C   0  0  0  0  0  0  0  0  0  0  0  0
  156.5916  143.1661  181.6867 C   0  0  0  0  0  0  0  0  0  0  0  0
  157.7291  142.6409  181.0373 N   0  0  0  0  0  0  0  0  0  0  0  0
  157.8430  141.2121  181.0308 C   0  0  0  0  0  0  0  0  0  0  0  0
  157.4483  140.5454  182.3293 C   0  0  0  0  0  0  0  0  0  0  0  0
  156.2112  141.1276  182.8569 N   0  0  0  0  0  0  0  0  0  0  0  0
  158.9886  143.2728  181.3246 C   0  0  0  0  0  0  0  0  0  0  0  0
  159.9924  142.3168  181.1270 F   0  0  0  0  0  0  0  0  0  0  0  0
  159.0167  143.5315  182.6970 F   0  0  0  0  0  0  0  0  0  0  0  0
  159.2688  144.3570  180.5574 F   0  0  0  0  0  0  0  0  0  0  0  0
  151.9998  139.4341  181.2874 C   0  0  0  0  0  0  0  0  0  0  0  0
  151.9503  140.7129  180.7500 F   0  0  0  0  0  0  0  0  0  0  0  0
  152.2702  138.4736  180.3440 F   0  0  0  0  0  0  0  0  0  0  0  0
  150.7882  139.1463  181.9288 F   0  0  0  0  0  0  0  0  0  0  0  0
  153.8491  137.5965  185.4191 C   0  0  0  0  0  0  0  0  0  0  0  0
  153.2729  136.4701  185.1820 O   0  0  0  0  0  0  0  0  0  0  0  0
  154.3058  137.9132  186.7064 N   0  0  0  0  0  0  0  0  0  0  0  0
  154.7921  138.8446  186.9026 H   0  0  0  0  0  0  0  0  0  0  0  0
  154.1422  137.0275  187.7849 C   0  0  0  0  0  0  0  0  0  0  0  0
  155.0270  136.0178  188.0335 C   0  0  0  0  0  0  0  0  0  0  0  0
  154.8495  135.1750  189.1497 C   0  0  0  0  0  0  0  0  0  0  0  0
  153.7803  135.3940  189.9675 C   0  0  0  0  0  0  0  0  0  0  0  0
  152.8717  136.4023  189.7419 C   0  0  0  0  0  0  0  0  0  0  0  0
  153.0653  137.2229  188.6320 C   0  0  0  0  0  0  0  0  0  0  0  0
  153.5319  134.3584  191.3466 S   0  0  0  0  0  0  0  0  0  0  0  0
  153.3688  135.3522  192.7503 N   0  0  0  0  0  0  0  0  0  0  0  0
  152.2797  133.5311  191.1868 O   0  0  0  0  0  0  0  0  0  0  0  0
  154.7451  133.4595  191.4658 O   0  0  0  0  0  0  0  0  0  0  0  0
  154.1287  135.0801  193.4257 H   0  0  0  0  0  0  0  0  0  0  0  0
  153.5087  136.3385  192.5012 H   0  0  0  0  0  0  0  0  0  0  0  0
  7  8  1  0  0  0
  8  9  1  0  0  0
  9 10  1  0  0  0
 10 11  1  0  0  0
 11 12  1  0  0  0
 12 13  1  0  0  0
 13  1  1  0  0  0
  1  2  2  0  0  0
  2  3  1  0  0  0
  3  4  2  0  0  0
  4  5  1  0  0  0
  5  6  2  0  0  0
  5 18  1  0  0  0
 18 19  1  0  0  0
 18 20  1  0  0  0
 18 21  1  0  0  0
  3 22  1  0  0  0
 22 23  2  0  0  0
 22 24  1  0  0  0
 24 26  1  0  0  0
 26 27  2  0  0  0
 27 28  1  0  0  0
 28 29  2  0  0  0
 29 30  1  0  0  0
 30 31  2  0  0  0
 29 32  1  0  0  0
 32 33  1  0  0  0
 32 34  2  0  0  0
 32 35  2  0  0  0
 10 14  1  0  0  0
 14 15  1  0  0  0
 14 16  1  0  0  0
 14 17  1  0  0  0
 13  8  1  0  0  0
  6  1  1  0  0  0
 31 26  1  0  0  0
 24 25  1  0  0  0
 33 36  1  0  0  0
 33 37  1  0  0  0
M  END
> <minimizedAffinity>
-8.02211

> <CNNscore>
0.2589323521

> <CNNaffinity>
6.2156677246

> <CNN_VS>
1.6094374657

> <CNNaffinity_variance>
0.0595527887

$$$$
[H]c1c(C(=O)N([H])c2c([H])c([H])c(S(=O)(=O)N([H])[H])c([H])c2[H])nc(C(F)(F)F)nc1N1C([H])([H])C([H])([H])N(C(F)(F)F)C([H])([H])[C@@]1([H])C([H])([H])[H]


 37 39  0  0  0  0  0  0  0  0999 V2000
  155.6909  140.6600  182.8284 C   0  0  0  0  0  0  0  0  0  0  0  0
  155.7645  139.9660  184.0148 C   0  0  0  0  0  0  0  0  0  0  0  0
  154.7376  139.1438  184.4025 C   0  0  0  0  0  0  0  0  0  0  0  0
  153.6533  139.0411  183.5753 N   0  0  0  0  0  0  0  0  0  0  0  0
  153.5708  139.7101  182.4202 C   0  0  0  0  0  0  0  0  0  0  0  0
  154.5708  140.5009  182.0607 N   0  0  0  0  0  0  0  0  0  0  0  0
  155.5742  143.6610  182.8753 C   0  0  0  0  0  0  0  0  0  0  0  0
  156.7121  142.9341  182.2728 C   0  0  0  0  0  0  0  0  0  0  0  0
  156.8935  143.3226  180.8177 C   0  0  0  0  0  0  0  0  0  0  0  0
  157.9812  142.7132  180.1568 N   0  0  0  0  0  0  0  0  0  0  0  0
  158.1382  141.3053  180.3756 C   0  0  0  0  0  0  0  0  0  0  0  0
  157.8870  140.8598  181.7985 C   0  0  0  0  0  0  0  0  0  0  0  0
  156.6871  141.5035  182.3401 N   0  0  0  0  0  0  0  0  0  0  0  0
  159.2418  143.4031  180.2122 C   0  0  0  0  0  0  0  0  0  0  0  0
  159.6385  143.6587  178.8938 F   0  0  0  0  0  0  0  0  0  0  0  0
  160.1882  142.4952  180.6929 F   0  0  0  0  0  0  0  0  0  0  0  0
  159.2171  144.5787  180.8905 F   0  0  0  0  0  0  0  0  0  0  0  0
  152.3641  139.5755  181.5269 C   0  0  0  0  0  0  0  0  0  0  0  0
  151.2991  139.1598  182.3141 F   0  0  0  0  0  0  0  0  0  0  0  0
  152.1324  140.7848  180.9190 F   0  0  0  0  0  0  0  0  0  0  0  0
  152.6432  138.6005  180.5606 F   0  0  0  0  0  0  0  0  0  0  0  0
  154.7137  138.3628  185.6349 C   0  0  0  0  0  0  0  0  0  0  0  0
  153.6874  137.6269  185.8839 O   0  0  0  0  0  0  0  0  0  0  0  0
  155.7930  138.4172  186.5285 N   0  0  0  0  0  0  0  0  0  0  0  0
  156.6495  139.0213  186.3185 H   0  0  0  0  0  0  0  0  0  0  0  0
  155.7926  137.6878  187.7294 C   0  0  0  0  0  0  0  0  0  0  0  0
  156.4232  136.4824  187.8448 C   0  0  0  0  0  0  0  0  0  0  0  0
  156.4342  135.8004  189.0787 C   0  0  0  0  0  0  0  0  0  0  0  0
  155.8043  136.3724  190.1444 C   0  0  0  0  0  0  0  0  0  0  0  0
  155.1598  137.5850  190.0583 C   0  0  0  0  0  0  0  0  0  0  0  0
  155.1599  138.2415  188.8289 C   0  0  0  0  0  0  0  0  0  0  0  0
  155.7929  135.5437  191.6772 S   0  0  0  0  0  0  0  0  0  0  0  0
  154.2192  135.7056  192.3710 N   0  0  0  0  0  0  0  0  0  0  0  0
  156.1010  134.0764  191.5043 O   0  0  0  0  0  0  0  0  0  0  0  0
  156.8358  136.2003  192.5578 O   0  0  0  0  0  0  0  0  0  0  0  0
  154.3266  136.1873  193.3006 H   0  0  0  0  0  0  0  0  0  0  0  0
  153.6316  136.3008  191.7753 H   0  0  0  0  0  0  0  0  0  0  0  0
  7  8  1  0  0  0
  8  9  1  0  0  0
  9 10  1  0  0  0
 10 11  1  0  0  0
 11 12  1  0  0  0
 12 13  1  0  0  0
 13  1  1  0  0  0
  1  2  2  0  0  0
  2  3  1  0  0  0
  3  4  2  0  0  0
  4  5  1  0  0  0
  5  6  2  0  0  0
  5 18  1  0  0  0
 18 19  1  0  0  0
 18 20  1  0  0  0
 18 21  1  0  0  0
  3 22  1  0  0  0
 22 23  2  0  0  0
 22 24  1  0  0  0
 24 26  1  0  0  0
 26 27  2  0  0  0
 27 28  1  0  0  0
 28 29  2  0  0  0
 29 30  1  0  0  0
 30 31  2  0  0  0
 29 32  1  0  0  0
 32 33  1  0  0  0
 32 34  2  0  0  0
 32 35  2  0  0  0
 10 14  1  0  0  0
 14 15  1  0  0  0
 14 16  1  0  0  0
 14 17  1  0  0  0
 13  8  1  0  0  0
  6  1  1  0  0  0
 31 26  1  0  0  0
 24 25  1  0  0  0
 33 36  1  0  0  0
 33 37  1  0  0  0
M  END
> <minimizedAffinity>
-8.94142

> <CNNscore>
0.2554166913

> <CNNaffinity>
6.3321657181

> <CNN_VS>
1.6173408031

> <CNNaffinity_variance>
0.0356973335

$$$$
[H]c1c(C(=O)N([H])c2c([H])c([H])c(S(=O)(=O)N([H])[H])c([H])c2[H])nc(C(F)(F)F)nc1N1C([H])([H])C([H])([H])N(C(F)(F)F)C([H])([H])[C@@]1([H])C([H])([H])[H]


 37 39  0  0  0  0  0  0  0  0999 V2000
  153.4893  139.1707  183.2900 C   0  0  0  0  0  0  0  0  0  0  0  0
  153.6961  138.1533  184.1939 C   0  0  0  0  0  0  0  0  0  0  0  0
  154.7820  138.1793  185.0311 C   0  0  0  0  0  0  0  0  0  0  0  0
  155.6386  139.2410  184.9350 N   0  0  0  0  0  0  0  0  0  0  0  0
  155.4478  140.2354  184.0612 C   0  0  0  0  0  0  0  0  0  0  0  0
  154.3946  140.1948  183.2589 N   0  0  0  0  0  0  0  0  0  0  0  0
  151.0146  137.4778  183.4678 C   0  0  0  0  0  0  0  0  0  0  0  0
  151.2115  138.4592  182.3797 C   0  0  0  0  0  0  0  0  0  0  0  0
  151.1404  137.7848  181.0228 C   0  0  0  0  0  0  0  0  0  0  0  0
  151.2770  138.6418  179.9100 N   0  0  0  0  0  0  0  0  0  0  0  0
  152.3311  139.6099  179.9904 C   0  0  0  0  0  0  0  0  0  0  0  0
  152.4919  140.2508  181.3503 C   0  0  0  0  0  0  0  0  0  0  0  0
  152.4095  139.2439  182.4120 N   0  0  0  0  0  0  0  0  0  0  0  0
  150.0685  139.2152  179.3818 C   0  0  0  0  0  0  0  0  0  0  0  0
  150.4374  140.2842  178.5559 F   0  0  0  0  0  0  0  0  0  0  0  0
  149.3949  139.8135  180.4492 F   0  0  0  0  0  0  0  0  0  0  0  0
  149.3007  138.3586  178.6610 F   0  0  0  0  0  0  0  0  0  0  0  0
  156.4075  141.3949  183.9792 C   0  0  0  0  0  0  0  0  0  0  0  0
  157.0206  141.3494  182.7348 F   0  0  0  0  0  0  0  0  0  0  0  0
  155.7068  142.5583  184.1818 F   0  0  0  0  0  0  0  0  0  0  0  0
  157.3706  141.2358  184.9840 F   0  0  0  0  0  0  0  0  0  0  0  0
  155.0940  137.1573  186.0248 C   0  0  0  0  0  0  0  0  0  0  0  0
  154.3797  136.0870  186.0600 O   0  0  0  0  0  0  0  0  0  0  0  0
  156.1545  137.3435  186.9230 N   0  0  0  0  0  0  0  0  0  0  0  0
  156.7537  138.2280  186.8890 H   0  0  0  0  0  0  0  0  0  0  0  0
  156.4699  136.3839  187.8998 C   0  0  0  0  0  0  0  0  0  0  0  0
  157.2511  135.2988  187.6233 C   0  0  0  0  0  0  0  0  0  0  0  0
  157.5780  134.3796  188.6411 C   0  0  0  0  0  0  0  0  0  0  0  0
  157.0980  134.6021  189.8981 C   0  0  0  0  0  0  0  0  0  0  0  0
  156.3080  135.6855  190.2065 C   0  0  0  0  0  0  0  0  0  0  0  0
  155.9957  136.5809  189.1850 C   0  0  0  0  0  0  0  0  0  0  0  0
  157.4776  133.4741  191.1708 S   0  0  0  0  0  0  0  0  0  0  0  0
  158.7615  132.4537  190.6278 N   0  0  0  0  0  0  0  0  0  0  0  0
  157.9223  134.1938  192.4206 O   0  0  0  0  0  0  0  0  0  0  0  0
  156.2293  132.6619  191.4470 O   0  0  0  0  0  0  0  0  0  0  0  0
  158.4150  131.4602  190.6555 H   0  0  0  0  0  0  0  0  0  0  0  0
  158.9995  132.6758  189.6539 H   0  0  0  0  0  0  0  0  0  0  0  0
  7  8  1  0  0  0
  8  9  1  0  0  0
  9 10  1  0  0  0
 10 11  1  0  0  0
 11 12  1  0  0  0
 12 13  1  0  0  0
 13  1  1  0  0  0
  1  2  2  0  0  0
  2  3  1  0  0  0
  3  4  2  0  0  0
  4  5  1  0  0  0
  5  6  2  0  0  0
  5 18  1  0  0  0
 18 19  1  0  0  0
 18 20  1  0  0  0
 18 21  1  0  0  0
  3 22  1  0  0  0
 22 23  2  0  0  0
 22 24  1  0  0  0
 24 26  1  0  0  0
 26 27  2  0  0  0
 27 28  1  0  0  0
 28 29  2  0  0  0
 29 30  1  0  0  0
 30 31  2  0  0  0
 29 32  1  0  0  0
 32 33  1  0  0  0
 32 34  2  0  0  0
 32 35  2  0  0  0
 10 14  1  0  0  0
 14 15  1  0  0  0
 14 16  1  0  0  0
 14 17  1  0  0  0
 13  8  1  0  0  0
  6  1  1  0  0  0
 31 26  1  0  0  0
 24 25  1  0  0  0
 33 36  1  0  0  0
 33 37  1  0  0  0
M  END
> <minimizedAffinity>
-7.04641

> <CNNscore>
0.2535949349

> <CNNaffinity>
5.7393407822

> <CNN_VS>
1.4554677010

> <CNNaffinity_variance>
0.1245524436

$$$$
[H]c1c(C(=O)N([H])c2c([H])c([H])c(S(=O)(=O)N([H])[H])c([H])c2[H])nc(C(F)(F)F)nc1N1C([H])([H])C([H])([H])N(C(F)(F)F)C([H])([H])[C@@]1([H])C([H])([H])[H]


 37 39  0  0  0  0  0  0  0  0999 V2000
  155.5114  140.5157  183.0123 C   0  0  0  0  0  0  0  0  0  0  0  0
  155.4920  139.8669  184.2261 C   0  0  0  0  0  0  0  0  0  0  0  0
  154.4478  139.0406  184.5545 C   0  0  0  0  0  0  0  0  0  0  0  0
  153.4413  138.8879  183.6413 N   0  0  0  0  0  0  0  0  0  0  0  0
  153.4495  139.5127  182.4587 C   0  0  0  0  0  0  0  0  0  0  0  0
  154.4649  140.3081  182.1573 N   0  0  0  0  0  0  0  0  0  0  0  0
  155.4735  143.5110  183.2321 C   0  0  0  0  0  0  0  0  0  0  0  0
  156.5967  142.7899  182.5960 C   0  0  0  0  0  0  0  0  0  0  0  0
  156.8000  143.2567  181.1671 C   0  0  0  0  0  0  0  0  0  0  0  0
  157.8766  142.6575  180.4791 N   0  0  0  0  0  0  0  0  0  0  0  0
  157.9947  141.2357  180.6171 C   0  0  0  0  0  0  0  0  0  0  0  0
  157.7203  140.7156  182.0101 C   0  0  0  0  0  0  0  0  0  0  0  0
  156.5334  141.3589  182.5802 N   0  0  0  0  0  0  0  0  0  0  0  0
  159.1545  143.3091  180.5827 C   0  0  0  0  0  0  0  0  0  0  0  0
  159.5879  143.5919  179.2815 F   0  0  0  0  0  0  0  0  0  0  0  0
  160.0640  142.3605  181.0562 F   0  0  0  0  0  0  0  0  0  0  0  0
  159.1475  144.4643  181.2954 F   0  0  0  0  0  0  0  0  0  0  0  0
  152.3272  139.3234  181.4703 C   0  0  0  0  0  0  0  0  0  0  0  0
  152.5387  138.1178  180.8158 F   0  0  0  0  0  0  0  0  0  0  0  0
  151.1349  139.3543  182.1507 F   0  0  0  0  0  0  0  0  0  0  0  0
  152.3777  140.3752  180.5464 F   0  0  0  0  0  0  0  0  0  0  0  0
  154.3286  138.3049  185.8090 C   0  0  0  0  0  0  0  0  0  0  0  0
  154.9742  137.1996  185.9443 O   0  0  0  0  0  0  0  0  0  0  0  0
  153.5233  138.7984  186.8454 N   0  0  0  0  0  0  0  0  0  0  0  0
  152.9936  139.7205  186.7374 H   0  0  0  0  0  0  0  0  0  0  0  0
  153.3777  138.1054  188.0591 C   0  0  0  0  0  0  0  0  0  0  0  0
  152.4390  137.1283  188.2270 C   0  0  0  0  0  0  0  0  0  0  0  0
  152.3513  136.4282  189.4476 C   0  0  0  0  0  0  0  0  0  0  0  0
  153.2222  136.7497  190.4467 C   0  0  0  0  0  0  0  0  0  0  0  0
  154.1776  137.7299  190.3072 C   0  0  0  0  0  0  0  0  0  0  0  0
  154.2459  138.4106  189.0929 C   0  0  0  0  0  0  0  0  0  0  0  0
  153.1262  135.9076  191.9691 S   0  0  0  0  0  0  0  0  0  0  0  0
  152.2176  136.8791  193.0714 N   0  0  0  0  0  0  0  0  0  0  0  0
  152.4359  134.5748  191.8107 O   0  0  0  0  0  0  0  0  0  0  0  0
  154.5417  135.7110  192.4710 O   0  0  0  0  0  0  0  0  0  0  0  0
  152.8343  137.0875  193.8985 H   0  0  0  0  0  0  0  0  0  0  0  0
  151.9706  137.7732  192.6311 H   0  0  0  0  0  0  0  0  0  0  0  0
  7  8  1  0  0  0
  8  9  1  0  0  0
  9 10  1  0  0  0
 10 11  1  0  0  0
 11 12  1  0  0  0
 12 13  1  0  0  0
 13  1  1  0  0  0
  1  2  2  0  0  0
  2  3  1  0  0  0
  3  4  2  0  0  0
  4  5  1  0  0  0
  5  6  2  0  0  0
  5 18  1  0  0  0
 18 19  1  0  0  0
 18 20  1  0  0  0
 18 21  1  0  0  0
  3 22  1  0  0  0
 22 23  2  0  0  0
 22 24  1  0  0  0
 24 26  1  0  0  0
 26 27  2  0  0  0
 27 28  1  0  0  0
 28 29  2  0  0  0
 29 30  1  0  0  0
 30 31  2  0  0  0
 29 32  1  0  0  0
 32 33  1  0  0  0
 32 34  2  0  0  0
 32 35  2  0  0  0
 10 14  1  0  0  0
 14 15  1  0  0  0
 14 16  1  0  0  0
 14 17  1  0  0  0
 13  8  1  0  0  0
  6  1  1  0  0  0
 31 26  1  0  0  0
 24 25  1  0  0  0
 33 36  1  0  0  0
 33 37  1  0  0  0
M  END
> <minimizedAffinity>
-9.03609

> <CNNscore>
0.2297066152

> <CNNaffinity>
6.2567844391

> <CNN_VS>
1.4372247458

> <CNNaffinity_variance>
0.0399809405

$$$$
[H]c1c(C(=O)N([H])c2c([H])c([H])c(S(=O)(=O)N([H])[H])c([H])c2[H])nc(C(F)(F)F)nc1N1C([H])([H])C([H])([H])N(C(F)(F)F)C([H])([H])[C@@]1([H])C([H])([H])[H]


 37 39  0  0  0  0  0  0  0  0999 V2000
  155.2203  140.4193  183.0673 C   0  0  0  0  0  0  0  0  0  0  0  0
  155.2489  139.5228  184.1114 C   0  0  0  0  0  0  0  0  0  0  0  0
  154.2429  138.6033  184.2641 C   0  0  0  0  0  0  0  0  0  0  0  0
  153.2251  138.6112  183.3508 N   0  0  0  0  0  0  0  0  0  0  0  0
  153.1867  139.4770  182.3321 C   0  0  0  0  0  0  0  0  0  0  0  0
  154.1656  140.3595  182.1993 N   0  0  0  0  0  0  0  0  0  0  0  0
  154.9799  143.3378  183.7351 C   0  0  0  0  0  0  0  0  0  0  0  0
  156.1712  142.7897  183.0523 C   0  0  0  0  0  0  0  0  0  0  0  0
  156.3991  143.4818  181.7218 C   0  0  0  0  0  0  0  0  0  0  0  0
  157.5381  143.0591  181.0039 N   0  0  0  0  0  0  0  0  0  0  0  0
  157.7427  141.6422  180.9309 C   0  0  0  0  0  0  0  0  0  0  0  0
  157.4488  140.8991  182.2144 C   0  0  0  0  0  0  0  0  0  0  0  0
  156.2015  141.3769  182.8174 N   0  0  0  0  0  0  0  0  0  0  0  0
  158.7661  143.7601  181.2661 C   0  0  0  0  0  0  0  0  0  0  0  0
  159.4902  143.0045  182.1964 F   0  0  0  0  0  0  0  0  0  0  0  0
  158.4342  144.9323  181.9494 F   0  0  0  0  0  0  0  0  0  0  0  0
  159.5478  143.9651  180.1753 F   0  0  0  0  0  0  0  0  0  0  0  0
  152.0531  139.4609  181.3387 C   0  0  0  0  0  0  0  0  0  0  0  0
  150.9019  139.0841  182.0164 F   0  0  0  0  0  0  0  0  0  0  0  0
  151.9498  140.7074  180.7722 F   0  0  0  0  0  0  0  0  0  0  0  0
  152.3504  138.5110  180.3529 F   0  0  0  0  0  0  0  0  0  0  0  0
  154.1759  137.6091  185.3302 C   0  0  0  0  0  0  0  0  0  0  0  0
  153.3305  136.6440  185.2268 O   0  0  0  0  0  0  0  0  0  0  0  0
  155.0202  137.7088  186.4452 N   0  0  0  0  0  0  0  0  0  0  0  0
  155.7286  138.5050  186.5279 H   0  0  0  0  0  0  0  0  0  0  0  0
  154.9691  136.7751  187.4939 C   0  0  0  0  0  0  0  0  0  0  0  0
  154.1449  136.9390  188.5700 C   0  0  0  0  0  0  0  0  0  0  0  0
  154.0932  135.9591  189.5824 C   0  0  0  0  0  0  0  0  0  0  0  0
  154.8807  134.8526  189.4584 C   0  0  0  0  0  0  0  0  0  0  0  0
  155.7217  134.6604  188.3865 C   0  0  0  0  0  0  0  0  0  0  0  0
  155.7584  135.6422  187.3979 C   0  0  0  0  0  0  0  0  0  0  0  0
  154.8442  133.6329  190.7022 S   0  0  0  0  0  0  0  0  0  0  0  0
  156.4651  133.3371  191.2213 N   0  0  0  0  0  0  0  0  0  0  0  0
  154.0284  134.0889  191.8873 O   0  0  0  0  0  0  0  0  0  0  0  0
  154.2400  132.3829  190.0968 O   0  0  0  0  0  0  0  0  0  0  0  0
  156.6749  132.3195  191.0532 H   0  0  0  0  0  0  0  0  0  0  0  0
  157.1215  133.8900  190.6575 H   0  0  0  0  0  0  0  0  0  0  0  0
  7  8  1  0  0  0
  8  9  1  0  0  0
  9 10  1  0  0  0
 10 11  1  0  0  0
 11 12  1  0  0  0
 12 13  1  0  0  0
 13  1  1  0  0  0
  1  2  2  0  0  0
  2  3  1  0  0  0
  3  4  2  0  0  0
  4  5  1  0  0  0
  5  6  2  0  0  0
  5 18  1  0  0  0
 18 19  1  0  0  0
 18 20  1  0  0  0
 18 21  1  0  0  0
  3 22  1  0  0  0
 22 23  2  0  0  0
 22 24  1  0  0  0
 24 26  1  0  0  0
 26 27  2  0  0  0
 27 28  1  0  0  0
 28 29  2  0  0  0
 29 30  1  0  0  0
 30 31  2  0  0  0
 29 32  1  0  0  0
 32 33  1  0  0  0
 32 34  2  0  0  0
 32 35  2  0  0  0
 10 14  1  0  0  0
 14 15  1  0  0  0
 14 16  1  0  0  0
 14 17  1  0  0  0
 13  8  1  0  0  0
  6  1  1  0  0  0
 31 26  1  0  0  0
 24 25  1  0  0  0
 33 36  1  0  0  0
 33 37  1  0  0  0
M  END
> <minimizedAffinity>
-7.91880

> <CNNscore>
0.2222928107

> <CNNaffinity>
6.2743401527

> <CNN_VS>
1.3947407007

> <CNNaffinity_variance>
0.1028493792

$$$$
[H]c1nc(N2C([H])([H])C([H])([H])N(c3nc(C(=O)N([H])c4c([H])c([H])c(C(F)(F)F)c([H])c4[H])nc(N4C([H])([H])C([H])([H])N(C([H])([H])[H])C([H])([H])C4([H])[H])c3[H])C([H])([H])C2([H])[H])c2c([H])c([H])n([H])c2n1


 43 48  0  0  0  0  0  0  0  0999 V2000
  153.8551  134.4149  184.7565 C   0  0  0  0  0  0  0  0  0  0  0  0
  153.0166  134.7756  183.7502 C   0  0  0  0  0  0  0  0  0  0  0  0
  151.7192  135.2113  184.0544 C   0  0  0  0  0  0  0  0  0  0  0  0
  151.3490  135.2560  185.3448 N   0  0  0  0  0  0  0  0  0  0  0  0
  152.1643  134.9104  186.3302 C   0  0  0  0  0  0  0  0  0  0  0  0
  153.4312  134.4878  186.0083 N   0  0  0  0  0  0  0  0  0  0  0  0
  158.2542  131.1316  184.3690 C   0  0  0  0  0  0  0  0  0  0  0  0
  156.9715  131.8306  184.4844 N   0  0  0  0  0  0  0  0  0  0  0  0
  157.1857  132.8451  185.4881 C   0  0  0  0  0  0  0  0  0  0  0  0
  156.1348  133.8822  185.5610 C   0  0  0  0  0  0  0  0  0  0  0  0
  155.1805  133.8862  184.4613 N   0  0  0  0  0  0  0  0  0  0  0  0
  155.5436  133.4062  183.1901 C   0  0  0  0  0  0  0  0  0  0  0  0
  156.6623  132.3867  183.1952 C   0  0  0  0  0  0  0  0  0  0  0  0
  150.9195  135.6061  182.9726 N   0  0  0  0  0  0  0  0  0  0  0  0
  151.4913  136.2514  181.8055 C   0  0  0  0  0  0  0  0  0  0  0  0
  150.6171  135.9307  180.6123 C   0  0  0  0  0  0  0  0  0  0  0  0
  149.2321  136.3190  180.8909 N   0  0  0  0  0  0  0  0  0  0  0  0
  148.7313  136.3694  182.2491 C   0  0  0  0  0  0  0  0  0  0  0  0
  149.4825  135.3139  183.0385 C   0  0  0  0  0  0  0  0  0  0  0  0
  148.4060  136.6029  179.7677 C   0  0  0  0  0  0  0  0  0  0  0  0
  148.0596  137.8572  179.4225 N   0  0  0  0  0  0  0  0  0  0  0  0
  147.2912  138.0663  178.3434 C   0  0  0  0  0  0  0  0  0  0  0  0
  146.8250  137.0749  177.5646 N   0  0  0  0  0  0  0  0  0  0  0  0
  147.1514  135.7892  177.8845 C   0  0  0  0  0  0  0  0  0  0  0  0
  146.8124  134.6050  177.3144 N   0  0  0  0  0  0  0  0  0  0  0  0
  147.3729  133.5926  178.0363 C   0  0  0  0  0  0  0  0  0  0  0  0
  148.0618  134.2006  179.0573 C   0  0  0  0  0  0  0  0  0  0  0  0
  147.9397  135.5675  178.9837 C   0  0  0  0  0  0  0  0  0  0  0  0
  146.2107  134.5225  176.4698 H   0  0  0  0  0  0  0  0  0  0  0  0
  151.8155  134.8645  187.7357 C   0  0  0  0  0  0  0  0  0  0  0  0
  150.7374  134.2903  188.0323 O   0  0  0  0  0  0  0  0  0  0  0  0
  152.6252  135.4461  188.7759 N   0  0  0  0  0  0  0  0  0  0  0  0
  153.5216  135.8922  188.6042 H   0  0  0  0  0  0  0  0  0  0  0  0
  152.0855  135.3432  190.0810 C   0  0  0  0  0  0  0  0  0  0  0  0
  152.3636  134.2410  190.8570 C   0  0  0  0  0  0  0  0  0  0  0  0
  151.8943  134.2348  192.1582 C   0  0  0  0  0  0  0  0  0  0  0  0
  151.1727  135.2998  192.6560 C   0  0  0  0  0  0  0  0  0  0  0  0
  150.9132  136.3738  191.8511 C   0  0  0  0  0  0  0  0  0  0  0  0
  151.3607  136.4162  190.5607 C   0  0  0  0  0  0  0  0  0  0  0  0
  150.7188  135.2744  194.0547 C   0  0  0  0  0  0  0  0  0  0  0  0
  151.5174  136.0787  194.8629 F   0  0  0  0  0  0  0  0  0  0  0  0
  149.4120  135.7196  194.1623 F   0  0  0  0  0  0  0  0  0  0  0  0
  150.8309  133.9737  194.5301 F   0  0  0  0  0  0  0  0  0  0  0  0
  7  8  1  0  0  0
  8  9  1  0  0  0
  9 10  1  0  0  0
 10 11  1  0  0  0
 11 12  1  0  0  0
 12 13  1  0  0  0
 11  1  1  0  0  0
  1  2  2  0  0  0
  2  3  1  0  0  0
  3  4  2  0  0  0
  4  5  1  0  0  0
  5  6  2  0  0  0
  5 30  1  0  0  0
 30 31  2  0  0  0
 30 32  1  0  0  0
 32 34  1  0  0  0
 34 35  2  0  0  0
 35 36  1  0  0  0
 36 37  2  0  0  0
 37 38  1  0  0  0
 38 39  2  0  0  0
 37 40  1  0  0  0
 40 41  1  0  0  0
 40 42  1  0  0  0
 40 43  1  0  0  0
  3 14  1  0  0  0
 14 15  1  0  0  0
 15 16  1  0  0  0
 16 17  1  0  0  0
 17 18  1  0  0  0
 18 19  1  0  0  0
 17 20  1  0  0  0
 20 21  2  0  0  0
 21 22  1  0  0  0
 22 23  2  0  0  0
 23 24  1  0  0  0
 24 25  1  0  0  0
 25 26  1  0  0  0
 26 27  2  0  0  0
 27 28  1  0  0  0
 13  8  1  0  0  0
  6  1  1  0  0  0
 39 34  1  0  0  0
 19 14  1  0  0  0
 28 20  1  0  0  0
 28 24  2  0  0  0
 32 33  1  0  0  0
 25 29  1  0  0  0
M  END
> <minimizedAffinity>
-3.70713

> <CNNscore>
0.2922212481

> <CNNaffinity>
5.9228315353

> <CNN_VS>
1.7307772636

> <CNNaffinity_variance>
0.6707199812

$$$$
[H]c1nc(N2C([H])([H])C([H])([H])N(c3nc(C(=O)N([H])c4c([H])c([H])c(C(F)(F)F)c([H])c4[H])nc(N4C([H])([H])C([H])([H])N(C([H])([H])[H])C([H])([H])C4([H])[H])c3[H])C([H])([H])C2([H])[H])c2c([H])c([H])n([H])c2n1


 43 48  0  0  0  0  0  0  0  0999 V2000
  155.0357  140.6037  183.6117 C   0  0  0  0  0  0  0  0  0  0  0  0
  154.0426  140.2777  182.7438 C   0  0  0  0  0  0  0  0  0  0  0  0
  153.2029  139.1922  183.0305 C   0  0  0  0  0  0  0  0  0  0  0  0
  153.4143  138.5065  184.1659 N   0  0  0  0  0  0  0  0  0  0  0  0
  154.3778  138.8233  185.0183 C   0  0  0  0  0  0  0  0  0  0  0  0
  155.1874  139.8915  184.7171 N   0  0  0  0  0  0  0  0  0  0  0  0
  158.6124  143.8936  181.0298 C   0  0  0  0  0  0  0  0  0  0  0  0
  157.5928  142.9660  181.5274 N   0  0  0  0  0  0  0  0  0  0  0  0
  158.2722  142.1506  182.5051 C   0  0  0  0  0  0  0  0  0  0  0  0
  157.3847  141.3475  183.3727 C   0  0  0  0  0  0  0  0  0  0  0  0
  155.9687  141.6784  183.2987 N   0  0  0  0  0  0  0  0  0  0  0  0
  155.5486  142.9739  182.9476 C   0  0  0  0  0  0  0  0  0  0  0  0
  156.5350  143.7512  182.1030 C   0  0  0  0  0  0  0  0  0  0  0  0
  152.1743  138.9346  182.1133 N   0  0  0  0  0  0  0  0  0  0  0  0
  152.1502  139.5663  180.8072 C   0  0  0  0  0  0  0  0  0  0  0  0
  151.4218  138.6467  179.8508 C   0  0  0  0  0  0  0  0  0  0  0  0
  150.0953  138.3244  180.3829 N   0  0  0  0  0  0  0  0  0  0  0  0
  149.8377  138.3500  181.8080 C   0  0  0  0  0  0  0  0  0  0  0  0
  151.1343  137.9737  182.5000 C   0  0  0  0  0  0  0  0  0  0  0  0
  149.0974  137.9525  179.4392 C   0  0  0  0  0  0  0  0  0  0  0  0
  148.8134  138.6976  178.3544 N   0  0  0  0  0  0  0  0  0  0  0  0
  147.8732  138.2894  177.4896 C   0  0  0  0  0  0  0  0  0  0  0  0
  147.1702  137.1540  177.6435 N   0  0  0  0  0  0  0  0  0  0  0  0
  147.4268  136.3736  178.7330 C   0  0  0  0  0  0  0  0  0  0  0  0
  146.8701  135.2119  179.1604 N   0  0  0  0  0  0  0  0  0  0  0  0
  147.4600  134.8471  180.3349 C   0  0  0  0  0  0  0  0  0  0  0  0
  148.3903  135.8215  180.6024 C   0  0  0  0  0  0  0  0  0  0  0  0
  148.3891  136.7820  179.6195 C   0  0  0  0  0  0  0  0  0  0  0  0
  146.1101  134.7151  178.6527 H   0  0  0  0  0  0  0  0  0  0  0  0
  154.7113  138.0911  186.2233 C   0  0  0  0  0  0  0  0  0  0  0  0
  153.8189  137.3420  186.6949 O   0  0  0  0  0  0  0  0  0  0  0  0
  155.9837  138.1950  186.8910 N   0  0  0  0  0  0  0  0  0  0  0  0
  156.7556  138.7553  186.5411 H   0  0  0  0  0  0  0  0  0  0  0  0
  156.0956  137.4409  188.0843 C   0  0  0  0  0  0  0  0  0  0  0  0
  156.5823  136.1541  188.0436 C   0  0  0  0  0  0  0  0  0  0  0  0
  156.7645  135.4963  189.2466 C   0  0  0  0  0  0  0  0  0  0  0  0
  156.4669  136.1138  190.4437 C   0  0  0  0  0  0  0  0  0  0  0  0
  155.9803  137.3913  190.4410 C   0  0  0  0  0  0  0  0  0  0  0  0
  155.7877  138.0732  189.2726 C   0  0  0  0  0  0  0  0  0  0  0  0
  156.7054  135.3969  191.7055 C   0  0  0  0  0  0  0  0  0  0  0  0
  157.7528  134.4880  191.5835 F   0  0  0  0  0  0  0  0  0  0  0  0
  157.0172  136.2778  192.7275 F   0  0  0  0  0  0  0  0  0  0  0  0
  155.5643  134.6694  192.0206 F   0  0  0  0  0  0  0  0  0  0  0  0
  7  8  1  0  0  0
  8  9  1  0  0  0
  9 10  1  0  0  0
 10 11  1  0  0  0
 11 12  1  0  0  0
 12 13  1  0  0  0
 11  1  1  0  0  0
  1  2  2  0  0  0
  2  3  1  0  0  0
  3  4  2  0  0  0
  4  5  1  0  0  0
  5  6  2  0  0  0
  5 30  1  0  0  0
 30 31  2  0  0  0
 30 32  1  0  0  0
 32 34  1  0  0  0
 34 35  2  0  0  0
 35 36  1  0  0  0
 36 37  2  0  0  0
 37 38  1  0  0  0
 38 39  2  0  0  0
 37 40  1  0  0  0
 40 41  1  0  0  0
 40 42  1  0  0  0
 40 43  1  0  0  0
  3 14  1  0  0  0
 14 15  1  0  0  0
 15 16  1  0  0  0
 16 17  1  0  0  0
 17 18  1  0  0  0
 18 19  1  0  0  0
 17 20  1  0  0  0
 20 21  2  0  0  0
 21 22  1  0  0  0
 22 23  2  0  0  0
 23 24  1  0  0  0
 24 25  1  0  0  0
 25 26  1  0  0  0
 26 27  2  0  0  0
 27 28  1  0  0  0
 13  8  1  0  0  0
  6  1  1  0  0  0
 39 34  1  0  0  0
 19 14  1  0  0  0
 28 20  1  0  0  0
 28 24  2  0  0  0
 32 33  1  0  0  0
 25 29  1  0  0  0
M  END
> <minimizedAffinity>
-8.71766

> <CNNscore>
0.2188770175

> <CNNaffinity>
6.5245833397

> <CNN_VS>
1.4280813932

> <CNNaffinity_variance>
0.0071140244

$$$$
[H]c1nc(N2C([H])([H])C([H])([H])N(c3nc(C(=O)N([H])c4c([H])c([H])c(C(F)(F)F)c([H])c4[H])nc(N4C([H])([H])C([H])([H])N(C([H])([H])[H])C([H])([H])C4([H])[H])c3[H])C([H])([H])C2([H])[H])c2c([H])c([H])n([H])c2n1


 43 48  0  0  0  0  0  0  0  0999 V2000
  153.6052  136.2346  184.4299 C   0  0  0  0  0  0  0  0  0  0  0  0
  153.4063  135.9752  185.7486 C   0  0  0  0  0  0  0  0  0  0  0  0
  153.8625  136.8889  186.7092 C   0  0  0  0  0  0  0  0  0  0  0  0
  154.4870  137.9998  186.2849 N   0  0  0  0  0  0  0  0  0  0  0  0
  154.6790  138.2602  185.0002 C   0  0  0  0  0  0  0  0  0  0  0  0
  154.2223  137.3512  184.0769 N   0  0  0  0  0  0  0  0  0  0  0  0
  150.6721  132.8317  181.2521 C   0  0  0  0  0  0  0  0  0  0  0  0
  151.2747  133.8408  182.1272 N   0  0  0  0  0  0  0  0  0  0  0  0
  152.0586  133.0918  183.0797 C   0  0  0  0  0  0  0  0  0  0  0  0
  153.0102  133.8968  183.8746 C   0  0  0  0  0  0  0  0  0  0  0  0
  153.2092  135.2647  183.4172 N   0  0  0  0  0  0  0  0  0  0  0  0
  153.0288  135.6059  182.0647 C   0  0  0  0  0  0  0  0  0  0  0  0
  152.0806  134.7026  181.3058 C   0  0  0  0  0  0  0  0  0  0  0  0
  153.5898  136.5798  188.0493 N   0  0  0  0  0  0  0  0  0  0  0  0
  154.6423  136.1680  188.9594 C   0  0  0  0  0  0  0  0  0  0  0  0
  154.2398  136.5724  190.3613 C   0  0  0  0  0  0  0  0  0  0  0  0
  152.9224  136.0168  190.6811 N   0  0  0  0  0  0  0  0  0  0  0  0
  151.9641  135.7226  189.6356 C   0  0  0  0  0  0  0  0  0  0  0  0
  152.2061  136.7200  188.5184 C   0  0  0  0  0  0  0  0  0  0  0  0
  152.6251  135.8203  192.0586 C   0  0  0  0  0  0  0  0  0  0  0  0
  152.2345  136.8248  192.8654 N   0  0  0  0  0  0  0  0  0  0  0  0
  151.9517  136.5778  194.1528 C   0  0  0  0  0  0  0  0  0  0  0  0
  152.0420  135.3572  194.7085 N   0  0  0  0  0  0  0  0  0  0  0  0
  152.4385  134.3137  193.9236 C   0  0  0  0  0  0  0  0  0  0  0  0
  152.6448  133.0021  194.2051 N   0  0  0  0  0  0  0  0  0  0  0  0
  153.0728  132.3713  193.0740 C   0  0  0  0  0  0  0  0  0  0  0  0
  153.1166  133.3401  192.1015 C   0  0  0  0  0  0  0  0  0  0  0  0
  152.7255  134.5573  192.6056 C   0  0  0  0  0  0  0  0  0  0  0  0
  152.4997  132.5842  195.1466 H   0  0  0  0  0  0  0  0  0  0  0  0
  155.4034  139.3975  184.4699 C   0  0  0  0  0  0  0  0  0  0  0  0
  154.7195  140.3981  184.1368 O   0  0  0  0  0  0  0  0  0  0  0  0
  156.8340  139.4212  184.3014 N   0  0  0  0  0  0  0  0  0  0  0  0
  157.4438  138.6591  184.5832 H   0  0  0  0  0  0  0  0  0  0  0  0
  157.3471  140.6046  183.7168 C   0  0  0  0  0  0  0  0  0  0  0  0
  156.9648  140.9671  182.4453 C   0  0  0  0  0  0  0  0  0  0  0  0
  157.4162  142.1807  181.9587 C   0  0  0  0  0  0  0  0  0  0  0  0
  158.2220  142.9959  182.7261 C   0  0  0  0  0  0  0  0  0  0  0  0
  158.5838  142.5970  183.9825 C   0  0  0  0  0  0  0  0  0  0  0  0
  158.1570  141.4054  184.4975 C   0  0  0  0  0  0  0  0  0  0  0  0
  158.6553  144.2950  182.1898 C   0  0  0  0  0  0  0  0  0  0  0  0
  159.0672  144.1859  180.8645 F   0  0  0  0  0  0  0  0  0  0  0  0
  157.6301  145.2241  182.2464 F   0  0  0  0  0  0  0  0  0  0  0  0
  159.7497  144.7319  182.9259 F   0  0  0  0  0  0  0  0  0  0  0  0
  7  8  1  0  0  0
  8  9  1  0  0  0
  9 10  1  0  0  0
 10 11  1  0  0  0
 11 12  1  0  0  0
 12 13  1  0  0  0
 11  1  1  0  0  0
  1  2  2  0  0  0
  2  3  1  0  0  0
  3  4  2  0  0  0
  4  5  1  0  0  0
  5  6  2  0  0  0
  5 30  1  0  0  0
 30 31  2  0  0  0
 30 32  1  0  0  0
 32 34  1  0  0  0
 34 35  2  0  0  0
 35 36  1  0  0  0
 36 37  2  0  0  0
 37 38  1  0  0  0
 38 39  2  0  0  0
 37 40  1  0  0  0
 40 41  1  0  0  0
 40 42  1  0  0  0
 40 43  1  0  0  0
  3 14  1  0  0  0
 14 15  1  0  0  0
 15 16  1  0  0  0
 16 17  1  0  0  0
 17 18  1  0  0  0
 18 19  1  0  0  0
 17 20  1  0  0  0
 20 21  2  0  0  0
 21 22  1  0  0  0
 22 23  2  0  0  0
 23 24  1  0  0  0
 24 25  1  0  0  0
 25 26  1  0  0  0
 26 27  2  0  0  0
 27 28  1  0  0  0
 13  8  1  0  0  0
  6  1  1  0  0  0
 39 34  1  0  0  0
 19 14  1  0  0  0
 28 20  1  0  0  0
 28 24  2  0  0  0
 32 33  1  0  0  0
 25 29  1  0  0  0
M  END
> <minimizedAffinity>
-7.20968

> <CNNscore>
0.1389193684

> <CNNaffinity>
6.1851825714

> <CNN_VS>
0.8592416644

> <CNNaffinity_variance>
0.0796540454

$$$$
[H]c1nc(N2C([H])([H])C([H])([H])N(c3nc(C(=O)N([H])c4c([H])c([H])c(C(F)(F)F)c([H])c4[H])nc(N4C([H])([H])C([H])([H])N(C([H])([H])[H])C([H])([H])C4([H])[H])c3[H])C([H])([H])C2([H])[H])c2c([H])c([H])n([H])c2n1


 43 48  0  0  0  0  0  0  0  0999 V2000
  152.7973  135.6291  183.5166 C   0  0  0  0  0  0  0  0  0  0  0  0
  152.3575  135.3635  184.7743 C   0  0  0  0  0  0  0  0  0  0  0  0
  152.5409  136.3165  185.7861 C   0  0  0  0  0  0  0  0  0  0  0  0
  153.1522  137.4702  185.4707 N   0  0  0  0  0  0  0  0  0  0  0  0
  153.5782  137.7364  184.2448 C   0  0  0  0  0  0  0  0  0  0  0  0
  153.3866  136.7883  183.2693 N   0  0  0  0  0  0  0  0  0  0  0  0
  153.7664  131.3544  180.1894 C   0  0  0  0  0  0  0  0  0  0  0  0
  153.6288  132.3938  181.2132 N   0  0  0  0  0  0  0  0  0  0  0  0
  153.8692  133.6369  180.5208 C   0  0  0  0  0  0  0  0  0  0  0  0
  153.4816  134.8521  181.2680 C   0  0  0  0  0  0  0  0  0  0  0  0
  152.6874  134.6244  182.4669 N   0  0  0  0  0  0  0  0  0  0  0  0
  151.8615  133.4915  182.5799 C   0  0  0  0  0  0  0  0  0  0  0  0
  152.2955  132.3068  181.7439 C   0  0  0  0  0  0  0  0  0  0  0  0
  152.0285  135.9958  187.0512 N   0  0  0  0  0  0  0  0  0  0  0  0
  152.8440  135.3315  188.0508 C   0  0  0  0  0  0  0  0  0  0  0  0
  152.3338  135.7313  189.4186 C   0  0  0  0  0  0  0  0  0  0  0  0
  150.9027  135.4356  189.5225 N   0  0  0  0  0  0  0  0  0  0  0  0
  150.0621  135.3979  188.3435 C   0  0  0  0  0  0  0  0  0  0  0  0
  150.6456  136.3858  187.3509 C   0  0  0  0  0  0  0  0  0  0  0  0
  150.3828  135.2279  190.8306 C   0  0  0  0  0  0  0  0  0  0  0  0
  149.3867  134.3583  191.0841 N   0  0  0  0  0  0  0  0  0  0  0  0
  148.9473  134.1917  192.3401 C   0  0  0  0  0  0  0  0  0  0  0  0
  149.4471  134.8614  193.3931 N   0  0  0  0  0  0  0  0  0  0  0  0
  150.4553  135.7548  193.1758 C   0  0  0  0  0  0  0  0  0  0  0  0
  151.1253  136.5801  194.0196 N   0  0  0  0  0  0  0  0  0  0  0  0
  152.0283  137.3064  193.3002 C   0  0  0  0  0  0  0  0  0  0  0  0
  151.8851  136.8936  191.9981 C   0  0  0  0  0  0  0  0  0  0  0  0
  150.9128  135.9278  191.8953 C   0  0  0  0  0  0  0  0  0  0  0  0
  150.9436  136.6305  195.0427 H   0  0  0  0  0  0  0  0  0  0  0  0
  154.3064  138.9235  183.8449 C   0  0  0  0  0  0  0  0  0  0  0  0
  153.9921  139.4343  182.7403 O   0  0  0  0  0  0  0  0  0  0  0  0
  155.3556  139.5168  184.6341 N   0  0  0  0  0  0  0  0  0  0  0  0
  155.6314  139.1720  185.5491 H   0  0  0  0  0  0  0  0  0  0  0  0
  155.9824  140.6420  184.0455 C   0  0  0  0  0  0  0  0  0  0  0  0
  157.2642  140.5390  183.5551 C   0  0  0  0  0  0  0  0  0  0  0  0
  157.7939  141.6372  182.9019 C   0  0  0  0  0  0  0  0  0  0  0  0
  157.0578  142.7939  182.7500 C   0  0  0  0  0  0  0  0  0  0  0  0
  155.7896  142.8578  183.2564 C   0  0  0  0  0  0  0  0  0  0  0  0
  155.2325  141.7932  183.9070 C   0  0  0  0  0  0  0  0  0  0  0  0
  157.6399  143.9302  182.0200 C   0  0  0  0  0  0  0  0  0  0  0  0
  157.6046  143.7221  180.6440 F   0  0  0  0  0  0  0  0  0  0  0  0
  156.9557  145.1022  182.2954 F   0  0  0  0  0  0  0  0  0  0  0  0
  158.9756  144.0491  182.3837 F   0  0  0  0  0  0  0  0  0  0  0  0
  7  8  1  0  0  0
  8  9  1  0  0  0
  9 10  1  0  0  0
 10 11  1  0  0  0
 11 12  1  0  0  0
 12 13  1  0  0  0
 11  1  1  0  0  0
  1  2  2  0  0  0
  2  3  1  0  0  0
  3  4  2  0  0  0
  4  5  1  0  0  0
  5  6  2  0  0  0
  5 30  1  0  0  0
 30 31  2  0  0  0
 30 32  1  0  0  0
 32 34  1  0  0  0
 34 35  2  0  0  0
 35 36  1  0  0  0
 36 37  2  0  0  0
 37 38  1  0  0  0
 38 39  2  0  0  0
 37 40  1  0  0  0
 40 41  1  0  0  0
 40 42  1  0  0  0
 40 43  1  0  0  0
  3 14  1  0  0  0
 14 15  1  0  0  0
 15 16  1  0  0  0
 16 17  1  0  0  0
 17 18  1  0  0  0
 18 19  1  0  0  0
 17 20  1  0  0  0
 20 21  2  0  0  0
 21 22  1  0  0  0
 22 23  2  0  0  0
 23 24  1  0  0  0
 24 25  1  0  0  0
 25 26  1  0  0  0
 26 27  2  0  0  0
 27 28  1  0  0  0
 13  8  1  0  0  0
  6  1  1  0  0  0
 39 34  1  0  0  0
 19 14  1  0  0  0
 28 20  1  0  0  0
 28 24  2  0  0  0
 32 33  1  0  0  0
 25 29  1  0  0  0
M  END
> <minimizedAffinity>
-7.45023

> <CNNscore>
0.1239269674

> <CNNaffinity>
5.9428586960

> <CNN_VS>
0.7364804745

> <CNNaffinity_variance>
0.0164856128

$$$$
[H]c1nc(N2C([H])([H])C([H])([H])N(c3nc(C(=O)N([H])c4c([H])c([H])c(C(F)(F)F)c([H])c4[H])nc(N4C([H])([H])C([H])([H])N(C([H])([H])[H])C([H])([H])C4([H])[H])c3[H])C([H])([H])C2([H])[H])c2c([H])c([H])n([H])c2n1


 43 48  0  0  0  0  0  0  0  0999 V2000
  154.1754  137.6336  186.3640 C   0  0  0  0  0  0  0  0  0  0  0  0
  153.2477  136.9549  185.6397 C   0  0  0  0  0  0  0  0  0  0  0  0
  153.0622  137.2695  184.2862 C   0  0  0  0  0  0  0  0  0  0  0  0
  153.8173  138.2422  183.7495 N   0  0  0  0  0  0  0  0  0  0  0  0
  154.7269  138.9035  184.4498 C   0  0  0  0  0  0  0  0  0  0  0  0
  154.8920  138.5772  185.7740 N   0  0  0  0  0  0  0  0  0  0  0  0
  156.3012  136.9488  191.3934 C   0  0  0  0  0  0  0  0  0  0  0  0
  155.9016  137.2499  190.0160 N   0  0  0  0  0  0  0  0  0  0  0  0
  155.5416  135.9755  189.4425 C   0  0  0  0  0  0  0  0  0  0  0  0
  154.8092  136.0530  188.1607 C   0  0  0  0  0  0  0  0  0  0  0  0
  154.3327  137.3779  187.7900 N   0  0  0  0  0  0  0  0  0  0  0  0
  154.0407  138.3401  188.7733 C   0  0  0  0  0  0  0  0  0  0  0  0
  154.7916  138.1616  190.0752 C   0  0  0  0  0  0  0  0  0  0  0  0
  152.1176  136.5047  183.5874 N   0  0  0  0  0  0  0  0  0  0  0  0
  152.2376  135.0621  183.4874 C   0  0  0  0  0  0  0  0  0  0  0  0
  150.8481  134.4818  183.3343 C   0  0  0  0  0  0  0  0  0  0  0  0
  150.1707  135.1052  182.1945 N   0  0  0  0  0  0  0  0  0  0  0  0
  150.5245  136.4398  181.7565 C   0  0  0  0  0  0  0  0  0  0  0  0
  150.9764  137.2050  182.9860 C   0  0  0  0  0  0  0  0  0  0  0  0
  149.1342  134.3539  181.5735 C   0  0  0  0  0  0  0  0  0  0  0  0
  147.8560  134.3987  181.9940 N   0  0  0  0  0  0  0  0  0  0  0  0
  146.9173  133.6810  181.3599 C   0  0  0  0  0  0  0  0  0  0  0  0
  147.1785  132.8909  180.3042 N   0  0  0  0  0  0  0  0  0  0  0  0
  148.4633  132.8161  179.8508 C   0  0  0  0  0  0  0  0  0  0  0  0
  149.0234  132.0971  178.8450 N   0  0  0  0  0  0  0  0  0  0  0  0
  150.3635  132.3496  178.8170 C   0  0  0  0  0  0  0  0  0  0  0  0
  150.5952  133.2435  179.8337 C   0  0  0  0  0  0  0  0  0  0  0  0
  149.4279  133.5498  180.4911 C   0  0  0  0  0  0  0  0  0  0  0  0
  148.4864  131.4585  178.2238 H   0  0  0  0  0  0  0  0  0  0  0  0
  155.5267  140.0087  183.9617 C   0  0  0  0  0  0  0  0  0  0  0  0
  155.0176  141.1550  184.0448 O   0  0  0  0  0  0  0  0  0  0  0  0
  156.8389  139.8492  183.3888 N   0  0  0  0  0  0  0  0  0  0  0  0
  157.3175  138.9552  183.3256 H   0  0  0  0  0  0  0  0  0  0  0  0
  157.4358  141.0449  182.9206 C   0  0  0  0  0  0  0  0  0  0  0  0
  157.0151  141.6081  181.7374 C   0  0  0  0  0  0  0  0  0  0  0  0
  157.5600  142.8266  181.3747 C   0  0  0  0  0  0  0  0  0  0  0  0
  158.4931  143.4517  182.1756 C   0  0  0  0  0  0  0  0  0  0  0  0
  158.8887  142.8566  183.3409 C   0  0  0  0  0  0  0  0  0  0  0  0
  158.3722  141.6536  183.7326 C   0  0  0  0  0  0  0  0  0  0  0  0
  159.0260  144.7629  181.7759 C   0  0  0  0  0  0  0  0  0  0  0  0
  158.0244  145.7292  181.7402 F   0  0  0  0  0  0  0  0  0  0  0  0
  160.0058  145.1914  182.6556 F   0  0  0  0  0  0  0  0  0  0  0  0
  159.5396  144.6555  180.4894 F   0  0  0  0  0  0  0  0  0  0  0  0
  7  8  1  0  0  0
  8  9  1  0  0  0
  9 10  1  0  0  0
 10 11  1  0  0  0
 11 12  1  0  0  0
 12 13  1  0  0  0
 11  1  1  0  0  0
  1  2  2  0  0  0
  2  3  1  0  0  0
  3  4  2  0  0  0
  4  5  1  0  0  0
  5  6  2  0  0  0
  5 30  1  0  0  0
 30 31  2  0  0  0
 30 32  1  0  0  0
 32 34  1  0  0  0
 34 35  2  0  0  0
 35 36  1  0  0  0
 36 37  2  0  0  0
 37 38  1  0  0  0
 38 39  2  0  0  0
 37 40  1  0  0  0
 40 41  1  0  0  0
 40 42  1  0  0  0
 40 43  1  0  0  0
  3 14  1  0  0  0
 14 15  1  0  0  0
 15 16  1  0  0  0
 16 17  1  0  0  0
 17 18  1  0  0  0
 18 19  1  0  0  0
 17 20  1  0  0  0
 20 21  2  0  0  0
 21 22  1  0  0  0
 22 23  2  0  0  0
 23 24  1  0  0  0
 24 25  1  0  0  0
 25 26  1  0  0  0
 26 27  2  0  0  0
 27 28  1  0  0  0
 13  8  1  0  0  0
  6  1  1  0  0  0
 39 34  1  0  0  0
 19 14  1  0  0  0
 28 20  1  0  0  0
 28 24  2  0  0  0
 32 33  1  0  0  0
 25 29  1  0  0  0
M  END
> <minimizedAffinity>
-7.07359

> <CNNscore>
0.1195152029

> <CNNaffinity>
6.3881664276

> <CNN_VS>
0.7634829879

> <CNNaffinity_variance>
0.0591798425

$$$$
[H]c1nc(N2C([H])([H])C([H])([H])N(c3nc(C(=O)N([H])c4c([H])c([H])c(C(F)(F)F)c([H])c4[H])nc(N4C([H])([H])C([H])([H])N(C([H])([H])[H])C([H])([H])C4([H])[H])c3[H])C([H])([H])C2([H])[H])c2c([H])c([H])n([H])c2n1


 43 48  0  0  0  0  0  0  0  0999 V2000
  152.2508  138.2186  182.4761 C   0  0  0  0  0  0  0  0  0  0  0  0
  153.2498  139.1388  182.4453 C   0  0  0  0  0  0  0  0  0  0  0  0
  154.0516  139.3267  183.5799 C   0  0  0  0  0  0  0  0  0  0  0  0
  153.7990  138.5813  184.6684 N   0  0  0  0  0  0  0  0  0  0  0  0
  152.8296  137.6788  184.7021 C   0  0  0  0  0  0  0  0  0  0  0  0
  152.0576  137.5112  183.5782 N   0  0  0  0  0  0  0  0  0  0  0  0
  147.8290  138.2604  179.2008 C   0  0  0  0  0  0  0  0  0  0  0  0
  148.9135  138.4044  180.1757 N   0  0  0  0  0  0  0  0  0  0  0  0
  149.2001  137.0615  180.6196 C   0  0  0  0  0  0  0  0  0  0  0  0
  150.4640  136.9093  181.3710 C   0  0  0  0  0  0  0  0  0  0  0  0
  151.3560  138.0596  181.3371 N   0  0  0  0  0  0  0  0  0  0  0  0
  151.3407  138.9518  180.2499 C   0  0  0  0  0  0  0  0  0  0  0  0
  150.0276  139.0114  179.4995 C   0  0  0  0  0  0  0  0  0  0  0  0
  155.0891  140.2630  183.4677 N   0  0  0  0  0  0  0  0  0  0  0  0
  154.8372  141.6206  183.0215 C   0  0  0  0  0  0  0  0  0  0  0  0
  155.8860  142.5223  183.6363 C   0  0  0  0  0  0  0  0  0  0  0  0
  157.2246  142.0247  183.3090 N   0  0  0  0  0  0  0  0  0  0  0  0
  157.4506  140.6211  183.0322 C   0  0  0  0  0  0  0  0  0  0  0  0
  156.4410  139.8391  183.8513 C   0  0  0  0  0  0  0  0  0  0  0  0
  158.2829  142.9757  183.3153 C   0  0  0  0  0  0  0  0  0  0  0  0
  158.3573  143.9820  182.4240 N   0  0  0  0  0  0  0  0  0  0  0  0
  159.3698  144.8590  182.4878 C   0  0  0  0  0  0  0  0  0  0  0  0
  160.3483  144.7929  183.4071 N   0  0  0  0  0  0  0  0  0  0  0  0
  160.3098  143.7844  184.3255 C   0  0  0  0  0  0  0  0  0  0  0  0
  161.1548  143.4516  185.3342 N   0  0  0  0  0  0  0  0  0  0  0  0
  160.6851  142.3284  185.9492 C   0  0  0  0  0  0  0  0  0  0  0  0
  159.5309  141.9946  185.2836 C   0  0  0  0  0  0  0  0  0  0  0  0
  159.2758  142.8863  184.2695 C   0  0  0  0  0  0  0  0  0  0  0  0
  162.0178  143.9851  185.5638 H   0  0  0  0  0  0  0  0  0  0  0  0
  152.4522  136.8902  185.8574 C   0  0  0  0  0  0  0  0  0  0  0  0
  152.9063  135.7195  185.9156 O   0  0  0  0  0  0  0  0  0  0  0  0
  151.5910  137.3757  186.9054 N   0  0  0  0  0  0  0  0  0  0  0  0
  151.2210  138.3215  186.9330 H   0  0  0  0  0  0  0  0  0  0  0  0
  151.2971  136.4341  187.9214 C   0  0  0  0  0  0  0  0  0  0  0  0
  152.1241  136.3199  189.0156 C   0  0  0  0  0  0  0  0  0  0  0  0
  151.7399  135.4567  190.0258 C   0  0  0  0  0  0  0  0  0  0  0  0
  150.5665  134.7372  189.9344 C   0  0  0  0  0  0  0  0  0  0  0  0
  149.7752  134.8750  188.8283 C   0  0  0  0  0  0  0  0  0  0  0  0
  150.1214  135.7184  187.8105 C   0  0  0  0  0  0  0  0  0  0  0  0
  150.1720  133.8545  191.0427 C   0  0  0  0  0  0  0  0  0  0  0  0
  149.4051  132.7839  190.5914 F   0  0  0  0  0  0  0  0  0  0  0  0
  151.2832  133.3439  191.6924 F   0  0  0  0  0  0  0  0  0  0  0  0
  149.3833  134.5821  191.9253 F   0  0  0  0  0  0  0  0  0  0  0  0
  7  8  1  0  0  0
  8  9  1  0  0  0
  9 10  1  0  0  0
 10 11  1  0  0  0
 11 12  1  0  0  0
 12 13  1  0  0  0
 11  1  1  0  0  0
  1  2  2  0  0  0
  2  3  1  0  0  0
  3  4  2  0  0  0
  4  5  1  0  0  0
  5  6  2  0  0  0
  5 30  1  0  0  0
 30 31  2  0  0  0
 30 32  1  0  0  0
 32 34  1  0  0  0
 34 35  2  0  0  0
 35 36  1  0  0  0
 36 37  2  0  0  0
 37 38  1  0  0  0
 38 39  2  0  0  0
 37 40  1  0  0  0
 40 41  1  0  0  0
 40 42  1  0  0  0
 40 43  1  0  0  0
  3 14  1  0  0  0
 14 15  1  0  0  0
 15 16  1  0  0  0
 16 17  1  0  0  0
 17 18  1  0  0  0
 18 19  1  0  0  0
 17 20  1  0  0  0
 20 21  2  0  0  0
 21 22  1  0  0  0
 22 23  2  0  0  0
 23 24  1  0  0  0
 24 25  1  0  0  0
 25 26  1  0  0  0
 26 27  2  0  0  0
 27 28  1  0  0  0
 13  8  1  0  0  0
  6  1  1  0  0  0
 39 34  1  0  0  0
 19 14  1  0  0  0
 28 20  1  0  0  0
 28 24  2  0  0  0
 32 33  1  0  0  0
 25 29  1  0  0  0
M  END
> <minimizedAffinity>
-7.93110

> <CNNscore>
0.1149493530

> <CNNaffinity>
6.5557861328

> <CNN_VS>
0.7535833716

> <CNNaffinity_variance>
0.0558852553

$$$$
[H]c1nc(N2C([H])([H])C([H])([H])N(c3nc(C(=O)N([H])c4c([H])c([H])c(C(F)(F)F)c([H])c4[H])nc(N4C([H])([H])C([H])([H])N(C([H])([H])[H])C([H])([H])C4([H])[H])c3[H])C([H])([H])C2([H])[H])c2c([H])c([H])n([H])c2n1


 43 48  0  0  0  0  0  0  0  0999 V2000
  153.9897  136.6785  186.7396 C   0  0  0  0  0  0  0  0  0  0  0  0
  152.9942  136.1329  185.9931 C   0  0  0  0  0  0  0  0  0  0  0  0
  152.7843  136.5870  184.6834 C   0  0  0  0  0  0  0  0  0  0  0  0
  153.5844  137.5565  184.2100 N   0  0  0  0  0  0  0  0  0  0  0  0
  154.5599  138.0882  184.9317 C   0  0  0  0  0  0  0  0  0  0  0  0
  154.7477  137.6266  186.2119 N   0  0  0  0  0  0  0  0  0  0  0  0
  153.1504  134.8032  191.8446 C   0  0  0  0  0  0  0  0  0  0  0  0
  153.2115  135.1844  190.4310 N   0  0  0  0  0  0  0  0  0  0  0  0
  153.3304  136.6226  190.4348 C   0  0  0  0  0  0  0  0  0  0  0  0
  153.7218  137.2196  189.1404 C   0  0  0  0  0  0  0  0  0  0  0  0
  154.1778  136.2778  188.1279 N   0  0  0  0  0  0  0  0  0  0  0  0
  154.7705  135.0561  188.4947 C   0  0  0  0  0  0  0  0  0  0  0  0
  154.3594  134.5375  189.8559 C   0  0  0  0  0  0  0  0  0  0  0  0
  151.7670  135.9545  183.9549 N   0  0  0  0  0  0  0  0  0  0  0  0
  151.6436  136.1301  182.5198 C   0  0  0  0  0  0  0  0  0  0  0  0
  150.9945  134.8891  181.9460 C   0  0  0  0  0  0  0  0  0  0  0  0
  149.7234  134.6313  182.6276 N   0  0  0  0  0  0  0  0  0  0  0  0
  149.4995  135.0872  183.9840 C   0  0  0  0  0  0  0  0  0  0  0  0
  150.8454  135.0750  184.6840 C   0  0  0  0  0  0  0  0  0  0  0  0
  148.7482  133.8855  181.9082 C   0  0  0  0  0  0  0  0  0  0  0  0
  148.3591  132.6522  182.2824 N   0  0  0  0  0  0  0  0  0  0  0  0
  147.4235  132.0022  181.5749 C   0  0  0  0  0  0  0  0  0  0  0  0
  146.8360  132.5146  180.4798 N   0  0  0  0  0  0  0  0  0  0  0  0
  147.2068  133.7612  180.0667 C   0  0  0  0  0  0  0  0  0  0  0  0
  146.8181  134.5111  179.0043 N   0  0  0  0  0  0  0  0  0  0  0  0
  147.5150  135.6835  179.0145 C   0  0  0  0  0  0  0  0  0  0  0  0
  148.3339  135.6200  180.1154 C   0  0  0  0  0  0  0  0  0  0  0  0
  148.1597  134.4337  180.7869 C   0  0  0  0  0  0  0  0  0  0  0  0
  146.1081  134.2027  178.3092 H   0  0  0  0  0  0  0  0  0  0  0  0
  155.4151  139.1818  184.5171 C   0  0  0  0  0  0  0  0  0  0  0  0
  156.5264  139.2814  185.0960 O   0  0  0  0  0  0  0  0  0  0  0  0
  155.0474  140.1402  183.5061 N   0  0  0  0  0  0  0  0  0  0  0  0
  154.1801  140.0933  182.9791 H   0  0  0  0  0  0  0  0  0  0  0  0
  155.9975  141.1659  183.2816 C   0  0  0  0  0  0  0  0  0  0  0  0
  157.1668  141.1934  184.0070 C   0  0  0  0  0  0  0  0  0  0  0  0
  158.1043  142.1568  183.6810 C   0  0  0  0  0  0  0  0  0  0  0  0
  157.8700  143.0569  182.6624 C   0  0  0  0  0  0  0  0  0  0  0  0
  156.6933  142.9997  181.9690 C   0  0  0  0  0  0  0  0  0  0  0  0
  155.7437  142.0618  182.2619 C   0  0  0  0  0  0  0  0  0  0  0  0
  158.9034  144.0459  182.3202 C   0  0  0  0  0  0  0  0  0  0  0  0
  158.3576  145.3166  182.1602 F   0  0  0  0  0  0  0  0  0  0  0  0
  159.8725  144.1153  183.3069 F   0  0  0  0  0  0  0  0  0  0  0  0
  159.4712  143.6862  181.1042 F   0  0  0  0  0  0  0  0  0  0  0  0
  7  8  1  0  0  0
  8  9  1  0  0  0
  9 10  1  0  0  0
 10 11  1  0  0  0
 11 12  1  0  0  0
 12 13  1  0  0  0
 11  1  1  0  0  0
  1  2  2  0  0  0
  2  3  1  0  0  0
  3  4  2  0  0  0
  4  5  1  0  0  0
  5  6  2  0  0  0
  5 30  1  0  0  0
 30 31  2  0  0  0
 30 32  1  0  0  0
 32 34  1  0  0  0
 34 35  2  0  0  0
 35 36  1  0  0  0
 36 37  2  0  0  0
 37 38  1  0  0  0
 38 39  2  0  0  0
 37 40  1  0  0  0
 40 41  1  0  0  0
 40 42  1  0  0  0
 40 43  1  0  0  0
  3 14  1  0  0  0
 14 15  1  0  0  0
 15 16  1  0  0  0
 16 17  1  0  0  0
 17 18  1  0  0  0
 18 19  1  0  0  0
 17 20  1  0  0  0
 20 21  2  0  0  0
 21 22  1  0  0  0
 22 23  2  0  0  0
 23 24  1  0  0  0
 24 25  1  0  0  0
 25 26  1  0  0  0
 26 27  2  0  0  0
 27 28  1  0  0  0
 13  8  1  0  0  0
  6  1  1  0  0  0
 39 34  1  0  0  0
 19 14  1  0  0  0
 28 20  1  0  0  0
 28 24  2  0  0  0
 32 33  1  0  0  0
 25 29  1  0  0  0
M  END
> <minimizedAffinity>
-6.42626

> <CNNscore>
0.1109701246

> <CNNaffinity>
6.1471166611

> <CNN_VS>
0.6821463108

> <CNNaffinity_variance>
0.1445434541

$$$$
[H]c1nc(N2C([H])([H])C([H])([H])N(c3nc(C(=O)N([H])c4c([H])c([H])c(C(F)(F)F)c([H])c4[H])nc(N4C([H])([H])C([H])([H])N(C([H])([H])[H])C([H])([H])C4([H])[H])c3[H])C([H])([H])C2([H])[H])c2c([H])c([H])n([H])c2n1


 43 48  0  0  0  0  0  0  0  0999 V2000
  153.9586  137.2443  186.1859 C   0  0  0  0  0  0  0  0  0  0  0  0
  154.7585  138.2378  185.7180 C   0  0  0  0  0  0  0  0  0  0  0  0
  154.5588  138.7332  184.4218 C   0  0  0  0  0  0  0  0  0  0  0  0
  153.5725  138.2005  183.6817 N   0  0  0  0  0  0  0  0  0  0  0  0
  152.7862  137.2353  184.1349 C   0  0  0  0  0  0  0  0  0  0  0  0
  152.9998  136.7664  185.4084 N   0  0  0  0  0  0  0  0  0  0  0  0
  155.2530  136.5487  191.4890 C   0  0  0  0  0  0  0  0  0  0  0  0
  154.8716  136.9323  190.1271 N   0  0  0  0  0  0  0  0  0  0  0  0
  155.9027  136.3835  189.2798 C   0  0  0  0  0  0  0  0  0  0  0  0
  155.5815  136.3676  187.8369 C   0  0  0  0  0  0  0  0  0  0  0  0
  154.1956  136.6605  187.4998 N   0  0  0  0  0  0  0  0  0  0  0  0
  153.1584  136.3806  188.4076 C   0  0  0  0  0  0  0  0  0  0  0  0
  153.5784  136.3632  189.8616 C   0  0  0  0  0  0  0  0  0  0  0  0
  155.3927  139.7847  184.0159 N   0  0  0  0  0  0  0  0  0  0  0  0
  156.6620  140.0391  184.6714 C   0  0  0  0  0  0  0  0  0  0  0  0
  157.5909  140.6869  183.6673 C   0  0  0  0  0  0  0  0  0  0  0  0
  156.9594  141.8829  183.1039 N   0  0  0  0  0  0  0  0  0  0  0  0
  155.5174  142.0055  183.0430 C   0  0  0  0  0  0  0  0  0  0  0  0
  154.9595  140.6044  182.8780 C   0  0  0  0  0  0  0  0  0  0  0  0
  157.8275  142.8872  182.5917 C   0  0  0  0  0  0  0  0  0  0  0  0
  158.3070  143.8875  183.3547 N   0  0  0  0  0  0  0  0  0  0  0  0
  159.1352  144.7977  182.8217 C   0  0  0  0  0  0  0  0  0  0  0  0
  159.5242  144.7796  181.5352 N   0  0  0  0  0  0  0  0  0  0  0  0
  159.0561  143.7832  180.7288 C   0  0  0  0  0  0  0  0  0  0  0  0
  159.2474  143.5268  179.4098 N   0  0  0  0  0  0  0  0  0  0  0  0
  158.5276  142.4199  179.0678 C   0  0  0  0  0  0  0  0  0  0  0  0
  157.8984  142.0146  180.2194 C   0  0  0  0  0  0  0  0  0  0  0  0
  158.2123  142.8467  181.2671 C   0  0  0  0  0  0  0  0  0  0  0  0
  159.8451  144.1099  178.7894 H   0  0  0  0  0  0  0  0  0  0  0  0
  151.7516  136.5642  183.3743 C   0  0  0  0  0  0  0  0  0  0  0  0
  150.8097  136.0520  184.0303 O   0  0  0  0  0  0  0  0  0  0  0  0
  151.7661  136.4521  181.9380 N   0  0  0  0  0  0  0  0  0  0  0  0
  152.4799  136.8734  181.3506 H   0  0  0  0  0  0  0  0  0  0  0  0
  150.6928  135.7116  181.3857 C   0  0  0  0  0  0  0  0  0  0  0  0
  149.5672  136.3620  180.9337 C   0  0  0  0  0  0  0  0  0  0  0  0
  148.5908  135.6035  180.3135 C   0  0  0  0  0  0  0  0  0  0  0  0
  148.7452  134.2418  180.1561 C   0  0  0  0  0  0  0  0  0  0  0  0
  149.8760  133.6326  180.6239 C   0  0  0  0  0  0  0  0  0  0  0  0
  150.8624  134.3489  181.2413 C   0  0  0  0  0  0  0  0  0  0  0  0
  147.7023  133.4719  179.4613 C   0  0  0  0  0  0  0  0  0  0  0  0
  148.2407  132.6922  178.4414 F   0  0  0  0  0  0  0  0  0  0  0  0
  147.0356  132.6326  180.3380 F   0  0  0  0  0  0  0  0  0  0  0  0
  146.8154  134.3645  178.8720 F   0  0  0  0  0  0  0  0  0  0  0  0
  7  8  1  0  0  0
  8  9  1  0  0  0
  9 10  1  0  0  0
 10 11  1  0  0  0
 11 12  1  0  0  0
 12 13  1  0  0  0
 11  1  1  0  0  0
  1  2  2  0  0  0
  2  3  1  0  0  0
  3  4  2  0  0  0
  4  5  1  0  0  0
  5  6  2  0  0  0
  5 30  1  0  0  0
 30 31  2  0  0  0
 30 32  1  0  0  0
 32 34  1  0  0  0
 34 35  2  0  0  0
 35 36  1  0  0  0
 36 37  2  0  0  0
 37 38  1  0  0  0
 38 39  2  0  0  0
 37 40  1  0  0  0
 40 41  1  0  0  0
 40 42  1  0  0  0
 40 43  1  0  0  0
  3 14  1  0  0  0
 14 15  1  0  0  0
 15 16  1  0  0  0
 16 17  1  0  0  0
 17 18  1  0  0  0
 18 19  1  0  0  0
 17 20  1  0  0  0
 20 21  2  0  0  0
 21 22  1  0  0  0
 22 23  2  0  0  0
 23 24  1  0  0  0
 24 25  1  0  0  0
 25 26  1  0  0  0
 26 27  2  0  0  0
 27 28  1  0  0  0
 13  8  1  0  0  0
  6  1  1  0  0  0
 39 34  1  0  0  0
 19 14  1  0  0  0
 28 20  1  0  0  0
 28 24  2  0  0  0
 32 33  1  0  0  0
 25 29  1  0  0  0
M  END
> <minimizedAffinity>
-6.59000

> <CNNscore>
0.1099997833

> <CNNaffinity>
6.5929145813

> <CNN_VS>
0.7252191901

> <CNNaffinity_variance>
0.0254153665

$$$$
[H]c1nc(N2C([H])([H])C([H])([H])N(c3nc(C(=O)N([H])c4c([H])c([H])c(C(F)(F)F)c([H])c4[H])nc(N4C([H])([H])C([H])([H])N(C([H])([H])[H])C([H])([H])C4([H])[H])c3[H])C([H])([H])C2([H])[H])c2c([H])c([H])n([H])c2n1


 43 48  0  0  0  0  0  0  0  0999 V2000
  151.8122  138.0459  182.4736 C   0  0  0  0  0  0  0  0  0  0  0  0
  151.6765  137.2516  183.5674 C   0  0  0  0  0  0  0  0  0  0  0  0
  152.5703  137.3917  184.6384 C   0  0  0  0  0  0  0  0  0  0  0  0
  153.5394  138.3167  184.5419 N   0  0  0  0  0  0  0  0  0  0  0  0
  153.6731  139.0974  183.4798 C   0  0  0  0  0  0  0  0  0  0  0  0
  152.7850  138.9431  182.4431 N   0  0  0  0  0  0  0  0  0  0  0  0
  147.4787  138.0664  179.0821 C   0  0  0  0  0  0  0  0  0  0  0  0
  148.5403  138.2212  180.0803 N   0  0  0  0  0  0  0  0  0  0  0  0
  148.7873  136.8885  180.5755 C   0  0  0  0  0  0  0  0  0  0  0  0
  150.0279  136.7363  181.3648 C   0  0  0  0  0  0  0  0  0  0  0  0
  150.9441  137.8669  181.3169 N   0  0  0  0  0  0  0  0  0  0  0  0
  150.9755  138.7224  180.2011 C   0  0  0  0  0  0  0  0  0  0  0  0
  149.6839  138.7831  179.4145 C   0  0  0  0  0  0  0  0  0  0  0  0
  152.3499  136.5688  185.7520 N   0  0  0  0  0  0  0  0  0  0  0  0
  152.6049  135.1413  185.6995 C   0  0  0  0  0  0  0  0  0  0  0  0
  152.9548  134.6721  187.0953 C   0  0  0  0  0  0  0  0  0  0  0  0
  151.8937  135.0553  188.0301 N   0  0  0  0  0  0  0  0  0  0  0  0
  151.0487  136.2022  187.7686 C   0  0  0  0  0  0  0  0  0  0  0  0
  151.8851  137.2017  186.9921 C   0  0  0  0  0  0  0  0  0  0  0  0
  151.7651  134.2731  189.2117 C   0  0  0  0  0  0  0  0  0  0  0  0
  152.4825  134.5187  190.3242 N   0  0  0  0  0  0  0  0  0  0  0  0
  152.3078  133.7580  191.4147 C   0  0  0  0  0  0  0  0  0  0  0  0
  151.4418  132.7313  191.4689 N   0  0  0  0  0  0  0  0  0  0  0  0
  150.6991  132.4486  190.3596 C   0  0  0  0  0  0  0  0  0  0  0  0
  149.7843  131.4771  190.1113 N   0  0  0  0  0  0  0  0  0  0  0  0
  149.3463  131.6033  188.8258 C   0  0  0  0  0  0  0  0  0  0  0  0
  150.0218  132.6806  188.3065 C   0  0  0  0  0  0  0  0  0  0  0  0
  150.8690  133.2241  189.2422 C   0  0  0  0  0  0  0  0  0  0  0  0
  149.4975  130.7623  190.8106 H   0  0  0  0  0  0  0  0  0  0  0  0
  154.7314  140.0651  183.2732 C   0  0  0  0  0  0  0  0  0  0  0  0
  155.5485  140.2193  184.2158 O   0  0  0  0  0  0  0  0  0  0  0  0
  154.8725  140.8452  182.0701 N   0  0  0  0  0  0  0  0  0  0  0  0
  154.2662  140.7420  181.2615 H   0  0  0  0  0  0  0  0  0  0  0  0
  155.9398  141.7758  182.0832 C   0  0  0  0  0  0  0  0  0  0  0  0
  157.1962  141.3894  181.6752 C   0  0  0  0  0  0  0  0  0  0  0  0
  158.1797  142.3601  181.6129 C   0  0  0  0  0  0  0  0  0  0  0  0
  157.9050  143.6693  181.9494 C   0  0  0  0  0  0  0  0  0  0  0  0
  156.6452  144.0114  182.3551 C   0  0  0  0  0  0  0  0  0  0  0  0
  155.6477  143.0804  182.4285 C   0  0  0  0  0  0  0  0  0  0  0  0
  158.9660  144.6817  181.8385 C   0  0  0  0  0  0  0  0  0  0  0  0
  158.4468  145.9716  181.9068 F   0  0  0  0  0  0  0  0  0  0  0  0
  159.8982  144.5392  182.8526 F   0  0  0  0  0  0  0  0  0  0  0  0
  159.5735  144.5482  180.5961 F   0  0  0  0  0  0  0  0  0  0  0  0
  7  8  1  0  0  0
  8  9  1  0  0  0
  9 10  1  0  0  0
 10 11  1  0  0  0
 11 12  1  0  0  0
 12 13  1  0  0  0
 11  1  1  0  0  0
  1  2  2  0  0  0
  2  3  1  0  0  0
  3  4  2  0  0  0
  4  5  1  0  0  0
  5  6  2  0  0  0
  5 30  1  0  0  0
 30 31  2  0  0  0
 30 32  1  0  0  0
 32 34  1  0  0  0
 34 35  2  0  0  0
 35 36  1  0  0  0
 36 37  2  0  0  0
 37 38  1  0  0  0
 38 39  2  0  0  0
 37 40  1  0  0  0
 40 41  1  0  0  0
 40 42  1  0  0  0
 40 43  1  0  0  0
  3 14  1  0  0  0
 14 15  1  0  0  0
 15 16  1  0  0  0
 16 17  1  0  0  0
 17 18  1  0  0  0
 18 19  1  0  0  0
 17 20  1  0  0  0
 20 21  2  0  0  0
 21 22  1  0  0  0
 22 23  2  0  0  0
 23 24  1  0  0  0
 24 25  1  0  0  0
 25 26  1  0  0  0
 26 27  2  0  0  0
 27 28  1  0  0  0
 13  8  1  0  0  0
  6  1  1  0  0  0
 39 34  1  0  0  0
 19 14  1  0  0  0
 28 20  1  0  0  0
 28 24  2  0  0  0
 32 33  1  0  0  0
 25 29  1  0  0  0
M  END
> <minimizedAffinity>
-7.31273

> <CNNscore>
0.1071869433

> <CNNaffinity>
6.1368207932

> <CNN_VS>
0.6577870846

> <CNNaffinity_variance>
0.0896742344

$$$$
[H]c1nc(N2C([H])([H])C([H])([H])N(c3nc(C(F)(F)F)nc(N([H])C(=O)c4c([H])c([H])c(N5C([H])([H])C([H])([H])N(C([H])([H])[H])C([H])([H])C5([H])[H])c([H])c4[H])c3[H])C([H])([H])C2([H])[H])nc([H])c1C(F)(F)F


 43 47  0  0  0  0  0  0  0  0999 V2000
  152.3376  132.3926  188.4621 C   0  0  0  0  0  0  0  0  0  0  0  0
  152.5558  133.6742  188.8957 C   0  0  0  0  0  0  0  0  0  0  0  0
  152.3423  133.9932  190.2472 C   0  0  0  0  0  0  0  0  0  0  0  0
  151.9329  133.0257  191.0648 N   0  0  0  0  0  0  0  0  0  0  0  0
  151.7083  131.7426  190.6668 C   0  0  0  0  0  0  0  0  0  0  0  0
  151.9235  131.4848  189.3731 N   0  0  0  0  0  0  0  0  0  0  0  0
  152.5658  135.3381  190.6315 N   0  0  0  0  0  0  0  0  0  0  0  0
  151.7970  135.9246  191.6929 C   0  0  0  0  0  0  0  0  0  0  0  0
  152.7446  136.5807  192.6924 C   0  0  0  0  0  0  0  0  0  0  0  0
  153.5840  137.4701  191.9527 N   0  0  0  0  0  0  0  0  0  0  0  0
  154.4024  136.9108  190.9057 C   0  0  0  0  0  0  0  0  0  0  0  0
  153.5619  136.1103  189.9327 C   0  0  0  0  0  0  0  0  0  0  0  0
  153.6420  138.8562  192.2213 C   0  0  0  0  0  0  0  0  0  0  0  0
  152.5555  139.4769  192.7650 N   0  0  0  0  0  0  0  0  0  0  0  0
  152.5356  140.7925  193.0196 C   0  0  0  0  0  0  0  0  0  0  0  0
  153.6320  141.5954  192.7397 C   0  0  0  0  0  0  0  0  0  0  0  0
  154.7304  140.9458  192.1854 C   0  0  0  0  0  0  0  0  0  0  0  0
  154.7146  139.6202  191.9434 N   0  0  0  0  0  0  0  0  0  0  0  0
  153.5886  143.0598  193.0207 C   0  0  0  0  0  0  0  0  0  0  0  0
  154.0186  143.2560  194.3330 F   0  0  0  0  0  0  0  0  0  0  0  0
  152.2880  143.5194  192.8882 F   0  0  0  0  0  0  0  0  0  0  0  0
  154.4639  143.7275  192.2122 F   0  0  0  0  0  0  0  0  0  0  0  0
  151.6172  132.5011  186.1268 C   0  0  0  0  0  0  0  0  0  0  0  0
  150.6253  133.2099  186.4822 O   0  0  0  0  0  0  0  0  0  0  0  0
  152.5369  132.0250  187.0935 N   0  0  0  0  0  0  0  0  0  0  0  0
  153.3675  131.4344  186.8621 H   0  0  0  0  0  0  0  0  0  0  0  0
  152.1859  131.6873  181.9825 C   0  0  0  0  0  0  0  0  0  0  0  0
  152.9460  132.6301  182.6359 C   0  0  0  0  0  0  0  0  0  0  0  0
  152.7229  132.8740  183.9693 C   0  0  0  0  0  0  0  0  0  0  0  0
  151.7584  132.2137  184.7104 C   0  0  0  0  0  0  0  0  0  0  0  0
  151.0060  131.2756  184.0372 C   0  0  0  0  0  0  0  0  0  0  0  0
  151.1982  131.0016  182.7006 C   0  0  0  0  0  0  0  0  0  0  0  0
  150.1381  130.9306  178.3189 C   0  0  0  0  0  0  0  0  0  0  0  0
  151.5026  130.4414  178.2733 N   0  0  0  0  0  0  0  0  0  0  0  0
  152.4056  131.5704  178.2288 C   0  0  0  0  0  0  0  0  0  0  0  0
  152.3415  132.3620  179.5395 C   0  0  0  0  0  0  0  0  0  0  0  0
  152.4687  131.4226  180.6193 N   0  0  0  0  0  0  0  0  0  0  0  0
  152.8917  130.0679  180.2394 C   0  0  0  0  0  0  0  0  0  0  0  0
  151.7607  129.5321  179.3499 C   0  0  0  0  0  0  0  0  0  0  0  0
  151.2588  130.6774  191.6190 C   0  0  0  0  0  0  0  0  0  0  0  0
  152.3609  130.3329  192.3807 F   0  0  0  0  0  0  0  0  0  0  0  0
  150.8765  129.5804  190.8659 F   0  0  0  0  0  0  0  0  0  0  0  0
  150.2901  131.1039  192.4763 F   0  0  0  0  0  0  0  0  0  0  0  0
 33 34  1  0  0  0
 34 35  1  0  0  0
 35 36  1  0  0  0
 36 37  1  0  0  0
 37 38  1  0  0  0
 38 39  1  0  0  0
 37 27  1  0  0  0
 27 28  2  0  0  0
 28 29  1  0  0  0
 29 30  2  0  0  0
 30 31  1  0  0  0
 31 32  2  0  0  0
 30 23  1  0  0  0
 23 24  2  0  0  0
 23 25  1  0  0  0
 25  1  1  0  0  0
  1  2  2  0  0  0
  2  3  1  0  0  0
  3  4  2  0  0  0
  4  5  1  0  0  0
  5  6  2  0  0  0
  5 40  1  0  0  0
 40 41  1  0  0  0
 40 42  1  0  0  0
 40 43  1  0  0  0
  3  7  1  0  0  0
  7  8  1  0  0  0
  8  9  1  0  0  0
  9 10  1  0  0  0
 10 11  1  0  0  0
 11 12  1  0  0  0
 10 13  1  0  0  0
 13 14  2  0  0  0
 14 15  1  0  0  0
 15 16  2  0  0  0
 16 17  1  0  0  0
 17 18  2  0  0  0
 16 19  1  0  0  0
 19 20  1  0  0  0
 19 21  1  0  0  0
 19 22  1  0  0  0
 39 34  1  0  0  0
 32 27  1  0  0  0
  6  1  1  0  0  0
 12  7  1  0  0  0
 18 13  1  0  0  0
 25 26  1  0  0  0
M  END
> <minimizedAffinity>
5.72518

> <CNNscore>
0.3423854709

> <CNNaffinity>
5.8370432854

> <CNN_VS>
1.9985188246

> <CNNaffinity_variance>
0.5796048045

$$$$
[H]c1nc(N2C([H])([H])C([H])([H])N(c3nc(C(F)(F)F)nc(N([H])C(=O)c4c([H])c([H])c(N5C([H])([H])C([H])([H])N(C([H])([H])[H])C([H])([H])C5([H])[H])c([H])c4[H])c3[H])C([H])([H])C2([H])[H])nc([H])c1C(F)(F)F


 43 47  0  0  0  0  0  0  0  0999 V2000
  151.4288  137.5071  183.3667 C   0  0  0  0  0  0  0  0  0  0  0  0
  152.5754  138.1719  183.7153 C   0  0  0  0  0  0  0  0  0  0  0  0
  153.0052  139.2628  182.9414 C   0  0  0  0  0  0  0  0  0  0  0  0
  152.2719  139.6140  181.8873 N   0  0  0  0  0  0  0  0  0  0  0  0
  151.1275  138.9760  181.5145 C   0  0  0  0  0  0  0  0  0  0  0  0
  150.7571  137.9441  182.2789 N   0  0  0  0  0  0  0  0  0  0  0  0
  154.2072  139.8975  183.3396 N   0  0  0  0  0  0  0  0  0  0  0  0
  154.9925  139.3525  184.4111 C   0  0  0  0  0  0  0  0  0  0  0  0
  156.4419  139.2241  183.9528 C   0  0  0  0  0  0  0  0  0  0  0  0
  156.8420  140.5058  183.4632 N   0  0  0  0  0  0  0  0  0  0  0  0
  156.1028  141.0673  182.3600 C   0  0  0  0  0  0  0  0  0  0  0  0
  154.6198  141.1027  182.6659 C   0  0  0  0  0  0  0  0  0  0  0  0
  157.9298  141.2210  184.0129 C   0  0  0  0  0  0  0  0  0  0  0  0
  158.6854  142.0151  183.2007 N   0  0  0  0  0  0  0  0  0  0  0  0
  159.7456  142.6988  183.6530 C   0  0  0  0  0  0  0  0  0  0  0  0
  160.1294  142.6314  184.9846 C   0  0  0  0  0  0  0  0  0  0  0  0
  159.3480  141.8168  185.7979 C   0  0  0  0  0  0  0  0  0  0  0  0
  158.2881  141.1440  185.3080 N   0  0  0  0  0  0  0  0  0  0  0  0
  161.3182  143.3916  185.4686 C   0  0  0  0  0  0  0  0  0  0  0  0
  161.2329  143.4792  186.8580 F   0  0  0  0  0  0  0  0  0  0  0  0
  161.3068  144.6662  184.9248 F   0  0  0  0  0  0  0  0  0  0  0  0
  162.4683  142.7121  185.1836 F   0  0  0  0  0  0  0  0  0  0  0  0
  149.8737  136.5837  185.0141 C   0  0  0  0  0  0  0  0  0  0  0  0
  149.3615  137.7372  185.1537 O   0  0  0  0  0  0  0  0  0  0  0  0
  150.9576  136.3873  184.1231 N   0  0  0  0  0  0  0  0  0  0  0  0
  151.4226  135.4639  183.9705 H   0  0  0  0  0  0  0  0  0  0  0  0
  148.1784  133.5055  187.4247 C   0  0  0  0  0  0  0  0  0  0  0  0
  148.9500  134.5019  187.9774 C   0  0  0  0  0  0  0  0  0  0  0  0
  149.4908  135.4687  187.1650 C   0  0  0  0  0  0  0  0  0  0  0  0
  149.3016  135.5008  185.7944 C   0  0  0  0  0  0  0  0  0  0  0  0
  148.5284  134.4929  185.2600 C   0  0  0  0  0  0  0  0  0  0  0  0
  147.9683  133.5048  186.0401 C   0  0  0  0  0  0  0  0  0  0  0  0
  147.4861  132.8728  191.5851 C   0  0  0  0  0  0  0  0  0  0  0  0
  147.4447  131.6257  190.8461 N   0  0  0  0  0  0  0  0  0  0  0  0
  146.2490  131.6006  190.0326 C   0  0  0  0  0  0  0  0  0  0  0  0
  146.3190  132.6738  188.9408 C   0  0  0  0  0  0  0  0  0  0  0  0
  147.5945  132.5482  188.2914 N   0  0  0  0  0  0  0  0  0  0  0  0
  148.3524  131.3292  188.6049 C   0  0  0  0  0  0  0  0  0  0  0  0
  148.6553  131.4238  190.1071 C   0  0  0  0  0  0  0  0  0  0  0  0
  150.3220  139.4076  180.3279 C   0  0  0  0  0  0  0  0  0  0  0  0
  151.0416  140.4085  179.7004 F   0  0  0  0  0  0  0  0  0  0  0  0
  149.1357  139.9411  180.8020 F   0  0  0  0  0  0  0  0  0  0  0  0
  150.1366  138.4101  179.4191 F   0  0  0  0  0  0  0  0  0  0  0  0
 33 34  1  0  0  0
 34 35  1  0  0  0
 35 36  1  0  0  0
 36 37  1  0  0  0
 37 38  1  0  0  0
 38 39  1  0  0  0
 37 27  1  0  0  0
 27 28  2  0  0  0
 28 29  1  0  0  0
 29 30  2  0  0  0
 30 31  1  0  0  0
 31 32  2  0  0  0
 30 23  1  0  0  0
 23 24  2  0  0  0
 23 25  1  0  0  0
 25  1  1  0  0  0
  1  2  2  0  0  0
  2  3  1  0  0  0
  3  4  2  0  0  0
  4  5  1  0  0  0
  5  6  2  0  0  0
  5 40  1  0  0  0
 40 41  1  0  0  0
 40 42  1  0  0  0
 40 43  1  0  0  0
  3  7  1  0  0  0
  7  8  1  0  0  0
  8  9  1  0  0  0
  9 10  1  0  0  0
 10 11  1  0  0  0
 11 12  1  0  0  0
 10 13  1  0  0  0
 13 14  2  0  0  0
 14 15  1  0  0  0
 15 16  2  0  0  0
 16 17  1  0  0  0
 17 18  2  0  0  0
 16 19  1  0  0  0
 19 20  1  0  0  0
 19 21  1  0  0  0
 19 22  1  0  0  0
 39 34  1  0  0  0
 32 27  1  0  0  0
  6  1  1  0  0  0
 12  7  1  0  0  0
 18 13  1  0  0  0
 25 26  1  0  0  0
M  END
> <minimizedAffinity>
-7.66147

> <CNNscore>
0.2520868480

> <CNNaffinity>
6.3770737648

> <CNN_VS>
1.6075763702

> <CNNaffinity_variance>
0.0801911801

$$$$
[H]c1nc(N2C([H])([H])C([H])([H])N(c3nc(C(F)(F)F)nc(N([H])C(=O)c4c([H])c([H])c(N5C([H])([H])C([H])([H])N(C([H])([H])[H])C([H])([H])C5([H])[H])c([H])c4[H])c3[H])C([H])([H])C2([H])[H])nc([H])c1C(F)(F)F


 43 47  0  0  0  0  0  0  0  0999 V2000
  154.9244  141.0732  183.3389 C   0  0  0  0  0  0  0  0  0  0  0  0
  154.2609  139.9749  182.8578 C   0  0  0  0  0  0  0  0  0  0  0  0
  153.0958  140.1505  182.0927 C   0  0  0  0  0  0  0  0  0  0  0  0
  152.6771  141.3926  181.8603 N   0  0  0  0  0  0  0  0  0  0  0  0
  153.3134  142.5050  182.3221 C   0  0  0  0  0  0  0  0  0  0  0  0
  154.4166  142.2904  183.0455 N   0  0  0  0  0  0  0  0  0  0  0  0
  152.4434  138.9777  181.6397 N   0  0  0  0  0  0  0  0  0  0  0  0
  152.9972  137.6846  181.9275 C   0  0  0  0  0  0  0  0  0  0  0  0
  151.9101  136.7977  182.5264 C   0  0  0  0  0  0  0  0  0  0  0  0
  150.8021  136.8251  181.6240 N   0  0  0  0  0  0  0  0  0  0  0  0
  150.1928  138.1011  181.3427 C   0  0  0  0  0  0  0  0  0  0  0  0
  151.2283  139.1027  180.8750 C   0  0  0  0  0  0  0  0  0  0  0  0
  150.2888  135.6558  181.0189 C   0  0  0  0  0  0  0  0  0  0  0  0
  149.1398  135.7321  180.2873 N   0  0  0  0  0  0  0  0  0  0  0  0
  148.5862  134.6570  179.7097 C   0  0  0  0  0  0  0  0  0  0  0  0
  149.1621  133.4004  179.8292 C   0  0  0  0  0  0  0  0  0  0  0  0
  150.3325  133.3414  180.5789 C   0  0  0  0  0  0  0  0  0  0  0  0
  150.8609  134.4441  181.1451 N   0  0  0  0  0  0  0  0  0  0  0  0
  148.5266  132.2129  179.1877 C   0  0  0  0  0  0  0  0  0  0  0  0
  149.5216  131.5110  178.5075 F   0  0  0  0  0  0  0  0  0  0  0  0
  147.5611  132.6334  178.2868 F   0  0  0  0  0  0  0  0  0  0  0  0
  148.0238  131.3691  180.1367 F   0  0  0  0  0  0  0  0  0  0  0  0
  157.1960  141.8135  183.8647 C   0  0  0  0  0  0  0  0  0  0  0  0
  157.1173  142.6679  182.9287 O   0  0  0  0  0  0  0  0  0  0  0  0
  156.1115  140.9405  184.1272 N   0  0  0  0  0  0  0  0  0  0  0  0
  156.1202  140.2150  184.8793 H   0  0  0  0  0  0  0  0  0  0  0  0
  160.8841  141.7550  185.9991 C   0  0  0  0  0  0  0  0  0  0  0  0
  160.8179  141.3770  184.6776 C   0  0  0  0  0  0  0  0  0  0  0  0
  159.6075  141.3960  184.0279 C   0  0  0  0  0  0  0  0  0  0  0  0
  158.4257  141.7808  184.6366 C   0  0  0  0  0  0  0  0  0  0  0  0
  158.5127  142.1530  185.9607 C   0  0  0  0  0  0  0  0  0  0  0  0
  159.7068  142.1477  186.6481 C   0  0  0  0  0  0  0  0  0  0  0  0
  162.9949  143.9128  189.0118 C   0  0  0  0  0  0  0  0  0  0  0  0
  163.9058  143.2284  188.1147 N   0  0  0  0  0  0  0  0  0  0  0  0
  163.8186  141.8044  188.3525 C   0  0  0  0  0  0  0  0  0  0  0  0
  162.4378  141.2756  187.9494 C   0  0  0  0  0  0  0  0  0  0  0  0
  162.1525  141.7708  186.6312 N   0  0  0  0  0  0  0  0  0  0  0  0
  163.2855  142.3763  185.9183 C   0  0  0  0  0  0  0  0  0  0  0  0
  163.6699  143.6063  186.7531 C   0  0  0  0  0  0  0  0  0  0  0  0
  152.8185  143.8882  182.0301 C   0  0  0  0  0  0  0  0  0  0  0  0
  152.5868  144.4946  183.2516 F   0  0  0  0  0  0  0  0  0  0  0  0
  151.6149  143.7660  181.3571 F   0  0  0  0  0  0  0  0  0  0  0  0
  153.7305  144.6505  181.3649 F   0  0  0  0  0  0  0  0  0  0  0  0
 33 34  1  0  0  0
 34 35  1  0  0  0
 35 36  1  0  0  0
 36 37  1  0  0  0
 37 38  1  0  0  0
 38 39  1  0  0  0
 37 27  1  0  0  0
 27 28  2  0  0  0
 28 29  1  0  0  0
 29 30  2  0  0  0
 30 31  1  0  0  0
 31 32  2  0  0  0
 30 23  1  0  0  0
 23 24  2  0  0  0
 23 25  1  0  0  0
 25  1  1  0  0  0
  1  2  2  0  0  0
  2  3  1  0  0  0
  3  4  2  0  0  0
  4  5  1  0  0  0
  5  6  2  0  0  0
  5 40  1  0  0  0
 40 41  1  0  0  0
 40 42  1  0  0  0
 40 43  1  0  0  0
  3  7  1  0  0  0
  7  8  1  0  0  0
  8  9  1  0  0  0
  9 10  1  0  0  0
 10 11  1  0  0  0
 11 12  1  0  0  0
 10 13  1  0  0  0
 13 14  2  0  0  0
 14 15  1  0  0  0
 15 16  2  0  0  0
 16 17  1  0  0  0
 17 18  2  0  0  0
 16 19  1  0  0  0
 19 20  1  0  0  0
 19 21  1  0  0  0
 19 22  1  0  0  0
 39 34  1  0  0  0
 32 27  1  0  0  0
  6  1  1  0  0  0
 12  7  1  0  0  0
 18 13  1  0  0  0
 25 26  1  0  0  0
M  END
> <minimizedAffinity>
10.06973

> <CNNscore>
0.2360210717

> <CNNaffinity>
6.3813428879

> <CNN_VS>
1.5061314106

> <CNNaffinity_variance>
0.8411451578

$$$$
[H]c1nc(N2C([H])([H])C([H])([H])N(c3nc(C(F)(F)F)nc(N([H])C(=O)c4c([H])c([H])c(N5C([H])([H])C([H])([H])N(C([H])([H])[H])C([H])([H])C5([H])[H])c([H])c4[H])c3[H])C([H])([H])C2([H])[H])nc([H])c1C(F)(F)F


 43 47  0  0  0  0  0  0  0  0999 V2000
  153.6438  137.4673  183.6970 C   0  0  0  0  0  0  0  0  0  0  0  0
  154.1621  136.7456  184.7405 C   0  0  0  0  0  0  0  0  0  0  0  0
  153.5808  135.5143  185.0865 C   0  0  0  0  0  0  0  0  0  0  0  0
  152.5370  135.0901  184.3775 N   0  0  0  0  0  0  0  0  0  0  0  0
  151.9988  135.7815  183.3345 C   0  0  0  0  0  0  0  0  0  0  0  0
  152.5831  136.9472  183.0413 N   0  0  0  0  0  0  0  0  0  0  0  0
  154.1479  134.8240  186.1857 N   0  0  0  0  0  0  0  0  0  0  0  0
  153.3877  133.8255  186.8832 C   0  0  0  0  0  0  0  0  0  0  0  0
  154.2215  132.5532  186.9988 C   0  0  0  0  0  0  0  0  0  0  0  0
  155.4709  132.9225  187.5864 N   0  0  0  0  0  0  0  0  0  0  0  0
  156.2818  133.8923  186.8931 C   0  0  0  0  0  0  0  0  0  0  0  0
  155.4890  135.1494  186.6011 C   0  0  0  0  0  0  0  0  0  0  0  0
  155.9311  132.3655  188.8008 C   0  0  0  0  0  0  0  0  0  0  0  0
  156.0641  133.1686  189.8955 N   0  0  0  0  0  0  0  0  0  0  0  0
  156.5198  132.7094  191.0692 C   0  0  0  0  0  0  0  0  0  0  0  0
  156.8817  131.3795  191.2289 C   0  0  0  0  0  0  0  0  0  0  0  0
  156.7400  130.5756  190.1023 C   0  0  0  0  0  0  0  0  0  0  0  0
  156.2778  131.0723  188.9381 N   0  0  0  0  0  0  0  0  0  0  0  0
  157.3963  130.8878  192.5400 C   0  0  0  0  0  0  0  0  0  0  0  0
  156.9766  129.5668  192.6956 F   0  0  0  0  0  0  0  0  0  0  0  0
  156.8727  131.6615  193.5636 F   0  0  0  0  0  0  0  0  0  0  0  0
  158.7620  130.8732  192.5421 F   0  0  0  0  0  0  0  0  0  0  0  0
  155.5600  138.9861  183.6197 C   0  0  0  0  0  0  0  0  0  0  0  0
  156.2489  138.1236  184.2473 O   0  0  0  0  0  0  0  0  0  0  0  0
  154.2007  138.7286  183.3141 N   0  0  0  0  0  0  0  0  0  0  0  0
  153.5835  139.4012  182.8054 H   0  0  0  0  0  0  0  0  0  0  0  0
  157.4473  142.5907  182.3527 C   0  0  0  0  0  0  0  0  0  0  0  0
  157.2682  141.5361  181.4871 C   0  0  0  0  0  0  0  0  0  0  0  0
  156.6681  140.3852  181.9372 C   0  0  0  0  0  0  0  0  0  0  0  0
  156.2234  140.2200  183.2374 C   0  0  0  0  0  0  0  0  0  0  0  0
  156.4145  141.2864  184.0892 C   0  0  0  0  0  0  0  0  0  0  0  0
  157.0120  142.4576  183.6772 C   0  0  0  0  0  0  0  0  0  0  0  0
  160.4213  145.4615  183.4026 C   0  0  0  0  0  0  0  0  0  0  0  0
  159.4708  146.0072  182.4529 N   0  0  0  0  0  0  0  0  0  0  0  0
  159.6774  145.3786  181.1668 C   0  0  0  0  0  0  0  0  0  0  0  0
  159.3193  143.8900  181.2324 C   0  0  0  0  0  0  0  0  0  0  0  0
  158.0264  143.7825  181.8499 N   0  0  0  0  0  0  0  0  0  0  0  0
  157.2821  145.0409  181.9942 C   0  0  0  0  0  0  0  0  0  0  0  0
  158.1298  145.8983  182.9450 C   0  0  0  0  0  0  0  0  0  0  0  0
  150.8303  135.2662  182.5520 C   0  0  0  0  0  0  0  0  0  0  0  0
  149.9608  136.3294  182.3874 F   0  0  0  0  0  0  0  0  0  0  0  0
  150.2093  134.2969  183.3211 F   0  0  0  0  0  0  0  0  0  0  0  0
  151.1739  134.8267  181.3094 F   0  0  0  0  0  0  0  0  0  0  0  0
 33 34  1  0  0  0
 34 35  1  0  0  0
 35 36  1  0  0  0
 36 37  1  0  0  0
 37 38  1  0  0  0
 38 39  1  0  0  0
 37 27  1  0  0  0
 27 28  2  0  0  0
 28 29  1  0  0  0
 29 30  2  0  0  0
 30 31  1  0  0  0
 31 32  2  0  0  0
 30 23  1  0  0  0
 23 24  2  0  0  0
 23 25  1  0  0  0
 25  1  1  0  0  0
  1  2  2  0  0  0
  2  3  1  0  0  0
  3  4  2  0  0  0
  4  5  1  0  0  0
  5  6  2  0  0  0
  5 40  1  0  0  0
 40 41  1  0  0  0
 40 42  1  0  0  0
 40 43  1  0  0  0
  3  7  1  0  0  0
  7  8  1  0  0  0
  8  9  1  0  0  0
  9 10  1  0  0  0
 10 11  1  0  0  0
 11 12  1  0  0  0
 10 13  1  0  0  0
 13 14  2  0  0  0
 14 15  1  0  0  0
 15 16  2  0  0  0
 16 17  1  0  0  0
 17 18  2  0  0  0
 16 19  1  0  0  0
 19 20  1  0  0  0
 19 21  1  0  0  0
 19 22  1  0  0  0
 39 34  1  0  0  0
 32 27  1  0  0  0
  6  1  1  0  0  0
 12  7  1  0  0  0
 18 13  1  0  0  0
 25 26  1  0  0  0
M  END
> <minimizedAffinity>
-1.34254

> <CNNscore>
0.1958411187

> <CNNaffinity>
6.1843581200

> <CNN_VS>
1.2111515999

> <CNNaffinity_variance>
0.9002792239

$$$$
[H]c1nc(N2C([H])([H])C([H])([H])N(c3nc(C(F)(F)F)nc(N([H])C(=O)c4c([H])c([H])c(N5C([H])([H])C([H])([H])N(C([H])([H])[H])C([H])([H])C5([H])[H])c([H])c4[H])c3[H])C([H])([H])C2([H])[H])nc([H])c1C(F)(F)F


 43 47  0  0  0  0  0  0  0  0999 V2000
  156.4123  137.7078  186.1070 C   0  0  0  0  0  0  0  0  0  0  0  0
  155.2699  137.6945  185.3501 C   0  0  0  0  0  0  0  0  0  0  0  0
  154.9878  138.7799  184.5039 C   0  0  0  0  0  0  0  0  0  0  0  0
  155.8528  139.7912  184.4684 N   0  0  0  0  0  0  0  0  0  0  0  0
  156.9971  139.8351  185.2060 C   0  0  0  0  0  0  0  0  0  0  0  0
  157.2245  138.7820  185.9969 N   0  0  0  0  0  0  0  0  0  0  0  0
  153.7832  138.7178  183.7614 N   0  0  0  0  0  0  0  0  0  0  0  0
  153.3561  139.8440  182.9798 C   0  0  0  0  0  0  0  0  0  0  0  0
  153.0242  139.3743  181.5668 C   0  0  0  0  0  0  0  0  0  0  0  0
  152.0905  138.2993  181.6908 N   0  0  0  0  0  0  0  0  0  0  0  0
  152.4993  137.1333  182.4338 C   0  0  0  0  0  0  0  0  0  0  0  0
  152.9881  137.5170  183.8150 C   0  0  0  0  0  0  0  0  0  0  0  0
  150.8046  138.3414  181.1064 C   0  0  0  0  0  0  0  0  0  0  0  0
  150.1451  137.1731  180.8590 N   0  0  0  0  0  0  0  0  0  0  0  0
  148.9353  137.1419  180.2833 C   0  0  0  0  0  0  0  0  0  0  0  0
  148.2879  138.3101  179.9076 C   0  0  0  0  0  0  0  0  0  0  0  0
  148.9752  139.4916  180.1669 C   0  0  0  0  0  0  0  0  0  0  0  0
  150.1909  139.4845  180.7481 N   0  0  0  0  0  0  0  0  0  0  0  0
  146.9455  138.2560  179.2590 C   0  0  0  0  0  0  0  0  0  0  0  0
  146.2492  139.4090  179.6211 F   0  0  0  0  0  0  0  0  0  0  0  0
  146.2570  137.1410  179.7098 F   0  0  0  0  0  0  0  0  0  0  0  0
  147.0708  138.2785  177.8991 F   0  0  0  0  0  0  0  0  0  0  0  0
  155.9632  136.4588  188.1620 C   0  0  0  0  0  0  0  0  0  0  0  0
  155.0287  137.2742  188.4346 O   0  0  0  0  0  0  0  0  0  0  0  0
  156.7360  136.6263  186.9865 N   0  0  0  0  0  0  0  0  0  0  0  0
  157.5198  135.9916  186.7127 H   0  0  0  0  0  0  0  0  0  0  0  0
  156.7684  133.3279  190.9386 C   0  0  0  0  0  0  0  0  0  0  0  0
  157.7847  133.9540  190.2541 C   0  0  0  0  0  0  0  0  0  0  0  0
  157.4835  134.9496  189.3566 C   0  0  0  0  0  0  0  0  0  0  0  0
  156.1909  135.3691  189.0945 C   0  0  0  0  0  0  0  0  0  0  0  0
  155.1874  134.7278  189.7879 C   0  0  0  0  0  0  0  0  0  0  0  0
  155.4474  133.7248  190.6962 C   0  0  0  0  0  0  0  0  0  0  0  0
  159.1826  129.8285  191.2765 C   0  0  0  0  0  0  0  0  0  0  0  0
  158.1325  129.8456  192.2766 N   0  0  0  0  0  0  0  0  0  0  0  0
  158.4295  130.8707  193.2528 C   0  0  0  0  0  0  0  0  0  0  0  0
  158.3515  132.2611  192.6129 C   0  0  0  0  0  0  0  0  0  0  0  0
  157.1107  132.3372  191.8924 N   0  0  0  0  0  0  0  0  0  0  0  0
  156.1507  131.2576  192.1600 C   0  0  0  0  0  0  0  0  0  0  0  0
  156.8425  129.9784  191.6677 C   0  0  0  0  0  0  0  0  0  0  0  0
  157.9530  140.9857  185.1307 C   0  0  0  0  0  0  0  0  0  0  0  0
  157.2695  142.0336  184.5406 F   0  0  0  0  0  0  0  0  0  0  0  0
  158.9942  140.6080  184.3001 F   0  0  0  0  0  0  0  0  0  0  0  0
  158.3706  141.4119  186.3552 F   0  0  0  0  0  0  0  0  0  0  0  0
 33 34  1  0  0  0
 34 35  1  0  0  0
 35 36  1  0  0  0
 36 37  1  0  0  0
 37 38  1  0  0  0
 38 39  1  0  0  0
 37 27  1  0  0  0
 27 28  2  0  0  0
 28 29  1  0  0  0
 29 30  2  0  0  0
 30 31  1  0  0  0
 31 32  2  0  0  0
 30 23  1  0  0  0
 23 24  2  0  0  0
 23 25  1  0  0  0
 25  1  1  0  0  0
  1  2  2  0  0  0
  2  3  1  0  0  0
  3  4  2  0  0  0
  4  5  1  0  0  0
  5  6  2  0  0  0
  5 40  1  0  0  0
 40 41  1  0  0  0
 40 42  1  0  0  0
 40 43  1  0  0  0
  3  7  1  0  0  0
  7  8  1  0  0  0
  8  9  1  0  0  0
  9 10  1  0  0  0
 10 11  1  0  0  0
 11 12  1  0  0  0
 10 13  1  0  0  0
 13 14  2  0  0  0
 14 15  1  0  0  0
 15 16  2  0  0  0
 16 17  1  0  0  0
 17 18  2  0  0  0
 16 19  1  0  0  0
 19 20  1  0  0  0
 19 21  1  0  0  0
 19 22  1  0  0  0
 39 34  1  0  0  0
 32 27  1  0  0  0
  6  1  1  0  0  0
 12  7  1  0  0  0
 18 13  1  0  0  0
 25 26  1  0  0  0
M  END
> <minimizedAffinity>
-4.75259

> <CNNscore>
0.1848409623

> <CNNaffinity>
5.8500266075

> <CNN_VS>
1.0813245773

> <CNNaffinity_variance>
0.1357641667

$$$$
[H]c1nc(N2C([H])([H])C([H])([H])N(c3nc(C(F)(F)F)nc(N([H])C(=O)c4c([H])c([H])c(N5C([H])([H])C([H])([H])N(C([H])([H])[H])C([H])([H])C5([H])[H])c([H])c4[H])c3[H])C([H])([H])C2([H])[H])nc([H])c1C(F)(F)F


 43 47  0  0  0  0  0  0  0  0999 V2000
  150.7271  137.7106  182.5354 C   0  0  0  0  0  0  0  0  0  0  0  0
  150.4133  137.1688  183.7544 C   0  0  0  0  0  0  0  0  0  0  0  0
  149.4113  136.1875  183.8382 C   0  0  0  0  0  0  0  0  0  0  0  0
  148.7992  135.8161  182.7159 N   0  0  0  0  0  0  0  0  0  0  0  0
  149.0879  136.3331  181.4892 C   0  0  0  0  0  0  0  0  0  0  0  0
  150.0467  137.2637  181.4570 N   0  0  0  0  0  0  0  0  0  0  0  0
  149.1180  135.6792  185.1273 N   0  0  0  0  0  0  0  0  0  0  0  0
  150.1785  135.4057  186.0558 C   0  0  0  0  0  0  0  0  0  0  0  0
  149.8569  136.0697  187.3911 C   0  0  0  0  0  0  0  0  0  0  0  0
  148.5517  135.6310  187.7740 N   0  0  0  0  0  0  0  0  0  0  0  0
  147.4542  135.9241  186.8861 C   0  0  0  0  0  0  0  0  0  0  0  0
  147.7451  135.4268  185.4854 C   0  0  0  0  0  0  0  0  0  0  0  0
  148.3089  134.9399  188.9824 C   0  0  0  0  0  0  0  0  0  0  0  0
  149.1747  135.0943  190.0253 N   0  0  0  0  0  0  0  0  0  0  0  0
  149.0167  134.4478  191.1886 C   0  0  0  0  0  0  0  0  0  0  0  0
  147.9523  133.5810  191.3903 C   0  0  0  0  0  0  0  0  0  0  0  0
  147.0800  133.4355  190.3162 C   0  0  0  0  0  0  0  0  0  0  0  0
  147.2704  134.1025  189.1609 N   0  0  0  0  0  0  0  0  0  0  0  0
  147.7975  132.8623  192.6884 C   0  0  0  0  0  0  0  0  0  0  0  0
  148.5461  133.5452  193.6468 F   0  0  0  0  0  0  0  0  0  0  0  0
  148.2791  131.5689  192.5629 F   0  0  0  0  0  0  0  0  0  0  0  0
  146.4963  132.8976  193.1018 F   0  0  0  0  0  0  0  0  0  0  0  0
  152.8779  138.6389  183.2406 C   0  0  0  0  0  0  0  0  0  0  0  0
  152.9767  137.7127  184.1037 O   0  0  0  0  0  0  0  0  0  0  0  0
  151.7366  138.7165  182.4047 N   0  0  0  0  0  0  0  0  0  0  0  0
  151.5973  139.4577  181.6812 H   0  0  0  0  0  0  0  0  0  0  0  0
  155.9819  141.5469  182.9776 C   0  0  0  0  0  0  0  0  0  0  0  0
  154.7860  141.7174  182.3185 C   0  0  0  0  0  0  0  0  0  0  0  0
  153.8151  140.7505  182.4165 C   0  0  0  0  0  0  0  0  0  0  0  0
  153.9717  139.5902  183.1546 C   0  0  0  0  0  0  0  0  0  0  0  0
  155.1771  139.4370  183.8047 C   0  0  0  0  0  0  0  0  0  0  0  0
  156.1764  140.3829  183.7318 C   0  0  0  0  0  0  0  0  0  0  0  0
  158.6739  143.2778  180.1589 C   0  0  0  0  0  0  0  0  0  0  0  0
  159.0783  143.5643  181.5217 N   0  0  0  0  0  0  0  0  0  0  0  0
  158.1415  144.5004  182.1032 C   0  0  0  0  0  0  0  0  0  0  0  0
  156.7606  143.8538  182.2569 C   0  0  0  0  0  0  0  0  0  0  0  0
  156.9474  142.5812  182.8974 N   0  0  0  0  0  0  0  0  0  0  0  0
  158.2781  142.3468  183.4742 C   0  0  0  0  0  0  0  0  0  0  0  0
  159.2389  142.3574  182.2766 C   0  0  0  0  0  0  0  0  0  0  0  0
  148.3852  135.8815  180.2460 C   0  0  0  0  0  0  0  0  0  0  0  0
  147.0562  136.2382  180.3874 F   0  0  0  0  0  0  0  0  0  0  0  0
  148.4738  134.5008  180.1962 F   0  0  0  0  0  0  0  0  0  0  0  0
  148.8513  136.4902  179.1201 F   0  0  0  0  0  0  0  0  0  0  0  0
 33 34  1  0  0  0
 34 35  1  0  0  0
 35 36  1  0  0  0
 36 37  1  0  0  0
 37 38  1  0  0  0
 38 39  1  0  0  0
 37 27  1  0  0  0
 27 28  2  0  0  0
 28 29  1  0  0  0
 29 30  2  0  0  0
 30 31  1  0  0  0
 31 32  2  0  0  0
 30 23  1  0  0  0
 23 24  2  0  0  0
 23 25  1  0  0  0
 25  1  1  0  0  0
  1  2  2  0  0  0
  2  3  1  0  0  0
  3  4  2  0  0  0
  4  5  1  0  0  0
  5  6  2  0  0  0
  5 40  1  0  0  0
 40 41  1  0  0  0
 40 42  1  0  0  0
 40 43  1  0  0  0
  3  7  1  0  0  0
  7  8  1  0  0  0
  8  9  1  0  0  0
  9 10  1  0  0  0
 10 11  1  0  0  0
 11 12  1  0  0  0
 10 13  1  0  0  0
 13 14  2  0  0  0
 14 15  1  0  0  0
 15 16  2  0  0  0
 16 17  1  0  0  0
 17 18  2  0  0  0
 16 19  1  0  0  0
 19 20  1  0  0  0
 19 21  1  0  0  0
 19 22  1  0  0  0
 39 34  1  0  0  0
 32 27  1  0  0  0
  6  1  1  0  0  0
 12  7  1  0  0  0
 18 13  1  0  0  0
 25 26  1  0  0  0
M  END
> <minimizedAffinity>
-7.17396

> <CNNscore>
0.1790484786

> <CNNaffinity>
6.2479476929

> <CNN_VS>
1.1186854839

> <CNNaffinity_variance>
0.3723998368

$$$$
[H]c1nc(N2C([H])([H])C([H])([H])N(c3nc(C(F)(F)F)nc(N([H])C(=O)c4c([H])c([H])c(N5C([H])([H])C([H])([H])N(C([H])([H])[H])C([H])([H])C5([H])[H])c([H])c4[H])c3[H])C([H])([H])C2([H])[H])nc([H])c1C(F)(F)F


 43 47  0  0  0  0  0  0  0  0999 V2000
  151.1006  137.1438  185.1394 C   0  0  0  0  0  0  0  0  0  0  0  0
  151.2233  136.4322  186.3041 C   0  0  0  0  0  0  0  0  0  0  0  0
  150.0712  135.9332  186.9347 C   0  0  0  0  0  0  0  0  0  0  0  0
  148.8905  136.1725  186.3683 N   0  0  0  0  0  0  0  0  0  0  0  0
  148.7339  136.8743  185.2114 C   0  0  0  0  0  0  0  0  0  0  0  0
  149.8563  137.3303  184.6470 N   0  0  0  0  0  0  0  0  0  0  0  0
  150.2599  135.2225  188.1453 N   0  0  0  0  0  0  0  0  0  0  0  0
  149.1326  134.8778  188.9652 C   0  0  0  0  0  0  0  0  0  0  0  0
  149.1971  133.3917  189.3037 C   0  0  0  0  0  0  0  0  0  0  0  0
  150.4877  133.1453  189.8661 N   0  0  0  0  0  0  0  0  0  0  0  0
  151.6436  133.4402  189.0565 C   0  0  0  0  0  0  0  0  0  0  0  0
  151.5970  134.8660  188.5475 C   0  0  0  0  0  0  0  0  0  0  0  0
  150.6597  132.6195  191.1664 C   0  0  0  0  0  0  0  0  0  0  0  0
  150.0717  131.4315  191.4893 N   0  0  0  0  0  0  0  0  0  0  0  0
  150.1736  130.8911  192.7114 C   0  0  0  0  0  0  0  0  0  0  0  0
  150.8908  131.5211  193.7183 C   0  0  0  0  0  0  0  0  0  0  0  0
  151.4830  132.7312  193.3714 C   0  0  0  0  0  0  0  0  0  0  0  0
  151.3595  133.2443  192.1315 N   0  0  0  0  0  0  0  0  0  0  0  0
  150.9855  130.9097  195.0757 C   0  0  0  0  0  0  0  0  0  0  0  0
  151.0885  129.5280  194.9158 F   0  0  0  0  0  0  0  0  0  0  0  0
  149.8411  131.2061  195.7990 F   0  0  0  0  0  0  0  0  0  0  0  0
  152.1243  131.3222  195.7071 F   0  0  0  0  0  0  0  0  0  0  0  0
  153.1841  138.4234  185.2207 C   0  0  0  0  0  0  0  0  0  0  0  0
  152.9855  138.6381  186.4563 O   0  0  0  0  0  0  0  0  0  0  0  0
  152.2466  137.6752  184.4667 N   0  0  0  0  0  0  0  0  0  0  0  0
  152.3533  137.4710  183.4474 H   0  0  0  0  0  0  0  0  0  0  0  0
  156.6580  140.1519  183.4586 C   0  0  0  0  0  0  0  0  0  0  0  0
  155.4057  140.3725  182.9328 C   0  0  0  0  0  0  0  0  0  0  0  0
  154.3115  139.7860  183.5211 C   0  0  0  0  0  0  0  0  0  0  0  0
  154.3958  138.9689  184.6350 C   0  0  0  0  0  0  0  0  0  0  0  0
  155.6588  138.7582  185.1446 C   0  0  0  0  0  0  0  0  0  0  0  0
  156.7813  139.3276  184.5841 C   0  0  0  0  0  0  0  0  0  0  0  0
  159.7295  142.9345  184.4641 C   0  0  0  0  0  0  0  0  0  0  0  0
  159.5029  142.8909  183.0324 N   0  0  0  0  0  0  0  0  0  0  0  0
  159.9875  141.6290  182.5178 C   0  0  0  0  0  0  0  0  0  0  0  0
  159.1456  140.4687  183.0596 C   0  0  0  0  0  0  0  0  0  0  0  0
  157.7634  140.8067  182.8604 N   0  0  0  0  0  0  0  0  0  0  0  0
  157.5086  141.9606  181.9874 C   0  0  0  0  0  0  0  0  0  0  0  0
  158.1309  143.1586  182.7190 C   0  0  0  0  0  0  0  0  0  0  0  0
  147.3889  137.1135  184.5975 C   0  0  0  0  0  0  0  0  0  0  0  0
  146.6053  136.0187  184.9152 F   0  0  0  0  0  0  0  0  0  0  0  0
  147.5600  137.1563  183.2243 F   0  0  0  0  0  0  0  0  0  0  0  0
  146.7652  138.2173  185.0953 F   0  0  0  0  0  0  0  0  0  0  0  0
 33 34  1  0  0  0
 34 35  1  0  0  0
 35 36  1  0  0  0
 36 37  1  0  0  0
 37 38  1  0  0  0
 38 39  1  0  0  0
 37 27  1  0  0  0
 27 28  2  0  0  0
 28 29  1  0  0  0
 29 30  2  0  0  0
 30 31  1  0  0  0
 31 32  2  0  0  0
 30 23  1  0  0  0
 23 24  2  0  0  0
 23 25  1  0  0  0
 25  1  1  0  0  0
  1  2  2  0  0  0
  2  3  1  0  0  0
  3  4  2  0  0  0
  4  5  1  0  0  0
  5  6  2  0  0  0
  5 40  1  0  0  0
 40 41  1  0  0  0
 40 42  1  0  0  0
 40 43  1  0  0  0
  3  7  1  0  0  0
  7  8  1  0  0  0
  8  9  1  0  0  0
  9 10  1  0  0  0
 10 11  1  0  0  0
 11 12  1  0  0  0
 10 13  1  0  0  0
 13 14  2  0  0  0
 14 15  1  0  0  0
 15 16  2  0  0  0
 16 17  1  0  0  0
 17 18  2  0  0  0
 16 19  1  0  0  0
 19 20  1  0  0  0
 19 21  1  0  0  0
 19 22  1  0  0  0
 39 34  1  0  0  0
 32 27  1  0  0  0
  6  1  1  0  0  0
 12  7  1  0  0  0
 18 13  1  0  0  0
 25 26  1  0  0  0
M  END
> <minimizedAffinity>
-5.72082

> <CNNscore>
0.1756157279

> <CNNaffinity>
6.1625447273

> <CNN_VS>
1.0822397470

> <CNNaffinity_variance>
0.6207828522

$$$$
[H]c1nc(N2C([H])([H])C([H])([H])N(c3nc(C(F)(F)F)nc(N([H])C(=O)c4c([H])c([H])c(N5C([H])([H])C([H])([H])N(C([H])([H])[H])C([H])([H])C5([H])[H])c([H])c4[H])c3[H])C([H])([H])C2([H])[H])nc([H])c1C(F)(F)F


 43 47  0  0  0  0  0  0  0  0999 V2000
  150.6329  136.3840  184.4818 C   0  0  0  0  0  0  0  0  0  0  0  0
  151.6406  137.2598  184.1725 C   0  0  0  0  0  0  0  0  0  0  0  0
  151.6184  137.9327  182.9394 C   0  0  0  0  0  0  0  0  0  0  0  0
  150.6059  137.6917  182.1094 N   0  0  0  0  0  0  0  0  0  0  0  0
  149.5886  136.8293  182.3864 C   0  0  0  0  0  0  0  0  0  0  0  0
  149.6509  136.2113  183.5699 N   0  0  0  0  0  0  0  0  0  0  0  0
  152.6969  138.8101  182.6684 N   0  0  0  0  0  0  0  0  0  0  0  0
  152.7004  139.6044  181.4722 C   0  0  0  0  0  0  0  0  0  0  0  0
  152.9802  141.0585  181.8391 C   0  0  0  0  0  0  0  0  0  0  0  0
  154.1827  141.0721  182.6114 N   0  0  0  0  0  0  0  0  0  0  0  0
  154.2032  140.3193  183.8409 C   0  0  0  0  0  0  0  0  0  0  0  0
  153.7937  138.8811  183.6004 C   0  0  0  0  0  0  0  0  0  0  0  0
  155.3284  141.7990  182.2168 C   0  0  0  0  0  0  0  0  0  0  0  0
  156.3416  141.1504  181.5733 N   0  0  0  0  0  0  0  0  0  0  0  0
  157.4657  141.7749  181.1959 C   0  0  0  0  0  0  0  0  0  0  0  0
  157.6546  143.1269  181.4439 C   0  0  0  0  0  0  0  0  0  0  0  0
  156.6117  143.7718  182.1011 C   0  0  0  0  0  0  0  0  0  0  0  0
  155.4951  143.1112  182.4654 N   0  0  0  0  0  0  0  0  0  0  0  0
  158.9165  143.8036  181.0253 C   0  0  0  0  0  0  0  0  0  0  0  0
  159.9732  143.1926  181.7000 F   0  0  0  0  0  0  0  0  0  0  0  0
  158.8614  145.1441  181.3726 F   0  0  0  0  0  0  0  0  0  0  0  0
  159.1378  143.6183  179.6903 F   0  0  0  0  0  0  0  0  0  0  0  0
  149.9665  136.2665  186.8327 C   0  0  0  0  0  0  0  0  0  0  0  0
  149.4389  137.4164  186.7243 O   0  0  0  0  0  0  0  0  0  0  0  0
  150.6185  135.6731  185.7236 N   0  0  0  0  0  0  0  0  0  0  0  0
  151.0748  134.7333  185.7541 H   0  0  0  0  0  0  0  0  0  0  0  0
  149.5697  134.2244  190.5519 C   0  0  0  0  0  0  0  0  0  0  0  0
  148.5123  134.3267  189.6772 C   0  0  0  0  0  0  0  0  0  0  0  0
  148.6758  135.0054  188.4940 C   0  0  0  0  0  0  0  0  0  0  0  0
  149.8662  135.6052  188.1217 C   0  0  0  0  0  0  0  0  0  0  0  0
  150.9119  135.4940  189.0125 C   0  0  0  0  0  0  0  0  0  0  0  0
  150.7889  134.8221  190.2091 C   0  0  0  0  0  0  0  0  0  0  0  0
  147.6263  130.6794  191.9101 C   0  0  0  0  0  0  0  0  0  0  0  0
  147.8887  131.5921  193.0061 N   0  0  0  0  0  0  0  0  0  0  0  0
  149.3123  131.6255  193.2596 C   0  0  0  0  0  0  0  0  0  0  0  0
  150.0550  132.2505  192.0737 C   0  0  0  0  0  0  0  0  0  0  0  0
  149.3870  133.4789  191.7433 N   0  0  0  0  0  0  0  0  0  0  0  0
  148.4064  133.9563  192.7278 C   0  0  0  0  0  0  0  0  0  0  0  0
  147.3123  132.8793  192.7546 C   0  0  0  0  0  0  0  0  0  0  0  0
  148.4591  136.5925  181.4317 C   0  0  0  0  0  0  0  0  0  0  0  0
  149.0250  136.1751  180.2405 F   0  0  0  0  0  0  0  0  0  0  0  0
  147.8280  137.8072  181.2244 F   0  0  0  0  0  0  0  0  0  0  0  0
  147.6104  135.6102  181.8441 F   0  0  0  0  0  0  0  0  0  0  0  0
 33 34  1  0  0  0
 34 35  1  0  0  0
 35 36  1  0  0  0
 36 37  1  0  0  0
 37 38  1  0  0  0
 38 39  1  0  0  0
 37 27  1  0  0  0
 27 28  2  0  0  0
 28 29  1  0  0  0
 29 30  2  0  0  0
 30 31  1  0  0  0
 31 32  2  0  0  0
 30 23  1  0  0  0
 23 24  2  0  0  0
 23 25  1  0  0  0
 25  1  1  0  0  0
  1  2  2  0  0  0
  2  3  1  0  0  0
  3  4  2  0  0  0
  4  5  1  0  0  0
  5  6  2  0  0  0
  5 40  1  0  0  0
 40 41  1  0  0  0
 40 42  1  0  0  0
 40 43  1  0  0  0
  3  7  1  0  0  0
  7  8  1  0  0  0
  8  9  1  0  0  0
  9 10  1  0  0  0
 10 11  1  0  0  0
 11 12  1  0  0  0
 10 13  1  0  0  0
 13 14  2  0  0  0
 14 15  1  0  0  0
 15 16  2  0  0  0
 16 17  1  0  0  0
 17 18  2  0  0  0
 16 19  1  0  0  0
 19 20  1  0  0  0
 19 21  1  0  0  0
 19 22  1  0  0  0
 39 34  1  0  0  0
 32 27  1  0  0  0
  6  1  1  0  0  0
 12  7  1  0  0  0
 18 13  1  0  0  0
 25 26  1  0  0  0
M  END
> <minimizedAffinity>
-7.06723

> <CNNscore>
0.1719249189

> <CNNaffinity>
5.9863724709

> <CNN_VS>
1.0292066336

> <CNNaffinity_variance>
0.2393936664

$$$$
[H]c1nc(N2C([H])([H])C([H])([H])N(c3nc(C(F)(F)F)nc(N([H])C(=O)c4c([H])c([H])c(N5C([H])([H])C([H])([H])N(C([H])([H])[H])C([H])([H])C5([H])[H])c([H])c4[H])c3[H])C([H])([H])C2([H])[H])nc([H])c1C(F)(F)F


 43 47  0  0  0  0  0  0  0  0999 V2000
  151.2590  137.4704  183.2682 C   0  0  0  0  0  0  0  0  0  0  0  0
  152.4948  138.0078  183.5177 C   0  0  0  0  0  0  0  0  0  0  0  0
  152.9531  139.0815  182.7360 C   0  0  0  0  0  0  0  0  0  0  0  0
  152.1586  139.5421  181.7723 N   0  0  0  0  0  0  0  0  0  0  0  0
  150.9253  139.0322  181.4994 C   0  0  0  0  0  0  0  0  0  0  0  0
  150.5307  138.0119  182.2672 N   0  0  0  0  0  0  0  0  0  0  0  0
  154.2457  139.5815  183.0285 N   0  0  0  0  0  0  0  0  0  0  0  0
  154.6456  140.8757  182.5523 C   0  0  0  0  0  0  0  0  0  0  0  0
  155.2139  141.6823  183.7157 C   0  0  0  0  0  0  0  0  0  0  0  0
  156.2363  140.8859  184.3183 N   0  0  0  0  0  0  0  0  0  0  0  0
  155.8640  139.5967  184.8457 C   0  0  0  0  0  0  0  0  0  0  0  0
  155.1550  138.7676  183.7950 C   0  0  0  0  0  0  0  0  0  0  0  0
  157.5761  141.3233  184.4202 C   0  0  0  0  0  0  0  0  0  0  0  0
  158.2146  141.2440  185.6232 N   0  0  0  0  0  0  0  0  0  0  0  0
  159.4753  141.6656  185.7937 C   0  0  0  0  0  0  0  0  0  0  0  0
  160.1999  142.2086  184.7425 C   0  0  0  0  0  0  0  0  0  0  0  0
  159.5330  142.2821  183.5237 C   0  0  0  0  0  0  0  0  0  0  0  0
  158.2645  141.8476  183.3893 N   0  0  0  0  0  0  0  0  0  0  0  0
  161.5989  142.6818  184.9529 C   0  0  0  0  0  0  0  0  0  0  0  0
  162.4426  141.8732  184.1915 F   0  0  0  0  0  0  0  0  0  0  0  0
  161.9323  142.5633  186.2927 F   0  0  0  0  0  0  0  0  0  0  0  0
  161.7466  143.9577  184.4885 F   0  0  0  0  0  0  0  0  0  0  0  0
  149.9679  136.6551  185.1795 C   0  0  0  0  0  0  0  0  0  0  0  0
  149.7483  137.8574  185.5239 O   0  0  0  0  0  0  0  0  0  0  0  0
  150.7550  136.3728  184.0358 N   0  0  0  0  0  0  0  0  0  0  0  0
  150.9738  135.4052  183.7070 H   0  0  0  0  0  0  0  0  0  0  0  0
  148.1962  133.6953  187.6817 C   0  0  0  0  0  0  0  0  0  0  0  0
  148.7397  134.8441  188.2095 C   0  0  0  0  0  0  0  0  0  0  0  0
  149.3145  135.7682  187.3710 C   0  0  0  0  0  0  0  0  0  0  0  0
  149.3810  135.6088  185.9978 C   0  0  0  0  0  0  0  0  0  0  0  0
  148.8339  134.4506  185.4894 C   0  0  0  0  0  0  0  0  0  0  0  0
  148.2484  133.4992  186.2960 C   0  0  0  0  0  0  0  0  0  0  0  0
  147.7369  132.9998  191.8643 C   0  0  0  0  0  0  0  0  0  0  0  0
  147.4962  131.7926  191.0975 N   0  0  0  0  0  0  0  0  0  0  0  0
  146.2501  131.9341  190.3768 C   0  0  0  0  0  0  0  0  0  0  0  0
  146.3665  133.0300  189.3119 C   0  0  0  0  0  0  0  0  0  0  0  0
  147.5682  132.7815  188.5644 N   0  0  0  0  0  0  0  0  0  0  0  0
  148.1984  131.4730  188.7868 C   0  0  0  0  0  0  0  0  0  0  0  0
  148.6181  131.4789  190.2637 C   0  0  0  0  0  0  0  0  0  0  0  0
  150.0543  139.5849  180.4135 C   0  0  0  0  0  0  0  0  0  0  0  0
  149.8734  138.5693  179.4919 F   0  0  0  0  0  0  0  0  0  0  0  0
  150.7489  140.6182  179.8083 F   0  0  0  0  0  0  0  0  0  0  0  0
  148.8207  139.9549  180.8571 F   0  0  0  0  0  0  0  0  0  0  0  0
 33 34  1  0  0  0
 34 35  1  0  0  0
 35 36  1  0  0  0
 36 37  1  0  0  0
 37 38  1  0  0  0
 38 39  1  0  0  0
 37 27  1  0  0  0
 27 28  2  0  0  0
 28 29  1  0  0  0
 29 30  2  0  0  0
 30 31  1  0  0  0
 31 32  2  0  0  0
 30 23  1  0  0  0
 23 24  2  0  0  0
 23 25  1  0  0  0
 25  1  1  0  0  0
  1  2  2  0  0  0
  2  3  1  0  0  0
  3  4  2  0  0  0
  4  5  1  0  0  0
  5  6  2  0  0  0
  5 40  1  0  0  0
 40 41  1  0  0  0
 40 42  1  0  0  0
 40 43  1  0  0  0
  3  7  1  0  0  0
  7  8  1  0  0  0
  8  9  1  0  0  0
  9 10  1  0  0  0
 10 11  1  0  0  0
 11 12  1  0  0  0
 10 13  1  0  0  0
 13 14  2  0  0  0
 14 15  1  0  0  0
 15 16  2  0  0  0
 16 17  1  0  0  0
 17 18  2  0  0  0
 16 19  1  0  0  0
 19 20  1  0  0  0
 19 21  1  0  0  0
 19 22  1  0  0  0
 39 34  1  0  0  0
 32 27  1  0  0  0
  6  1  1  0  0  0
 12  7  1  0  0  0
 18 13  1  0  0  0
 25 26  1  0  0  0
M  END
> <minimizedAffinity>
-7.54528

> <CNNscore>
0.1641224176

> <CNNaffinity>
6.3509407043

> <CNN_VS>
1.0423316956

> <CNNaffinity_variance>
0.1392890066

$$$$
[H]c1nc(N2C([H])([H])C([H])([H])N(c3nc(C(=O)N([H])c4c([H])c([H])c(C(F)(F)F)c([H])c4[H])nc(N4C([H])([H])C([H])([H])N(C([H])([H])[H])C([H])([H])C4([H])[H])c3[H])C([H])([H])C2([H])[H])sc1C(F)(F)F


 42 46  0  0  0  0  0  0  0  0999 V2000
  148.9707  136.4847  182.7789 C   0  0  0  0  0  0  0  0  0  0  0  0
  150.1522  137.1115  182.5243 C   0  0  0  0  0  0  0  0  0  0  0  0
  151.0495  137.4088  183.5366 C   0  0  0  0  0  0  0  0  0  0  0  0
  150.7234  137.0601  184.7651 N   0  0  0  0  0  0  0  0  0  0  0  0
  149.5468  136.4245  185.0753 C   0  0  0  0  0  0  0  0  0  0  0  0
  148.7066  136.1574  184.0834 N   0  0  0  0  0  0  0  0  0  0  0  0
  146.8115  134.9677  177.9565 C   0  0  0  0  0  0  0  0  0  0  0  0
  147.5953  135.3696  179.1393 N   0  0  0  0  0  0  0  0  0  0  0  0
  147.3311  134.4064  180.1525 C   0  0  0  0  0  0  0  0  0  0  0  0
  147.5208  134.8606  181.5678 C   0  0  0  0  0  0  0  0  0  0  0  0
  148.0808  136.1702  181.7336 N   0  0  0  0  0  0  0  0  0  0  0  0
  147.7173  137.2083  180.7785 C   0  0  0  0  0  0  0  0  0  0  0  0
  147.1957  136.7046  179.4848 C   0  0  0  0  0  0  0  0  0  0  0  0
  152.2719  138.0560  183.2575 N   0  0  0  0  0  0  0  0  0  0  0  0
  153.4350  137.9053  184.1450 C   0  0  0  0  0  0  0  0  0  0  0  0
  154.0105  139.2936  184.4010 C   0  0  0  0  0  0  0  0  0  0  0  0
  154.2770  139.8828  183.1023 N   0  0  0  0  0  0  0  0  0  0  0  0
  153.8328  139.2409  181.8832 C   0  0  0  0  0  0  0  0  0  0  0  0
  152.3745  138.8706  182.0706 C   0  0  0  0  0  0  0  0  0  0  0  0
  154.9973  141.1323  182.9828 C   0  0  0  0  0  0  0  0  0  0  0  0
  154.6440  142.3188  183.4509 N   0  0  0  0  0  0  0  0  0  0  0  0
  155.4221  143.3345  183.2617 C   0  0  0  0  0  0  0  0  0  0  0  0
  156.5922  143.1419  182.5767 C   0  0  0  0  0  0  0  0  0  0  0  0
  156.5024  141.4654  182.2363 S   0  0  0  0  0  0  0  0  0  0  0  0
  157.6426  144.1707  182.2408 C   0  0  0  0  0  0  0  0  0  0  0  0
  157.1179  145.4142  182.4396 F   0  0  0  0  0  0  0  0  0  0  0  0
  158.0207  143.9209  180.9415 F   0  0  0  0  0  0  0  0  0  0  0  0
  158.7588  143.9604  183.0269 F   0  0  0  0  0  0  0  0  0  0  0  0
  149.4227  136.1311  186.4846 C   0  0  0  0  0  0  0  0  0  0  0  0
  148.3166  136.3829  187.0912 O   0  0  0  0  0  0  0  0  0  0  0  0
  150.4527  135.5731  187.2491 N   0  0  0  0  0  0  0  0  0  0  0  0
  151.3739  135.3784  186.7848 H   0  0  0  0  0  0  0  0  0  0  0  0
  150.3220  135.2470  188.6346 C   0  0  0  0  0  0  0  0  0  0  0  0
  149.4491  135.8715  189.4876 C   0  0  0  0  0  0  0  0  0  0  0  0
  149.3793  135.5475  190.8397 C   0  0  0  0  0  0  0  0  0  0  0  0
  150.1967  134.5769  191.3756 C   0  0  0  0  0  0  0  0  0  0  0  0
  151.0772  133.9357  190.5455 C   0  0  0  0  0  0  0  0  0  0  0  0
  151.1404  134.2677  189.1796 C   0  0  0  0  0  0  0  0  0  0  0  0
  150.0746  134.2395  192.7921 C   0  0  0  0  0  0  0  0  0  0  0  0
  148.9142  133.4590  192.9698 F   0  0  0  0  0  0  0  0  0  0  0  0
  149.9202  135.4108  193.5259 F   0  0  0  0  0  0  0  0  0  0  0  0
  151.1008  133.4837  193.3010 F   0  0  0  0  0  0  0  0  0  0  0  0
  7  8  1  0  0  0
  8  9  1  0  0  0
  9 10  1  0  0  0
 10 11  1  0  0  0
 11 12  1  0  0  0
 12 13  1  0  0  0
 11  1  1  0  0  0
  1  2  2  0  0  0
  2  3  1  0  0  0
  3  4  2  0  0  0
  4  5  1  0  0  0
  5  6  2  0  0  0
  5 29  1  0  0  0
 29 30  2  0  0  0
 29 31  1  0  0  0
 31 33  1  0  0  0
 33 34  2  0  0  0
 34 35  1  0  0  0
 35 36  2  0  0  0
 36 37  1  0  0  0
 37 38  2  0  0  0
 36 39  1  0  0  0
 39 40  1  0  0  0
 39 41  1  0  0  0
 39 42  1  0  0  0
  3 14  1  0  0  0
 14 15  1  0  0  0
 15 16  1  0  0  0
 16 17  1  0  0  0
 17 18  1  0  0  0
 18 19  1  0  0  0
 17 20  1  0  0  0
 20 21  2  0  0  0
 21 22  1  0  0  0
 22 23  2  0  0  0
 23 24  1  0  0  0
 23 25  1  0  0  0
 25 26  1  0  0  0
 25 27  1  0  0  0
 25 28  1  0  0  0
 13  8  1  0  0  0
  6  1  1  0  0  0
 38 33  1  0  0  0
 19 14  1  0  0  0
 24 20  1  0  0  0
 31 32  1  0  0  0
M  END
> <minimizedAffinity>
-5.28436

> <CNNscore>
0.2743075192

> <CNNaffinity>
6.2403578758

> <CNN_VS>
1.7117770910

> <CNNaffinity_variance>
0.4483440816

$$$$
[H]c1nc(N2C([H])([H])C([H])([H])N(c3nc(C(=O)N([H])c4c([H])c([H])c(C(F)(F)F)c([H])c4[H])nc(N4C([H])([H])C([H])([H])N(C([H])([H])[H])C([H])([H])C4([H])[H])c3[H])C([H])([H])C2([H])[H])sc1C(F)(F)F


 42 46  0  0  0  0  0  0  0  0999 V2000
  153.7267  133.3474  187.2741 C   0  0  0  0  0  0  0  0  0  0  0  0
  154.1901  134.6241  187.1793 C   0  0  0  0  0  0  0  0  0  0  0  0
  153.9149  135.4167  186.0774 C   0  0  0  0  0  0  0  0  0  0  0  0
  153.1808  134.8938  185.1157 N   0  0  0  0  0  0  0  0  0  0  0  0
  152.6871  133.6138  185.1628 C   0  0  0  0  0  0  0  0  0  0  0  0
  152.9721  132.8786  186.2303 N   0  0  0  0  0  0  0  0  0  0  0  0
  154.9237  131.6737  192.3716 C   0  0  0  0  0  0  0  0  0  0  0  0
  154.6561  132.3357  191.0813 N   0  0  0  0  0  0  0  0  0  0  0  0
  153.3069  132.0390  190.7407 C   0  0  0  0  0  0  0  0  0  0  0  0
  152.9627  132.0878  189.2831 C   0  0  0  0  0  0  0  0  0  0  0  0
  153.9978  132.5640  188.4126 N   0  0  0  0  0  0  0  0  0  0  0  0
  155.3800  132.2273  188.7261 C   0  0  0  0  0  0  0  0  0  0  0  0
  155.6185  131.8406  190.1378 C   0  0  0  0  0  0  0  0  0  0  0  0
  154.3994  136.7393  185.9941 N   0  0  0  0  0  0  0  0  0  0  0  0
  153.5327  137.8430  185.5537 C   0  0  0  0  0  0  0  0  0  0  0  0
  154.2999  138.6539  184.5154 C   0  0  0  0  0  0  0  0  0  0  0  0
  155.5554  139.0414  185.1304 N   0  0  0  0  0  0  0  0  0  0  0  0
  155.9561  138.5080  186.4151 C   0  0  0  0  0  0  0  0  0  0  0  0
  155.7699  137.0043  186.3603 C   0  0  0  0  0  0  0  0  0  0  0  0
  156.4487  139.9756  184.4796 C   0  0  0  0  0  0  0  0  0  0  0  0
  156.1628  140.8254  183.5060 N   0  0  0  0  0  0  0  0  0  0  0  0
  157.0894  141.6029  183.0480 C   0  0  0  0  0  0  0  0  0  0  0  0
  158.3430  141.5154  183.5922 C   0  0  0  0  0  0  0  0  0  0  0  0
  158.1089  140.2870  184.7630 S   0  0  0  0  0  0  0  0  0  0  0  0
  159.5666  142.3143  183.2192 C   0  0  0  0  0  0  0  0  0  0  0  0
  159.6495  143.3994  184.0419 F   0  0  0  0  0  0  0  0  0  0  0  0
  159.4267  142.6283  181.8867 F   0  0  0  0  0  0  0  0  0  0  0  0
  160.6871  141.5132  183.3231 F   0  0  0  0  0  0  0  0  0  0  0  0
  151.8987  133.2737  184.0008 C   0  0  0  0  0  0  0  0  0  0  0  0
  150.6358  133.0650  184.1284 O   0  0  0  0  0  0  0  0  0  0  0  0
  152.4338  133.1583  182.7135 N   0  0  0  0  0  0  0  0  0  0  0  0
  153.4658  133.3011  182.5839 H   0  0  0  0  0  0  0  0  0  0  0  0
  151.6515  132.8586  181.5555 C   0  0  0  0  0  0  0  0  0  0  0  0
  151.9074  131.8093  180.7110 C   0  0  0  0  0  0  0  0  0  0  0  0
  151.1413  131.5741  179.5727 C   0  0  0  0  0  0  0  0  0  0  0  0
  150.0866  132.3990  179.2494 C   0  0  0  0  0  0  0  0  0  0  0  0
  149.8075  133.4540  180.0768 C   0  0  0  0  0  0  0  0  0  0  0  0
  150.5854  133.6839  181.2265 C   0  0  0  0  0  0  0  0  0  0  0  0
  149.2836  132.1042  178.0648 C   0  0  0  0  0  0  0  0  0  0  0  0
  149.4594  133.1463  177.1319 F   0  0  0  0  0  0  0  0  0  0  0  0
  147.9402  132.0718  178.4236 F   0  0  0  0  0  0  0  0  0  0  0  0
  149.6315  130.9572  177.3963 F   0  0  0  0  0  0  0  0  0  0  0  0
  7  8  1  0  0  0
  8  9  1  0  0  0
  9 10  1  0  0  0
 10 11  1  0  0  0
 11 12  1  0  0  0
 12 13  1  0  0  0
 11  1  1  0  0  0
  1  2  2  0  0  0
  2  3  1  0  0  0
  3  4  2  0  0  0
  4  5  1  0  0  0
  5  6  2  0  0  0
  5 29  1  0  0  0
 29 30  2  0  0  0
 29 31  1  0  0  0
 31 33  1  0  0  0
 33 34  2  0  0  0
 34 35  1  0  0  0
 35 36  2  0  0  0
 36 37  1  0  0  0
 37 38  2  0  0  0
 36 39  1  0  0  0
 39 40  1  0  0  0
 39 41  1  0  0  0
 39 42  1  0  0  0
  3 14  1  0  0  0
 14 15  1  0  0  0
 15 16  1  0  0  0
 16 17  1  0  0  0
 17 18  1  0  0  0
 18 19  1  0  0  0
 17 20  1  0  0  0
 20 21  2  0  0  0
 21 22  1  0  0  0
 22 23  2  0  0  0
 23 24  1  0  0  0
 23 25  1  0  0  0
 25 26  1  0  0  0
 25 27  1  0  0  0
 25 28  1  0  0  0
 13  8  1  0  0  0
  6  1  1  0  0  0
 38 33  1  0  0  0
 19 14  1  0  0  0
 24 20  1  0  0  0
 31 32  1  0  0  0
M  END
> <minimizedAffinity>
-4.07551

> <CNNscore>
0.2473225594

> <CNNaffinity>
6.1842398643

> <CNN_VS>
1.5295020342

> <CNNaffinity_variance>
0.5903486013

$$$$
[H]c1nc(N2C([H])([H])C([H])([H])N(c3nc(C(=O)N([H])c4c([H])c([H])c(C(F)(F)F)c([H])c4[H])nc(N4C([H])([H])C([H])([H])N(C([H])([H])[H])C([H])([H])C4([H])[H])c3[H])C([H])([H])C2([H])[H])sc1C(F)(F)F


 42 46  0  0  0  0  0  0  0  0999 V2000
  152.3047  136.3922  184.1075 C   0  0  0  0  0  0  0  0  0  0  0  0
  152.9128  137.5807  183.8407 C   0  0  0  0  0  0  0  0  0  0  0  0
  154.1424  137.9066  184.3884 C   0  0  0  0  0  0  0  0  0  0  0  0
  154.7132  137.0212  185.1806 N   0  0  0  0  0  0  0  0  0  0  0  0
  154.1445  135.8082  185.4798 C   0  0  0  0  0  0  0  0  0  0  0  0
  152.9639  135.5278  184.9424 N   0  0  0  0  0  0  0  0  0  0  0  0
  146.9383  135.6508  183.1740 C   0  0  0  0  0  0  0  0  0  0  0  0
  148.3146  135.8963  183.6435 N   0  0  0  0  0  0  0  0  0  0  0  0
  148.8425  136.9420  182.8360 C   0  0  0  0  0  0  0  0  0  0  0  0
  150.3345  136.9937  182.7064 C   0  0  0  0  0  0  0  0  0  0  0  0
  151.0647  136.0688  183.5233 N   0  0  0  0  0  0  0  0  0  0  0  0
  150.4948  134.7492  183.7597 C   0  0  0  0  0  0  0  0  0  0  0  0
  149.0317  134.6571  183.5358 C   0  0  0  0  0  0  0  0  0  0  0  0
  154.7623  139.1410  184.1005 N   0  0  0  0  0  0  0  0  0  0  0  0
  155.0427  139.5493  182.7157 C   0  0  0  0  0  0  0  0  0  0  0  0
  156.4800  140.0543  182.6593 C   0  0  0  0  0  0  0  0  0  0  0  0
  156.5980  141.0955  183.6626 N   0  0  0  0  0  0  0  0  0  0  0  0
  155.5303  141.3509  184.6061 C   0  0  0  0  0  0  0  0  0  0  0  0
  155.1141  140.0162  185.1928 C   0  0  0  0  0  0  0  0  0  0  0  0
  157.7878  141.9145  183.7525 C   0  0  0  0  0  0  0  0  0  0  0  0
  158.1659  142.8860  182.9371 N   0  0  0  0  0  0  0  0  0  0  0  0
  159.2625  143.5280  183.1783 C   0  0  0  0  0  0  0  0  0  0  0  0
  159.9981  143.1738  184.2777 C   0  0  0  0  0  0  0  0  0  0  0  0
  159.0429  141.9041  184.9180 S   0  0  0  0  0  0  0  0  0  0  0  0
  161.2971  143.7772  184.7500 C   0  0  0  0  0  0  0  0  0  0  0  0
  161.2566  143.8972  186.1084 F   0  0  0  0  0  0  0  0  0  0  0  0
  161.4274  144.9739  184.0833 F   0  0  0  0  0  0  0  0  0  0  0  0
  162.3486  142.9791  184.3432 F   0  0  0  0  0  0  0  0  0  0  0  0
  154.9663  135.0043  186.3550 C   0  0  0  0  0  0  0  0  0  0  0  0
  155.2205  133.7824  186.0433 O   0  0  0  0  0  0  0  0  0  0  0  0
  155.5200  135.4832  187.5470 N   0  0  0  0  0  0  0  0  0  0  0  0
  155.3102  136.4700  187.8374 H   0  0  0  0  0  0  0  0  0  0  0  0
  156.3637  134.7030  188.3970 C   0  0  0  0  0  0  0  0  0  0  0  0
  157.6919  134.4698  188.1496 C   0  0  0  0  0  0  0  0  0  0  0  0
  158.4696  133.6732  188.9854 C   0  0  0  0  0  0  0  0  0  0  0  0
  157.9248  133.0820  190.1039 C   0  0  0  0  0  0  0  0  0  0  0  0
  156.6003  133.2996  190.3758 C   0  0  0  0  0  0  0  0  0  0  0  0
  155.8214  134.1075  189.5271 C   0  0  0  0  0  0  0  0  0  0  0  0
  158.7776  132.2783  190.9767 C   0  0  0  0  0  0  0  0  0  0  0  0
  160.1040  132.7408  190.8589 F   0  0  0  0  0  0  0  0  0  0  0  0
  158.7451  130.9551  190.5497 F   0  0  0  0  0  0  0  0  0  0  0  0
  158.4830  132.3603  192.3146 F   0  0  0  0  0  0  0  0  0  0  0  0
  7  8  1  0  0  0
  8  9  1  0  0  0
  9 10  1  0  0  0
 10 11  1  0  0  0
 11 12  1  0  0  0
 12 13  1  0  0  0
 11  1  1  0  0  0
  1  2  2  0  0  0
  2  3  1  0  0  0
  3  4  2  0  0  0
  4  5  1  0  0  0
  5  6  2  0  0  0
  5 29  1  0  0  0
 29 30  2  0  0  0
 29 31  1  0  0  0
 31 33  1  0  0  0
 33 34  2  0  0  0
 34 35  1  0  0  0
 35 36  2  0  0  0
 36 37  1  0  0  0
 37 38  2  0  0  0
 36 39  1  0  0  0
 39 40  1  0  0  0
 39 41  1  0  0  0
 39 42  1  0  0  0
  3 14  1  0  0  0
 14 15  1  0  0  0
 15 16  1  0  0  0
 16 17  1  0  0  0
 17 18  1  0  0  0
 18 19  1  0  0  0
 17 20  1  0  0  0
 20 21  2  0  0  0
 21 22  1  0  0  0
 22 23  2  0  0  0
 23 24  1  0  0  0
 23 25  1  0  0  0
 25 26  1  0  0  0
 25 27  1  0  0  0
 25 28  1  0  0  0
 13  8  1  0  0  0
  6  1  1  0  0  0
 38 33  1  0  0  0
 19 14  1  0  0  0
 24 20  1  0  0  0
 31 32  1  0  0  0
M  END
> <minimizedAffinity>
-4.54835

> <CNNscore>
0.2349656373

> <CNNaffinity>
6.5025863647

> <CNN_VS>
1.5278843641

> <CNNaffinity_variance>
0.7153430581

$$$$
[H]c1nc(N2C([H])([H])C([H])([H])N(c3nc(C(=O)N([H])c4c([H])c([H])c(C(F)(F)F)c([H])c4[H])nc(N4C([H])([H])C([H])([H])N(C([H])([H])[H])C([H])([H])C4([H])[H])c3[H])C([H])([H])C2([H])[H])sc1C(F)(F)F


 42 46  0  0  0  0  0  0  0  0999 V2000
  152.4034  139.1942  182.4594 C   0  0  0  0  0  0  0  0  0  0  0  0
  152.2130  138.3547  183.5142 C   0  0  0  0  0  0  0  0  0  0  0  0
  153.1875  138.1702  184.4809 C   0  0  0  0  0  0  0  0  0  0  0  0
  154.3143  138.8412  184.3494 N   0  0  0  0  0  0  0  0  0  0  0  0
  154.5559  139.7014  183.3072 C   0  0  0  0  0  0  0  0  0  0  0  0
  153.6037  139.8529  182.3953 N   0  0  0  0  0  0  0  0  0  0  0  0
  148.7709  138.4724  178.3971 C   0  0  0  0  0  0  0  0  0  0  0  0
  149.8272  138.4568  179.4261 N   0  0  0  0  0  0  0  0  0  0  0  0
  149.1774  138.6102  180.6825 C   0  0  0  0  0  0  0  0  0  0  0  0
  150.0031  139.1862  181.7924 C   0  0  0  0  0  0  0  0  0  0  0  0
  151.3921  139.3864  181.4983 N   0  0  0  0  0  0  0  0  0  0  0  0
  151.7659  139.7975  180.1517 C   0  0  0  0  0  0  0  0  0  0  0  0
  150.7471  139.5134  179.1121 C   0  0  0  0  0  0  0  0  0  0  0  0
  152.9749  137.2992  185.5704 N   0  0  0  0  0  0  0  0  0  0  0  0
  151.7797  136.4452  185.6425 C   0  0  0  0  0  0  0  0  0  0  0  0
  151.1911  136.5823  187.0421 C   0  0  0  0  0  0  0  0  0  0  0  0
  152.2540  136.2640  187.9768 N   0  0  0  0  0  0  0  0  0  0  0  0
  153.6169  136.0773  187.5258 C   0  0  0  0  0  0  0  0  0  0  0  0
  153.9606  137.2460  186.6232 C   0  0  0  0  0  0  0  0  0  0  0  0
  151.9863  136.1218  189.3918 C   0  0  0  0  0  0  0  0  0  0  0  0
  150.9381  135.5517  189.9646 N   0  0  0  0  0  0  0  0  0  0  0  0
  150.8677  135.5013  191.2551 C   0  0  0  0  0  0  0  0  0  0  0  0
  151.8894  136.0459  191.9864 C   0  0  0  0  0  0  0  0  0  0  0  0
  152.9198  136.6134  190.7411 S   0  0  0  0  0  0  0  0  0  0  0  0
  152.0188  136.1020  193.4879 C   0  0  0  0  0  0  0  0  0  0  0  0
  153.1322  135.4060  193.8584 F   0  0  0  0  0  0  0  0  0  0  0  0
  150.8439  135.5933  193.9923 F   0  0  0  0  0  0  0  0  0  0  0  0
  152.0876  137.4205  193.8938 F   0  0  0  0  0  0  0  0  0  0  0  0
  155.8538  140.3309  183.3891 C   0  0  0  0  0  0  0  0  0  0  0  0
  156.1382  141.3060  182.5998 O   0  0  0  0  0  0  0  0  0  0  0  0
  156.8435  139.9407  184.2973 N   0  0  0  0  0  0  0  0  0  0  0  0
  156.6467  139.1327  184.9382 H   0  0  0  0  0  0  0  0  0  0  0  0
  158.1149  140.5845  184.4071 C   0  0  0  0  0  0  0  0  0  0  0  0
  159.1227  140.4475  183.4878 C   0  0  0  0  0  0  0  0  0  0  0  0
  160.3600  141.0641  183.6515 C   0  0  0  0  0  0  0  0  0  0  0  0
  160.6195  141.8422  184.7581 C   0  0  0  0  0  0  0  0  0  0  0  0
  159.6297  141.9975  185.6917 C   0  0  0  0  0  0  0  0  0  0  0  0
  158.3811  141.3724  185.5180 C   0  0  0  0  0  0  0  0  0  0  0  0
  161.9180  142.5007  184.8823 C   0  0  0  0  0  0  0  0  0  0  0  0
  162.3240  142.4430  186.2310 F   0  0  0  0  0  0  0  0  0  0  0  0
  161.7830  143.8399  184.5318 F   0  0  0  0  0  0  0  0  0  0  0  0
  162.9370  141.9171  184.1721 F   0  0  0  0  0  0  0  0  0  0  0  0
  7  8  1  0  0  0
  8  9  1  0  0  0
  9 10  1  0  0  0
 10 11  1  0  0  0
 11 12  1  0  0  0
 12 13  1  0  0  0
 11  1  1  0  0  0
  1  2  2  0  0  0
  2  3  1  0  0  0
  3  4  2  0  0  0
  4  5  1  0  0  0
  5  6  2  0  0  0
  5 29  1  0  0  0
 29 30  2  0  0  0
 29 31  1  0  0  0
 31 33  1  0  0  0
 33 34  2  0  0  0
 34 35  1  0  0  0
 35 36  2  0  0  0
 36 37  1  0  0  0
 37 38  2  0  0  0
 36 39  1  0  0  0
 39 40  1  0  0  0
 39 41  1  0  0  0
 39 42  1  0  0  0
  3 14  1  0  0  0
 14 15  1  0  0  0
 15 16  1  0  0  0
 16 17  1  0  0  0
 17 18  1  0  0  0
 18 19  1  0  0  0
 17 20  1  0  0  0
 20 21  2  0  0  0
 21 22  1  0  0  0
 22 23  2  0  0  0
 23 24  1  0  0  0
 23 25  1  0  0  0
 25 26  1  0  0  0
 25 27  1  0  0  0
 25 28  1  0  0  0
 13  8  1  0  0  0
  6  1  1  0  0  0
 38 33  1  0  0  0
 19 14  1  0  0  0
 24 20  1  0  0  0
 31 32  1  0  0  0
M  END
> <minimizedAffinity>
-9.77777

> <CNNscore>
0.2239096016

> <CNNaffinity>
6.4957237244

> <CNN_VS>
1.4544548988

> <CNNaffinity_variance>
0.0756298453

$$$$
[H]c1nc(N2C([H])([H])C([H])([H])N(c3nc(C(=O)N([H])c4c([H])c([H])c(C(F)(F)F)c([H])c4[H])nc(N4C([H])([H])C([H])([H])N(C([H])([H])[H])C([H])([H])C4([H])[H])c3[H])C([H])([H])C2([H])[H])sc1C(F)(F)F


 42 46  0  0  0  0  0  0  0  0999 V2000
  152.8470  138.3702  182.6205 C   0  0  0  0  0  0  0  0  0  0  0  0
  152.6060  137.6278  183.7360 C   0  0  0  0  0  0  0  0  0  0  0  0
  153.4302  137.6974  184.8469 C   0  0  0  0  0  0  0  0  0  0  0  0
  154.4629  138.5145  184.7922 N   0  0  0  0  0  0  0  0  0  0  0  0
  154.7492  139.2864  183.6937 C   0  0  0  0  0  0  0  0  0  0  0  0
  153.9425  139.1937  182.6440 N   0  0  0  0  0  0  0  0  0  0  0  0
  148.5279  138.8245  179.2504 C   0  0  0  0  0  0  0  0  0  0  0  0
  149.5415  138.7769  180.3206 N   0  0  0  0  0  0  0  0  0  0  0  0
  150.6128  139.6172  179.9078 C   0  0  0  0  0  0  0  0  0  0  0  0
  151.9586  139.3152  180.4935 C   0  0  0  0  0  0  0  0  0  0  0  0
  151.9850  138.3031  181.5089 N   0  0  0  0  0  0  0  0  0  0  0  0
  151.0795  137.1688  181.3840 C   0  0  0  0  0  0  0  0  0  0  0  0
  149.9135  137.4016  180.4978 C   0  0  0  0  0  0  0  0  0  0  0  0
  153.1663  136.9243  185.9974 N   0  0  0  0  0  0  0  0  0  0  0  0
  152.0076  136.0206  186.0600 C   0  0  0  0  0  0  0  0  0  0  0  0
  151.2996  136.2599  187.3888 C   0  0  0  0  0  0  0  0  0  0  0  0
  152.2943  136.0873  188.4307 N   0  0  0  0  0  0  0  0  0  0  0  0
  153.6966  135.9288  188.1085 C   0  0  0  0  0  0  0  0  0  0  0  0
  154.0626  137.0225  187.1242 C   0  0  0  0  0  0  0  0  0  0  0  0
  151.9167  136.0669  189.8275 C   0  0  0  0  0  0  0  0  0  0  0  0
  150.7384  135.7550  190.3436 N   0  0  0  0  0  0  0  0  0  0  0  0
  150.5803  135.7774  191.6271 C   0  0  0  0  0  0  0  0  0  0  0  0
  151.6477  136.1276  192.4104 C   0  0  0  0  0  0  0  0  0  0  0  0
  152.8490  136.4110  191.2225 S   0  0  0  0  0  0  0  0  0  0  0  0
  151.6942  136.2215  193.9149 C   0  0  0  0  0  0  0  0  0  0  0  0
  150.4826  135.8439  194.4155 F   0  0  0  0  0  0  0  0  0  0  0  0
  152.0430  137.5204  194.2063 F   0  0  0  0  0  0  0  0  0  0  0  0
  152.7121  135.4197  194.3936 F   0  0  0  0  0  0  0  0  0  0  0  0
  155.9208  140.1116  183.8781 C   0  0  0  0  0  0  0  0  0  0  0  0
  155.9029  141.3371  183.4877 O   0  0  0  0  0  0  0  0  0  0  0  0
  157.1008  139.6524  184.4726 N   0  0  0  0  0  0  0  0  0  0  0  0
  157.1511  138.6498  184.7801 H   0  0  0  0  0  0  0  0  0  0  0  0
  158.2490  140.4752  184.6905 C   0  0  0  0  0  0  0  0  0  0  0  0
  158.4360  141.2453  185.8093 C   0  0  0  0  0  0  0  0  0  0  0  0
  159.5532  142.0611  185.9656 C   0  0  0  0  0  0  0  0  0  0  0  0
  160.5217  142.1257  184.9883 C   0  0  0  0  0  0  0  0  0  0  0  0
  160.3610  141.3653  183.8607 C   0  0  0  0  0  0  0  0  0  0  0  0
  159.2299  140.5419  183.7111 C   0  0  0  0  0  0  0  0  0  0  0  0
  161.6971  142.9678  185.1992 C   0  0  0  0  0  0  0  0  0  0  0  0
  161.5031  144.1883  184.5210 F   0  0  0  0  0  0  0  0  0  0  0  0
  162.8090  142.3418  184.6460 F   0  0  0  0  0  0  0  0  0  0  0  0
  161.9387  143.3136  186.5051 F   0  0  0  0  0  0  0  0  0  0  0  0
  7  8  1  0  0  0
  8  9  1  0  0  0
  9 10  1  0  0  0
 10 11  1  0  0  0
 11 12  1  0  0  0
 12 13  1  0  0  0
 11  1  1  0  0  0
  1  2  2  0  0  0
  2  3  1  0  0  0
  3  4  2  0  0  0
  4  5  1  0  0  0
  5  6  2  0  0  0
  5 29  1  0  0  0
 29 30  2  0  0  0
 29 31  1  0  0  0
 31 33  1  0  0  0
 33 34  2  0  0  0
 34 35  1  0  0  0
 35 36  2  0  0  0
 36 37  1  0  0  0
 37 38  2  0  0  0
 36 39  1  0  0  0
 39 40  1  0  0  0
 39 41  1  0  0  0
 39 42  1  0  0  0
  3 14  1  0  0  0
 14 15  1  0  0  0
 15 16  1  0  0  0
 16 17  1  0  0  0
 17 18  1  0  0  0
 18 19  1  0  0  0
 17 20  1  0  0  0
 20 21  2  0  0  0
 21 22  1  0  0  0
 22 23  2  0  0  0
 23 24  1  0  0  0
 23 25  1  0  0  0
 25 26  1  0  0  0
 25 27  1  0  0  0
 25 28  1  0  0  0
 13  8  1  0  0  0
  6  1  1  0  0  0
 38 33  1  0  0  0
 19 14  1  0  0  0
 24 20  1  0  0  0
 31 32  1  0  0  0
M  END
> <minimizedAffinity>
-9.37920

> <CNNscore>
0.2177938074

> <CNNaffinity>
6.4115343094

> <CNN_VS>
1.3963924646

> <CNNaffinity_variance>
0.0587192178

$$$$
[H]c1nc(N2C([H])([H])C([H])([H])N(c3nc(C(=O)N([H])c4c([H])c([H])c(C(F)(F)F)c([H])c4[H])nc(N4C([H])([H])C([H])([H])N(C([H])([H])[H])C([H])([H])C4([H])[H])c3[H])C([H])([H])C2([H])[H])sc1C(F)(F)F


 42 46  0  0  0  0  0  0  0  0999 V2000
  157.2767  142.1781  181.3695 C   0  0  0  0  0  0  0  0  0  0  0  0
  156.1786  141.4379  181.6853 C   0  0  0  0  0  0  0  0  0  0  0  0
  156.0653  140.7900  182.9042 C   0  0  0  0  0  0  0  0  0  0  0  0
  157.0608  140.9160  183.7587 N   0  0  0  0  0  0  0  0  0  0  0  0
  158.1882  141.6521  183.4911 C   0  0  0  0  0  0  0  0  0  0  0  0
  158.2680  142.2572  182.3127 N   0  0  0  0  0  0  0  0  0  0  0  0
  156.8446  143.5568  176.0656 C   0  0  0  0  0  0  0  0  0  0  0  0
  156.8767  142.9801  177.4225 N   0  0  0  0  0  0  0  0  0  0  0  0
  156.0780  143.8229  178.2448 C   0  0  0  0  0  0  0  0  0  0  0  0
  156.3900  143.8114  179.7104 C   0  0  0  0  0  0  0  0  0  0  0  0
  157.3642  142.8484  180.1340 N   0  0  0  0  0  0  0  0  0  0  0  0
  158.4805  142.5515  179.2464 C   0  0  0  0  0  0  0  0  0  0  0  0
  158.2530  142.9069  177.8246 C   0  0  0  0  0  0  0  0  0  0  0  0
  154.9198  140.0287  183.2190 N   0  0  0  0  0  0  0  0  0  0  0  0
  154.8378  139.2540  184.4665 C   0  0  0  0  0  0  0  0  0  0  0  0
  154.3334  137.8583  184.1176 C   0  0  0  0  0  0  0  0  0  0  0  0
  153.0864  138.0315  183.3967 N   0  0  0  0  0  0  0  0  0  0  0  0
  152.6393  139.3431  182.9780 C   0  0  0  0  0  0  0  0  0  0  0  0
  153.8095  140.0256  182.2971 C   0  0  0  0  0  0  0  0  0  0  0  0
  152.2473  136.8977  183.0731 C   0  0  0  0  0  0  0  0  0  0  0  0
  152.5974  135.6228  183.0097 N   0  0  0  0  0  0  0  0  0  0  0  0
  151.7064  134.7325  182.7157 C   0  0  0  0  0  0  0  0  0  0  0  0
  150.4230  135.1470  182.4778 C   0  0  0  0  0  0  0  0  0  0  0  0
  150.5772  136.8389  182.6975 S   0  0  0  0  0  0  0  0  0  0  0  0
  149.2313  134.2944  182.1209 C   0  0  0  0  0  0  0  0  0  0  0  0
  148.1464  134.7448  182.8147 F   0  0  0  0  0  0  0  0  0  0  0  0
  149.5874  132.9978  182.4136 F   0  0  0  0  0  0  0  0  0  0  0  0
  149.0190  134.3500  180.7571 F   0  0  0  0  0  0  0  0  0  0  0  0
  159.1301  141.6535  184.5868 C   0  0  0  0  0  0  0  0  0  0  0  0
  158.9873  140.8115  185.5488 O   0  0  0  0  0  0  0  0  0  0  0  0
  160.2165  142.5309  184.6678 N   0  0  0  0  0  0  0  0  0  0  0  0
  160.3442  143.2437  183.9077 H   0  0  0  0  0  0  0  0  0  0  0  0
  161.1717  142.5113  185.7309 C   0  0  0  0  0  0  0  0  0  0  0  0
  162.5051  142.2453  185.5554 C   0  0  0  0  0  0  0  0  0  0  0  0
  163.3959  142.2006  186.6243 C   0  0  0  0  0  0  0  0  0  0  0  0
  162.9632  142.4230  187.9129 C   0  0  0  0  0  0  0  0  0  0  0  0
  161.6361  142.6927  188.1169 C   0  0  0  0  0  0  0  0  0  0  0  0
  160.7424  142.7379  187.0310 C   0  0  0  0  0  0  0  0  0  0  0  0
  163.9308  142.4001  189.0075 C   0  0  0  0  0  0  0  0  0  0  0  0
  164.2056  141.0573  189.3365 F   0  0  0  0  0  0  0  0  0  0  0  0
  163.3675  143.0087  190.1240 F   0  0  0  0  0  0  0  0  0  0  0  0
  165.1505  142.9588  188.7180 F   0  0  0  0  0  0  0  0  0  0  0  0
  7  8  1  0  0  0
  8  9  1  0  0  0
  9 10  1  0  0  0
 10 11  1  0  0  0
 11 12  1  0  0  0
 12 13  1  0  0  0
 11  1  1  0  0  0
  1  2  2  0  0  0
  2  3  1  0  0  0
  3  4  2  0  0  0
  4  5  1  0  0  0
  5  6  2  0  0  0
  5 29  1  0  0  0
 29 30  2  0  0  0
 29 31  1  0  0  0
 31 33  1  0  0  0
 33 34  2  0  0  0
 34 35  1  0  0  0
 35 36  2  0  0  0
 36 37  1  0  0  0
 37 38  2  0  0  0
 36 39  1  0  0  0
 39 40  1  0  0  0
 39 41  1  0  0  0
 39 42  1  0  0  0
  3 14  1  0  0  0
 14 15  1  0  0  0
 15 16  1  0  0  0
 16 17  1  0  0  0
 17 18  1  0  0  0
 18 19  1  0  0  0
 17 20  1  0  0  0
 20 21  2  0  0  0
 21 22  1  0  0  0
 22 23  2  0  0  0
 23 24  1  0  0  0
 23 25  1  0  0  0
 25 26  1  0  0  0
 25 27  1  0  0  0
 25 28  1  0  0  0
 13  8  1  0  0  0
  6  1  1  0  0  0
 38 33  1  0  0  0
 19 14  1  0  0  0
 24 20  1  0  0  0
 31 32  1  0  0  0
M  END
> <minimizedAffinity>
13.64741

> <CNNscore>
0.1965432763

> <CNNaffinity>
6.6844511032

> <CNN_VS>
1.3137838840

> <CNNaffinity_variance>
0.8051732779

$$$$
[H]c1nc(N2C([H])([H])C([H])([H])N(c3nc(C(=O)N([H])c4c([H])c([H])c(C(F)(F)F)c([H])c4[H])nc(N4C([H])([H])C([H])([H])N(C([H])([H])[H])C([H])([H])C4([H])[H])c3[H])C([H])([H])C2([H])[H])sc1C(F)(F)F


 42 46  0  0  0  0  0  0  0  0999 V2000
  149.0882  137.1897  183.8150 C   0  0  0  0  0  0  0  0  0  0  0  0
  150.4115  137.4792  183.6783 C   0  0  0  0  0  0  0  0  0  0  0  0
  151.3033  137.3132  184.7249 C   0  0  0  0  0  0  0  0  0  0  0  0
  150.8281  136.8589  185.8672 N   0  0  0  0  0  0  0  0  0  0  0  0
  149.5042  136.5496  186.0570 C   0  0  0  0  0  0  0  0  0  0  0  0
  148.6746  136.7236  185.0359 N   0  0  0  0  0  0  0  0  0  0  0  0
  146.9329  138.0527  178.8322 C   0  0  0  0  0  0  0  0  0  0  0  0
  147.7111  137.8943  180.0749 N   0  0  0  0  0  0  0  0  0  0  0  0
  147.5850  136.5323  180.4663 C   0  0  0  0  0  0  0  0  0  0  0  0
  147.7754  136.2386  181.9234 C   0  0  0  0  0  0  0  0  0  0  0  0
  148.2003  137.3433  182.7328 N   0  0  0  0  0  0  0  0  0  0  0  0
  147.6965  138.6728  182.4151 C   0  0  0  0  0  0  0  0  0  0  0  0
  147.1858  138.8273  181.0314 C   0  0  0  0  0  0  0  0  0  0  0  0
  152.6728  137.6144  184.5676 N   0  0  0  0  0  0  0  0  0  0  0  0
  153.5903  137.6165  185.7171 C   0  0  0  0  0  0  0  0  0  0  0  0
  154.4193  138.8942  185.6510 C   0  0  0  0  0  0  0  0  0  0  0  0
  155.0442  138.9211  184.3419 N   0  0  0  0  0  0  0  0  0  0  0  0
  154.6875  137.9579  183.3218 C   0  0  0  0  0  0  0  0  0  0  0  0
  153.1737  137.9146  183.2479 C   0  0  0  0  0  0  0  0  0  0  0  0
  156.0462  139.9120  184.0130 C   0  0  0  0  0  0  0  0  0  0  0  0
  155.9008  141.2267  183.9671 N   0  0  0  0  0  0  0  0  0  0  0  0
  156.9161  141.9688  183.6648 C   0  0  0  0  0  0  0  0  0  0  0  0
  158.1138  141.3599  183.3998 C   0  0  0  0  0  0  0  0  0  0  0  0
  157.6982  139.7111  183.6075 S   0  0  0  0  0  0  0  0  0  0  0  0
  159.4191  142.0180  183.0287 C   0  0  0  0  0  0  0  0  0  0  0  0
  160.4454  141.2157  183.4338 F   0  0  0  0  0  0  0  0  0  0  0  0
  159.4053  143.2579  183.6253 F   0  0  0  0  0  0  0  0  0  0  0  0
  159.4529  142.2336  181.6647 F   0  0  0  0  0  0  0  0  0  0  0  0
  149.2288  136.0555  187.3866 C   0  0  0  0  0  0  0  0  0  0  0  0
  148.0265  136.0934  187.8423 O   0  0  0  0  0  0  0  0  0  0  0  0
  150.2099  135.5216  188.2287 N   0  0  0  0  0  0  0  0  0  0  0  0
  151.2037  135.4992  187.8910 H   0  0  0  0  0  0  0  0  0  0  0  0
  149.9358  134.9978  189.5300 C   0  0  0  0  0  0  0  0  0  0  0  0
  149.4806  133.7255  189.7613 C   0  0  0  0  0  0  0  0  0  0  0  0
  149.1914  133.2666  191.0434 C   0  0  0  0  0  0  0  0  0  0  0  0
  149.3527  134.0859  192.1389 C   0  0  0  0  0  0  0  0  0  0  0  0
  149.8079  135.3616  191.9368 C   0  0  0  0  0  0  0  0  0  0  0  0
  150.0997  135.8173  190.6379 C   0  0  0  0  0  0  0  0  0  0  0  0
  149.0705  133.5616  193.4733 C   0  0  0  0  0  0  0  0  0  0  0  0
  149.8215  132.3836  193.6615 F   0  0  0  0  0  0  0  0  0  0  0  0
  147.7226  133.2285  193.5543 F   0  0  0  0  0  0  0  0  0  0  0  0
  149.4260  134.3872  194.5103 F   0  0  0  0  0  0  0  0  0  0  0  0
  7  8  1  0  0  0
  8  9  1  0  0  0
  9 10  1  0  0  0
 10 11  1  0  0  0
 11 12  1  0  0  0
 12 13  1  0  0  0
 11  1  1  0  0  0
  1  2  2  0  0  0
  2  3  1  0  0  0
  3  4  2  0  0  0
  4  5  1  0  0  0
  5  6  2  0  0  0
  5 29  1  0  0  0
 29 30  2  0  0  0
 29 31  1  0  0  0
 31 33  1  0  0  0
 33 34  2  0  0  0
 34 35  1  0  0  0
 35 36  2  0  0  0
 36 37  1  0  0  0
 37 38  2  0  0  0
 36 39  1  0  0  0
 39 40  1  0  0  0
 39 41  1  0  0  0
 39 42  1  0  0  0
  3 14  1  0  0  0
 14 15  1  0  0  0
 15 16  1  0  0  0
 16 17  1  0  0  0
 17 18  1  0  0  0
 18 19  1  0  0  0
 17 20  1  0  0  0
 20 21  2  0  0  0
 21 22  1  0  0  0
 22 23  2  0  0  0
 23 24  1  0  0  0
 23 25  1  0  0  0
 25 26  1  0  0  0
 25 27  1  0  0  0
 25 28  1  0  0  0
 13  8  1  0  0  0
  6  1  1  0  0  0
 38 33  1  0  0  0
 19 14  1  0  0  0
 24 20  1  0  0  0
 31 32  1  0  0  0
M  END
> <minimizedAffinity>
-5.84234

> <CNNscore>
0.1852255464

> <CNNaffinity>
6.2264189720

> <CNN_VS>
1.1532918215

> <CNNaffinity_variance>
0.3252314329

$$$$
[H]c1nc(N2C([H])([H])C([H])([H])N(c3nc(C(=O)N([H])c4c([H])c([H])c(C(F)(F)F)c([H])c4[H])nc(N4C([H])([H])C([H])([H])N(C([H])([H])[H])C([H])([H])C4([H])[H])c3[H])C([H])([H])C2([H])[H])sc1C(F)(F)F


 42 46  0  0  0  0  0  0  0  0999 V2000
  151.5022  137.9628  182.7590 C   0  0  0  0  0  0  0  0  0  0  0  0
  151.5895  137.2986  183.9442 C   0  0  0  0  0  0  0  0  0  0  0  0
  152.6277  137.5293  184.8314 C   0  0  0  0  0  0  0  0  0  0  0  0
  153.5354  138.4226  184.4918 N   0  0  0  0  0  0  0  0  0  0  0  0
  153.4927  139.1214  183.3110 C   0  0  0  0  0  0  0  0  0  0  0  0
  152.4874  138.8742  182.4807 N   0  0  0  0  0  0  0  0  0  0  0  0
  146.8164  138.3916  179.9167 C   0  0  0  0  0  0  0  0  0  0  0  0
  147.9942  138.4579  180.8017 N   0  0  0  0  0  0  0  0  0  0  0  0
  149.1290  138.6303  179.9611 C   0  0  0  0  0  0  0  0  0  0  0  0
  150.4426  138.1668  180.5135 C   0  0  0  0  0  0  0  0  0  0  0  0
  150.4268  137.7313  181.8796 N   0  0  0  0  0  0  0  0  0  0  0  0
  149.2493  137.0295  182.3724 C   0  0  0  0  0  0  0  0  0  0  0  0
  148.0186  137.2479  181.5741 C   0  0  0  0  0  0  0  0  0  0  0  0
  152.7036  136.8356  186.0578 N   0  0  0  0  0  0  0  0  0  0  0  0
  151.8314  135.6853  186.3389 C   0  0  0  0  0  0  0  0  0  0  0  0
  151.2408  135.8759  187.7313 C   0  0  0  0  0  0  0  0  0  0  0  0
  152.3577  136.0602  188.6386 N   0  0  0  0  0  0  0  0  0  0  0  0
  153.7078  136.2206  188.1416 C   0  0  0  0  0  0  0  0  0  0  0  0
  153.6661  137.2653  187.0435 C   0  0  0  0  0  0  0  0  0  0  0  0
  152.1587  136.0889  190.0717 C   0  0  0  0  0  0  0  0  0  0  0  0
  152.6943  136.9246  190.9473 N   0  0  0  0  0  0  0  0  0  0  0  0
  152.3927  136.8127  192.2000 C   0  0  0  0  0  0  0  0  0  0  0  0
  151.5236  135.8235  192.5764 C   0  0  0  0  0  0  0  0  0  0  0  0
  151.1813  135.0932  191.0651 S   0  0  0  0  0  0  0  0  0  0  0  0
  151.0339  135.5083  193.9676 C   0  0  0  0  0  0  0  0  0  0  0  0
  149.7008  135.7897  194.0376 F   0  0  0  0  0  0  0  0  0  0  0  0
  151.8117  136.2529  194.8246 F   0  0  0  0  0  0  0  0  0  0  0  0
  151.2869  134.1807  194.2534 F   0  0  0  0  0  0  0  0  0  0  0  0
  154.5872  140.0542  183.1715 C   0  0  0  0  0  0  0  0  0  0  0  0
  155.5290  140.0647  184.0478 O   0  0  0  0  0  0  0  0  0  0  0  0
  154.6926  140.9661  182.1161 N   0  0  0  0  0  0  0  0  0  0  0  0
  153.9266  140.9949  181.3988 H   0  0  0  0  0  0  0  0  0  0  0  0
  155.7920  141.8651  181.9541 C   0  0  0  0  0  0  0  0  0  0  0  0
  156.9895  141.5134  181.3866 C   0  0  0  0  0  0  0  0  0  0  0  0
  158.0481  142.4112  181.2809 C   0  0  0  0  0  0  0  0  0  0  0  0
  157.9291  143.7007  181.7504 C   0  0  0  0  0  0  0  0  0  0  0  0
  156.7429  144.0793  182.3205 C   0  0  0  0  0  0  0  0  0  0  0  0
  155.6770  143.1665  182.4221 C   0  0  0  0  0  0  0  0  0  0  0  0
  159.0490  144.6262  181.5942 C   0  0  0  0  0  0  0  0  0  0  0  0
  159.8085  144.2279  180.4754 F   0  0  0  0  0  0  0  0  0  0  0  0
  159.8649  144.5450  182.7175 F   0  0  0  0  0  0  0  0  0  0  0  0
  158.6970  145.9295  181.3474 F   0  0  0  0  0  0  0  0  0  0  0  0
  7  8  1  0  0  0
  8  9  1  0  0  0
  9 10  1  0  0  0
 10 11  1  0  0  0
 11 12  1  0  0  0
 12 13  1  0  0  0
 11  1  1  0  0  0
  1  2  2  0  0  0
  2  3  1  0  0  0
  3  4  2  0  0  0
  4  5  1  0  0  0
  5  6  2  0  0  0
  5 29  1  0  0  0
 29 30  2  0  0  0
 29 31  1  0  0  0
 31 33  1  0  0  0
 33 34  2  0  0  0
 34 35  1  0  0  0
 35 36  2  0  0  0
 36 37  1  0  0  0
 37 38  2  0  0  0
 36 39  1  0  0  0
 39 40  1  0  0  0
 39 41  1  0  0  0
 39 42  1  0  0  0
  3 14  1  0  0  0
 14 15  1  0  0  0
 15 16  1  0  0  0
 16 17  1  0  0  0
 17 18  1  0  0  0
 18 19  1  0  0  0
 17 20  1  0  0  0
 20 21  2  0  0  0
 21 22  1  0  0  0
 22 23  2  0  0  0
 23 24  1  0  0  0
 23 25  1  0  0  0
 25 26  1  0  0  0
 25 27  1  0  0  0
 25 28  1  0  0  0
 13  8  1  0  0  0
  6  1  1  0  0  0
 38 33  1  0  0  0
 19 14  1  0  0  0
 24 20  1  0  0  0
 31 32  1  0  0  0
M  END
> <minimizedAffinity>
-8.08472

> <CNNscore>
0.1824865043

> <CNNaffinity>
6.2034120560

> <CNN_VS>
1.1320389509

> <CNNaffinity_variance>
0.0415589809

$$$$
[H]c1nc(N2C([H])([H])C([H])([H])N(c3nc(C(=O)N([H])c4c([H])c([H])c(C(F)(F)F)c([H])c4[H])nc(N4C([H])([H])C([H])([H])N(C([H])([H])[H])C([H])([H])C4([H])[H])c3[H])C([H])([H])C2([H])[H])sc1C(F)(F)F


 42 46  0  0  0  0  0  0  0  0999 V2000
  154.8022  143.0275  182.5612 C   0  0  0  0  0  0  0  0  0  0  0  0
  154.0917  141.8663  182.5774 C   0  0  0  0  0  0  0  0  0  0  0  0
  154.5566  140.7394  183.2349 C   0  0  0  0  0  0  0  0  0  0  0  0
  155.7172  140.8272  183.8534 N   0  0  0  0  0  0  0  0  0  0  0  0
  156.4715  141.9740  183.8700 C   0  0  0  0  0  0  0  0  0  0  0  0
  156.0003  143.0351  183.2271 N   0  0  0  0  0  0  0  0  0  0  0  0
  152.8248  146.5236  178.8081 C   0  0  0  0  0  0  0  0  0  0  0  0
  153.3902  145.4416  179.6355 N   0  0  0  0  0  0  0  0  0  0  0  0
  152.4056  145.1131  180.6086 C   0  0  0  0  0  0  0  0  0  0  0  0
  152.9056  144.4907  181.8768 C   0  0  0  0  0  0  0  0  0  0  0  0
  154.3028  144.1700  181.9064 N   0  0  0  0  0  0  0  0  0  0  0  0
  155.2353  145.0592  181.2267 C   0  0  0  0  0  0  0  0  0  0  0  0
  154.6217  145.9265  180.1920 C   0  0  0  0  0  0  0  0  0  0  0  0
  153.8079  139.5435  183.2458 N   0  0  0  0  0  0  0  0  0  0  0  0
  153.8839  138.6061  184.3766 C   0  0  0  0  0  0  0  0  0  0  0  0
  154.0715  137.2036  183.8092 C   0  0  0  0  0  0  0  0  0  0  0  0
  152.9849  136.9810  182.8741 N   0  0  0  0  0  0  0  0  0  0  0  0
  152.0904  138.0545  182.4960 C   0  0  0  0  0  0  0  0  0  0  0  0
  152.9468  139.2496  182.1256 C   0  0  0  0  0  0  0  0  0  0  0  0
  152.7588  135.6769  182.2889 C   0  0  0  0  0  0  0  0  0  0  0  0
  151.6508  134.9538  182.3254 N   0  0  0  0  0  0  0  0  0  0  0  0
  151.6212  133.8052  181.7315 C   0  0  0  0  0  0  0  0  0  0  0  0
  152.7484  133.3765  181.0827 C   0  0  0  0  0  0  0  0  0  0  0  0
  153.8135  134.6866  181.3721 S   0  0  0  0  0  0  0  0  0  0  0  0
  152.9422  132.0841  180.3299 C   0  0  0  0  0  0  0  0  0  0  0  0
  154.0780  132.1793  179.5802 F   0  0  0  0  0  0  0  0  0  0  0  0
  151.7957  131.8954  179.5926 F   0  0  0  0  0  0  0  0  0  0  0  0
  153.0143  131.0365  181.2274 F   0  0  0  0  0  0  0  0  0  0  0  0
  157.6947  141.8297  184.6253 C   0  0  0  0  0  0  0  0  0  0  0  0
  157.9455  140.7184  185.2225 O   0  0  0  0  0  0  0  0  0  0  0  0
  158.6489  142.8452  184.7478 N   0  0  0  0  0  0  0  0  0  0  0  0
  158.4594  143.7705  184.2894 H   0  0  0  0  0  0  0  0  0  0  0  0
  159.8773  142.6945  185.4630 C   0  0  0  0  0  0  0  0  0  0  0  0
  159.9734  142.7196  186.8304 C   0  0  0  0  0  0  0  0  0  0  0  0
  161.1958  142.6051  187.4866 C   0  0  0  0  0  0  0  0  0  0  0  0
  162.3672  142.4625  186.7761 C   0  0  0  0  0  0  0  0  0  0  0  0
  162.3000  142.4325  185.4086 C   0  0  0  0  0  0  0  0  0  0  0  0
  161.0604  142.5471  184.7528 C   0  0  0  0  0  0  0  0  0  0  0  0
  163.6290  142.3127  187.4976 C   0  0  0  0  0  0  0  0  0  0  0  0
  164.2659  143.5690  187.5548 F   0  0  0  0  0  0  0  0  0  0  0  0
  164.4552  141.4447  186.7917 F   0  0  0  0  0  0  0  0  0  0  0  0
  163.5084  141.9081  188.8035 F   0  0  0  0  0  0  0  0  0  0  0  0
  7  8  1  0  0  0
  8  9  1  0  0  0
  9 10  1  0  0  0
 10 11  1  0  0  0
 11 12  1  0  0  0
 12 13  1  0  0  0
 11  1  1  0  0  0
  1  2  2  0  0  0
  2  3  1  0  0  0
  3  4  2  0  0  0
  4  5  1  0  0  0
  5  6  2  0  0  0
  5 29  1  0  0  0
 29 30  2  0  0  0
 29 31  1  0  0  0
 31 33  1  0  0  0
 33 34  2  0  0  0
 34 35  1  0  0  0
 35 36  2  0  0  0
 36 37  1  0  0  0
 37 38  2  0  0  0
 36 39  1  0  0  0
 39 40  1  0  0  0
 39 41  1  0  0  0
 39 42  1  0  0  0
  3 14  1  0  0  0
 14 15  1  0  0  0
 15 16  1  0  0  0
 16 17  1  0  0  0
 17 18  1  0  0  0
 18 19  1  0  0  0
 17 20  1  0  0  0
 20 21  2  0  0  0
 21 22  1  0  0  0
 22 23  2  0  0  0
 23 24  1  0  0  0
 23 25  1  0  0  0
 25 26  1  0  0  0
 25 27  1  0  0  0
 25 28  1  0  0  0
 13  8  1  0  0  0
  6  1  1  0  0  0
 38 33  1  0  0  0
 19 14  1  0  0  0
 24 20  1  0  0  0
 31 32  1  0  0  0
M  END
> <minimizedAffinity>
9.84760

> <CNNscore>
0.1812656373

> <CNNaffinity>
6.5692291260

> <CNN_VS>
1.1907755136

> <CNNaffinity_variance>
0.4601412714

$$$$
[H]c1nc(N2C([H])([H])C([H])([H])C([H])([H])[C@@]([H])(N([H])C(=O)c3c([H])c([H])c(N([H])C(=O)c4c([H])c([H])c(N(C([H])([H])[H])C([H])([H])[H])c([H])c4[H])c([H])c3[H])C2([H])[H])sc1C(F)(F)F


 38 41  0  0  0  0  0  0  0  0999 V2000
  147.1846  136.1020  186.2823 C   0  0  0  0  0  0  0  0  0  0  0  0
  146.9360  136.8827  187.3612 C   0  0  0  0  0  0  0  0  0  0  0  0
  147.2274  136.4292  188.6625 C   0  0  0  0  0  0  0  0  0  0  0  0
  147.7669  135.1903  188.8520 C   0  0  0  0  0  0  0  0  0  0  0  0
  148.0099  134.3803  187.7234 C   0  0  0  0  0  0  0  0  0  0  0  0
  147.7145  134.8443  186.4373 C   0  0  0  0  0  0  0  0  0  0  0  0
  148.3623  137.2698  184.5738 C   0  0  0  0  0  0  0  0  0  0  0  0
  149.2783  137.3802  185.5275 O   0  0  0  0  0  0  0  0  0  0  0  0
  147.1715  136.5949  184.9132 N   0  0  0  0  0  0  0  0  0  0  0  0
  146.3635  136.4489  184.3333 H   0  0  0  0  0  0  0  0  0  0  0  0
  149.5122  138.8473  180.7835 C   0  0  0  0  0  0  0  0  0  0  0  0
  150.4056  138.1295  181.5805 C   0  0  0  0  0  0  0  0  0  0  0  0
  150.0570  137.6656  182.8281 C   0  0  0  0  0  0  0  0  0  0  0  0
  148.8100  137.8863  183.3579 C   0  0  0  0  0  0  0  0  0  0  0  0
  147.9231  138.6156  182.5530 C   0  0  0  0  0  0  0  0  0  0  0  0
  148.2579  139.0836  181.3076 C   0  0  0  0  0  0  0  0  0  0  0  0
  148.9812  138.6595  178.3974 C   0  0  0  0  0  0  0  0  0  0  0  0
  149.8360  139.2205  179.4606 N   0  0  0  0  0  0  0  0  0  0  0  0
  150.9085  140.1027  179.1437 C   0  0  0  0  0  0  0  0  0  0  0  0
  148.2222  134.7311  190.1588 C   0  0  0  0  0  0  0  0  0  0  0  0
  147.5716  133.7149  190.6341 O   0  0  0  0  0  0  0  0  0  0  0  0
  149.2633  135.2760  190.9377 N   0  0  0  0  0  0  0  0  0  0  0  0
  149.8015  136.0852  190.6260 H   0  0  0  0  0  0  0  0  0  0  0  0
  149.5230  134.6246  192.2344 C   0  0  0  0  0  0  0  0  0  0  0  0
  150.1311  135.7075  193.0922 C   0  0  0  0  0  0  0  0  0  0  0  0
  150.5544  135.1819  194.4586 C   0  0  0  0  0  0  0  0  0  0  0  0
  151.4232  133.9369  194.3107 C   0  0  0  0  0  0  0  0  0  0  0  0
  151.6462  133.8069  192.8827 N   0  0  0  0  0  0  0  0  0  0  0  0
  150.5187  133.5014  192.0687 C   0  0  0  0  0  0  0  0  0  0  0  0
  152.9639  134.0277  192.3984 C   0  0  0  0  0  0  0  0  0  0  0  0
  153.7953  133.1975  191.7778 N   0  0  0  0  0  0  0  0  0  0  0  0
  154.9508  133.6064  191.3897 C   0  0  0  0  0  0  0  0  0  0  0  0
  155.2774  134.9130  191.6431 C   0  0  0  0  0  0  0  0  0  0  0  0
  153.8905  135.4901  192.4324 S   0  0  0  0  0  0  0  0  0  0  0  0
  156.5706  135.6038  191.2789 C   0  0  0  0  0  0  0  0  0  0  0  0
  156.5506  136.0176  189.9817 F   0  0  0  0  0  0  0  0  0  0  0  0
  156.6487  136.6972  192.1439 F   0  0  0  0  0  0  0  0  0  0  0  0
  157.6053  134.7832  191.6073 F   0  0  0  0  0  0  0  0  0  0  0  0
 17 18  1  0  0  0
 18 19  1  0  0  0
 18 11  1  0  0  0
 11 12  2  0  0  0
 12 13  1  0  0  0
 13 14  2  0  0  0
 14 15  1  0  0  0
 15 16  2  0  0  0
 14  7  1  0  0  0
  7  8  2  0  0  0
  7  9  1  0  0  0
  9  1  1  0  0  0
  1  2  2  0  0  0
  2  3  1  0  0  0
  3  4  2  0  0  0
  4  5  1  0  0  0
  5  6  2  0  0  0
  4 20  1  0  0  0
 20 21  2  0  0  0
 20 22  1  0  0  0
 22 24  1  0  0  0
 24 25  1  0  0  0
 25 26  1  0  0  0
 26 27  1  0  0  0
 27 28  1  0  0  0
 28 29  1  0  0  0
 28 30  1  0  0  0
 30 31  2  0  0  0
 31 32  1  0  0  0
 32 33  2  0  0  0
 33 34  1  0  0  0
 33 35  1  0  0  0
 35 36  1  0  0  0
 35 37  1  0  0  0
 35 38  1  0  0  0
 16 11  1  0  0  0
  6  1  1  0  0  0
 29 24  1  0  0  0
 34 30  1  0  0  0
  9 10  1  0  0  0
 22 23  1  0  0  0
M  END
> <minimizedAffinity>
-6.12658

> <CNNscore>
0.5813267231

> <CNNaffinity>
5.8129072189

> <CNN_VS>
3.3791983128

> <CNNaffinity_variance>
0.3197705448

$$$$
[H]c1nc(N2C([H])([H])C([H])([H])C([H])([H])[C@@]([H])(N([H])C(=O)c3c([H])c([H])c(N([H])C(=O)c4c([H])c([H])c(N(C([H])([H])[H])C([H])([H])[H])c([H])c4[H])c([H])c3[H])C2([H])[H])sc1C(F)(F)F


 38 41  0  0  0  0  0  0  0  0999 V2000
  151.0870  135.5976  187.0143 C   0  0  0  0  0  0  0  0  0  0  0  0
  151.6838  136.4276  187.9034 C   0  0  0  0  0  0  0  0  0  0  0  0
  152.6055  135.9326  188.8464 C   0  0  0  0  0  0  0  0  0  0  0  0
  152.9094  134.6027  188.8752 C   0  0  0  0  0  0  0  0  0  0  0  0
  152.2731  133.7450  187.9541 C   0  0  0  0  0  0  0  0  0  0  0  0
  151.3594  134.2513  187.0240 C   0  0  0  0  0  0  0  0  0  0  0  0
  151.1998  136.4449  184.7920 C   0  0  0  0  0  0  0  0  0  0  0  0
  152.5051  136.3558  185.0140 O   0  0  0  0  0  0  0  0  0  0  0  0
  150.3490  136.0632  185.8499 N   0  0  0  0  0  0  0  0  0  0  0  0
  149.3447  136.0978  185.8712 H   0  0  0  0  0  0  0  0  0  0  0  0
  150.5399  138.1994  180.9628 C   0  0  0  0  0  0  0  0  0  0  0  0
  149.4861  137.9332  181.8386 C   0  0  0  0  0  0  0  0  0  0  0  0
  149.6867  137.3169  183.0523 C   0  0  0  0  0  0  0  0  0  0  0  0
  150.9362  136.9279  183.4668 C   0  0  0  0  0  0  0  0  0  0  0  0
  151.9865  137.1922  182.5760 C   0  0  0  0  0  0  0  0  0  0  0  0
  151.8003  137.8059  181.3632 C   0  0  0  0  0  0  0  0  0  0  0  0
  149.1855  138.5436  178.9484 C   0  0  0  0  0  0  0  0  0  0  0  0
  150.3451  138.9337  179.7723 N   0  0  0  0  0  0  0  0  0  0  0  0
  151.1923  140.0079  179.3757 C   0  0  0  0  0  0  0  0  0  0  0  0
  153.9611  134.0628  189.7287 C   0  0  0  0  0  0  0  0  0  0  0  0
  153.8489  134.3643  190.9851 O   0  0  0  0  0  0  0  0  0  0  0  0
  155.0618  133.2772  189.3303 N   0  0  0  0  0  0  0  0  0  0  0  0
  155.2142  133.0201  188.3545 H   0  0  0  0  0  0  0  0  0  0  0  0
  155.9907  132.8601  190.3963 C   0  0  0  0  0  0  0  0  0  0  0  0
  157.1935  133.7563  190.2289 C   0  0  0  0  0  0  0  0  0  0  0  0
  158.3103  133.3995  191.2025 C   0  0  0  0  0  0  0  0  0  0  0  0
  158.6251  131.9084  191.1371 C   0  0  0  0  0  0  0  0  0  0  0  0
  157.8228  131.4071  190.0367 N   0  0  0  0  0  0  0  0  0  0  0  0
  156.4082  131.4225  190.1972 C   0  0  0  0  0  0  0  0  0  0  0  0
  158.5047  130.9709  188.8687 C   0  0  0  0  0  0  0  0  0  0  0  0
  158.6462  129.7474  188.3699 N   0  0  0  0  0  0  0  0  0  0  0  0
  159.2864  129.5653  187.2699 C   0  0  0  0  0  0  0  0  0  0  0  0
  159.8062  130.6714  186.6499 C   0  0  0  0  0  0  0  0  0  0  0  0
  159.3404  131.9273  187.6918 S   0  0  0  0  0  0  0  0  0  0  0  0
  160.5883  130.6939  185.3577 C   0  0  0  0  0  0  0  0  0  0  0  0
  161.5501  131.6575  185.3899 F   0  0  0  0  0  0  0  0  0  0  0  0
  161.1646  129.4253  185.2655 F   0  0  0  0  0  0  0  0  0  0  0  0
  159.7095  130.7896  184.3231 F   0  0  0  0  0  0  0  0  0  0  0  0
 17 18  1  0  0  0
 18 19  1  0  0  0
 18 11  1  0  0  0
 11 12  2  0  0  0
 12 13  1  0  0  0
 13 14  2  0  0  0
 14 15  1  0  0  0
 15 16  2  0  0  0
 14  7  1  0  0  0
  7  8  2  0  0  0
  7  9  1  0  0  0
  9  1  1  0  0  0
  1  2  2  0  0  0
  2  3  1  0  0  0
  3  4  2  0  0  0
  4  5  1  0  0  0
  5  6  2  0  0  0
  4 20  1  0  0  0
 20 21  2  0  0  0
 20 22  1  0  0  0
 22 24  1  0  0  0
 24 25  1  0  0  0
 25 26  1  0  0  0
 26 27  1  0  0  0
 27 28  1  0  0  0
 28 29  1  0  0  0
 28 30  1  0  0  0
 30 31  2  0  0  0
 31 32  1  0  0  0
 32 33  2  0  0  0
 33 34  1  0  0  0
 33 35  1  0  0  0
 35 36  1  0  0  0
 35 37  1  0  0  0
 35 38  1  0  0  0
 16 11  1  0  0  0
  6  1  1  0  0  0
 29 24  1  0  0  0
 34 30  1  0  0  0
  9 10  1  0  0  0
 22 23  1  0  0  0
M  END
> <minimizedAffinity>
-4.84394

> <CNNscore>
0.5647715926

> <CNNaffinity>
5.9061436653

> <CNN_VS>
3.3356220722

> <CNNaffinity_variance>
0.6396217346

$$$$
[H]c1nc(N2C([H])([H])C([H])([H])C([H])([H])[C@@]([H])(N([H])C(=O)c3c([H])c([H])c(N([H])C(=O)c4c([H])c([H])c(N(C([H])([H])[H])C([H])([H])[H])c([H])c4[H])c([H])c3[H])C2([H])[H])sc1C(F)(F)F


 38 41  0  0  0  0  0  0  0  0999 V2000
  155.0390  135.3234  191.0014 C   0  0  0  0  0  0  0  0  0  0  0  0
  154.2707  135.5194  192.0999 C   0  0  0  0  0  0  0  0  0  0  0  0
  152.8739  135.6625  191.9874 C   0  0  0  0  0  0  0  0  0  0  0  0
  152.2754  135.6049  190.7625 C   0  0  0  0  0  0  0  0  0  0  0  0
  153.0853  135.4135  189.6240 C   0  0  0  0  0  0  0  0  0  0  0  0
  154.4711  135.2738  189.7516 C   0  0  0  0  0  0  0  0  0  0  0  0
  156.5622  133.4933  191.0163 C   0  0  0  0  0  0  0  0  0  0  0  0
  155.4391  132.7885  190.9632 O   0  0  0  0  0  0  0  0  0  0  0  0
  156.4289  134.8966  191.0582 N   0  0  0  0  0  0  0  0  0  0  0  0
  157.1625  135.5795  191.1342 H   0  0  0  0  0  0  0  0  0  0  0  0
  160.1306  131.1705  191.2337 C   0  0  0  0  0  0  0  0  0  0  0  0
  159.8102  131.9176  190.0990 C   0  0  0  0  0  0  0  0  0  0  0  0
  158.6340  132.6248  190.0016 C   0  0  0  0  0  0  0  0  0  0  0  0
  157.7095  132.6317  191.0164 C   0  0  0  0  0  0  0  0  0  0  0  0
  158.0372  131.8712  192.1480 C   0  0  0  0  0  0  0  0  0  0  0  0
  159.2063  131.1617  192.2579 C   0  0  0  0  0  0  0  0  0  0  0  0
  161.8749  129.7894  190.2036 C   0  0  0  0  0  0  0  0  0  0  0  0
  161.3871  130.5415  191.3750 N   0  0  0  0  0  0  0  0  0  0  0  0
  162.1695  130.6290  192.5620 C   0  0  0  0  0  0  0  0  0  0  0  0
  150.8260  135.5996  190.6039 C   0  0  0  0  0  0  0  0  0  0  0  0
  150.1593  135.8020  191.6977 O   0  0  0  0  0  0  0  0  0  0  0  0
  150.1004  135.3908  189.4134 N   0  0  0  0  0  0  0  0  0  0  0  0
  150.5668  135.2106  188.5236 H   0  0  0  0  0  0  0  0  0  0  0  0
  148.6310  135.4305  189.5246 C   0  0  0  0  0  0  0  0  0  0  0  0
  148.1512  134.2764  188.6785 C   0  0  0  0  0  0  0  0  0  0  0  0
  146.6303  134.2196  188.6014 C   0  0  0  0  0  0  0  0  0  0  0  0
  146.0612  135.5749  188.1941 C   0  0  0  0  0  0  0  0  0  0  0  0
  147.2226  136.3870  187.8818 N   0  0  0  0  0  0  0  0  0  0  0  0
  148.0952  136.7227  188.9556 C   0  0  0  0  0  0  0  0  0  0  0  0
  147.4222  136.7576  186.5245 C   0  0  0  0  0  0  0  0  0  0  0  0
  147.3907  136.0145  185.4234 N   0  0  0  0  0  0  0  0  0  0  0  0
  147.5718  136.5545  184.2707 C   0  0  0  0  0  0  0  0  0  0  0  0
  147.7957  137.9061  184.2335 C   0  0  0  0  0  0  0  0  0  0  0  0
  147.7313  138.3326  185.8748 S   0  0  0  0  0  0  0  0  0  0  0  0
  148.0314  138.7451  182.9996 C   0  0  0  0  0  0  0  0  0  0  0  0
  149.2283  138.4390  182.4267 F   0  0  0  0  0  0  0  0  0  0  0  0
  146.9777  138.4241  182.1413 F   0  0  0  0  0  0  0  0  0  0  0  0
  147.8679  140.0548  183.3308 F   0  0  0  0  0  0  0  0  0  0  0  0
 17 18  1  0  0  0
 18 19  1  0  0  0
 18 11  1  0  0  0
 11 12  2  0  0  0
 12 13  1  0  0  0
 13 14  2  0  0  0
 14 15  1  0  0  0
 15 16  2  0  0  0
 14  7  1  0  0  0
  7  8  2  0  0  0
  7  9  1  0  0  0
  9  1  1  0  0  0
  1  2  2  0  0  0
  2  3  1  0  0  0
  3  4  2  0  0  0
  4  5  1  0  0  0
  5  6  2  0  0  0
  4 20  1  0  0  0
 20 21  2  0  0  0
 20 22  1  0  0  0
 22 24  1  0  0  0
 24 25  1  0  0  0
 25 26  1  0  0  0
 26 27  1  0  0  0
 27 28  1  0  0  0
 28 29  1  0  0  0
 28 30  1  0  0  0
 30 31  2  0  0  0
 31 32  1  0  0  0
 32 33  2  0  0  0
 33 34  1  0  0  0
 33 35  1  0  0  0
 35 36  1  0  0  0
 35 37  1  0  0  0
 35 38  1  0  0  0
 16 11  1  0  0  0
  6  1  1  0  0  0
 29 24  1  0  0  0
 34 30  1  0  0  0
  9 10  1  0  0  0
 22 23  1  0  0  0
M  END
> <minimizedAffinity>
-5.43906

> <CNNscore>
0.4679970741

> <CNNaffinity>
5.5851120949

> <CNN_VS>
2.6138160229

> <CNNaffinity_variance>
0.4198469520

$$$$
[H]c1nc(N2C([H])([H])C([H])([H])C([H])([H])[C@@]([H])(N([H])C(=O)c3c([H])c([H])c(N([H])C(=O)c4c([H])c([H])c(N(C([H])([H])[H])C([H])([H])[H])c([H])c4[H])c([H])c3[H])C2([H])[H])sc1C(F)(F)F


 38 41  0  0  0  0  0  0  0  0999 V2000
  155.4168  135.5166  189.1392 C   0  0  0  0  0  0  0  0  0  0  0  0
  154.4938  135.8891  190.0583 C   0  0  0  0  0  0  0  0  0  0  0  0
  153.1506  136.0969  189.6887 C   0  0  0  0  0  0  0  0  0  0  0  0
  152.7617  135.9242  188.3923 C   0  0  0  0  0  0  0  0  0  0  0  0
  153.7326  135.5488  187.4408 C   0  0  0  0  0  0  0  0  0  0  0  0
  155.0628  135.3469  187.8229 C   0  0  0  0  0  0  0  0  0  0  0  0
  156.7256  133.6606  189.8546 C   0  0  0  0  0  0  0  0  0  0  0  0
  155.5436  133.0576  189.8631 O   0  0  0  0  0  0  0  0  0  0  0  0
  156.7408  135.0213  189.4845 N   0  0  0  0  0  0  0  0  0  0  0  0
  157.5328  135.6395  189.4558 H   0  0  0  0  0  0  0  0  0  0  0  0
  159.9588  131.2262  191.1951 C   0  0  0  0  0  0  0  0  0  0  0  0
  159.9325  131.7666  189.9084 C   0  0  0  0  0  0  0  0  0  0  0  0
  158.8664  132.5069  189.4517 C   0  0  0  0  0  0  0  0  0  0  0  0
  157.7682  132.7523  190.2379 C   0  0  0  0  0  0  0  0  0  0  0  0
  157.8009  132.1978  191.5255 C   0  0  0  0  0  0  0  0  0  0  0  0
  158.8574  131.4580  191.9931 C   0  0  0  0  0  0  0  0  0  0  0  0
  162.0299  130.0143  190.6924 C   0  0  0  0  0  0  0  0  0  0  0  0
  161.1020  130.5664  191.6973 N   0  0  0  0  0  0  0  0  0  0  0  0
  161.3786  130.4443  193.0893 C   0  0  0  0  0  0  0  0  0  0  0  0
  151.3629  135.9823  187.9849 C   0  0  0  0  0  0  0  0  0  0  0  0
  150.5096  135.8239  188.9487 O   0  0  0  0  0  0  0  0  0  0  0  0
  150.8630  136.1770  186.6812 N   0  0  0  0  0  0  0  0  0  0  0  0
  151.4831  136.2916  185.8788 H   0  0  0  0  0  0  0  0  0  0  0  0
  149.3961  136.1902  186.5358 C   0  0  0  0  0  0  0  0  0  0  0  0
  149.1090  135.1767  185.4548 C   0  0  0  0  0  0  0  0  0  0  0  0
  147.6273  135.1232  185.1025 C   0  0  0  0  0  0  0  0  0  0  0  0
  147.0931  136.5215  184.8091 C   0  0  0  0  0  0  0  0  0  0  0  0
  148.2637  137.3790  184.8323 N   0  0  0  0  0  0  0  0  0  0  0  0
  148.9249  137.5512  186.0815 C   0  0  0  0  0  0  0  0  0  0  0  0
  148.6836  137.9548  183.6029 C   0  0  0  0  0  0  0  0  0  0  0  0
  148.0997  138.8821  182.8513 N   0  0  0  0  0  0  0  0  0  0  0  0
  148.6654  139.2936  181.7726 C   0  0  0  0  0  0  0  0  0  0  0  0
  149.8746  138.7400  181.4414 C   0  0  0  0  0  0  0  0  0  0  0  0
  150.1368  137.6473  182.7130 S   0  0  0  0  0  0  0  0  0  0  0  0
  150.7132  139.0703  180.2292 C   0  0  0  0  0  0  0  0  0  0  0  0
  151.9537  138.5182  180.3329 F   0  0  0  0  0  0  0  0  0  0  0  0
  150.0172  138.5195  179.1511 F   0  0  0  0  0  0  0  0  0  0  0  0
  150.6947  140.4186  180.0461 F   0  0  0  0  0  0  0  0  0  0  0  0
 17 18  1  0  0  0
 18 19  1  0  0  0
 18 11  1  0  0  0
 11 12  2  0  0  0
 12 13  1  0  0  0
 13 14  2  0  0  0
 14 15  1  0  0  0
 15 16  2  0  0  0
 14  7  1  0  0  0
  7  8  2  0  0  0
  7  9  1  0  0  0
  9  1  1  0  0  0
  1  2  2  0  0  0
  2  3  1  0  0  0
  3  4  2  0  0  0
  4  5  1  0  0  0
  5  6  2  0  0  0
  4 20  1  0  0  0
 20 21  2  0  0  0
 20 22  1  0  0  0
 22 24  1  0  0  0
 24 25  1  0  0  0
 25 26  1  0  0  0
 26 27  1  0  0  0
 27 28  1  0  0  0
 28 29  1  0  0  0
 28 30  1  0  0  0
 30 31  2  0  0  0
 31 32  1  0  0  0
 32 33  2  0  0  0
 33 34  1  0  0  0
 33 35  1  0  0  0
 35 36  1  0  0  0
 35 37  1  0  0  0
 35 38  1  0  0  0
 16 11  1  0  0  0
  6  1  1  0  0  0
 29 24  1  0  0  0
 34 30  1  0  0  0
  9 10  1  0  0  0
 22 23  1  0  0  0
M  END
> <minimizedAffinity>
-5.44083

> <CNNscore>
0.4057382643

> <CNNaffinity>
5.4944963455

> <CNN_VS>
2.2293274403

> <CNNaffinity_variance>
0.3567075431

$$$$
[H]c1nc(N2C([H])([H])C([H])([H])C([H])([H])[C@@]([H])(N([H])C(=O)c3c([H])c([H])c(N([H])C(=O)c4c([H])c([H])c(N(C([H])([H])[H])C([H])([H])[H])c([H])c4[H])c([H])c3[H])C2([H])[H])sc1C(F)(F)F


 38 41  0  0  0  0  0  0  0  0999 V2000
  154.3663  138.1624  185.5300 C   0  0  0  0  0  0  0  0  0  0  0  0
  153.8018  137.3070  184.6441 C   0  0  0  0  0  0  0  0  0  0  0  0
  152.4977  136.8149  184.8468 C   0  0  0  0  0  0  0  0  0  0  0  0
  151.7839  137.1968  185.9451 C   0  0  0  0  0  0  0  0  0  0  0  0
  152.3853  138.0774  186.8681 C   0  0  0  0  0  0  0  0  0  0  0  0
  153.6815  138.5571  186.6534 C   0  0  0  0  0  0  0  0  0  0  0  0
  155.3549  139.9869  184.3622 C   0  0  0  0  0  0  0  0  0  0  0  0
  154.1212  140.1240  183.8932 O   0  0  0  0  0  0  0  0  0  0  0  0
  155.5785  138.9194  185.2561 N   0  0  0  0  0  0  0  0  0  0  0  0
  156.4486  138.6468  185.6792 H   0  0  0  0  0  0  0  0  0  0  0  0
  157.8222  142.8999  182.4639 C   0  0  0  0  0  0  0  0  0  0  0  0
  158.3567  141.7364  183.0197 C   0  0  0  0  0  0  0  0  0  0  0  0
  157.5730  140.8196  183.6819 C   0  0  0  0  0  0  0  0  0  0  0  0
  156.2209  141.0015  183.8336 C   0  0  0  0  0  0  0  0  0  0  0  0
  155.6954  142.1775  183.2792 C   0  0  0  0  0  0  0  0  0  0  0  0
  156.4655  143.0996  182.6167 C   0  0  0  0  0  0  0  0  0  0  0  0
  158.8322  143.3858  180.2835 C   0  0  0  0  0  0  0  0  0  0  0  0
  158.6095  143.7785  181.6877 N   0  0  0  0  0  0  0  0  0  0  0  0
  159.1529  144.9914  182.2000 C   0  0  0  0  0  0  0  0  0  0  0  0
  150.3831  136.8356  186.1274 C   0  0  0  0  0  0  0  0  0  0  0  0
  149.6165  137.1071  185.1172 O   0  0  0  0  0  0  0  0  0  0  0  0
  149.7966  136.2473  187.2664 N   0  0  0  0  0  0  0  0  0  0  0  0
  150.3434  136.0246  188.0989 H   0  0  0  0  0  0  0  0  0  0  0  0
  148.3475  135.9854  187.1975 C   0  0  0  0  0  0  0  0  0  0  0  0
  147.7620  136.7650  188.3497 C   0  0  0  0  0  0  0  0  0  0  0  0
  146.2622  136.5343  188.4903 C   0  0  0  0  0  0  0  0  0  0  0  0
  145.9475  135.0421  188.5185 C   0  0  0  0  0  0  0  0  0  0  0  0
  147.2434  134.3896  188.5509 N   0  0  0  0  0  0  0  0  0  0  0  0
  148.0688  134.5147  187.3975 C   0  0  0  0  0  0  0  0  0  0  0  0
  147.6070  133.7045  189.7416 C   0  0  0  0  0  0  0  0  0  0  0  0
  148.3739  134.0986  190.7527 N   0  0  0  0  0  0  0  0  0  0  0  0
  148.5585  133.3284  191.7655 C   0  0  0  0  0  0  0  0  0  0  0  0
  147.9397  132.1057  191.7516 C   0  0  0  0  0  0  0  0  0  0  0  0
  147.1157  132.1299  190.2683 S   0  0  0  0  0  0  0  0  0  0  0  0
  148.0146  131.0475  192.8270 C   0  0  0  0  0  0  0  0  0  0  0  0
  148.5845  129.9077  192.3467 F   0  0  0  0  0  0  0  0  0  0  0  0
  148.8076  131.6105  193.8291 F   0  0  0  0  0  0  0  0  0  0  0  0
  146.7746  130.8906  193.3651 F   0  0  0  0  0  0  0  0  0  0  0  0
 17 18  1  0  0  0
 18 19  1  0  0  0
 18 11  1  0  0  0
 11 12  2  0  0  0
 12 13  1  0  0  0
 13 14  2  0  0  0
 14 15  1  0  0  0
 15 16  2  0  0  0
 14  7  1  0  0  0
  7  8  2  0  0  0
  7  9  1  0  0  0
  9  1  1  0  0  0
  1  2  2  0  0  0
  2  3  1  0  0  0
  3  4  2  0  0  0
  4  5  1  0  0  0
  5  6  2  0  0  0
  4 20  1  0  0  0
 20 21  2  0  0  0
 20 22  1  0  0  0
 22 24  1  0  0  0
 24 25  1  0  0  0
 25 26  1  0  0  0
 26 27  1  0  0  0
 27 28  1  0  0  0
 28 29  1  0  0  0
 28 30  1  0  0  0
 30 31  2  0  0  0
 31 32  1  0  0  0
 32 33  2  0  0  0
 33 34  1  0  0  0
 33 35  1  0  0  0
 35 36  1  0  0  0
 35 37  1  0  0  0
 35 38  1  0  0  0
 16 11  1  0  0  0
  6  1  1  0  0  0
 29 24  1  0  0  0
 34 30  1  0  0  0
  9 10  1  0  0  0
 22 23  1  0  0  0
M  END
> <minimizedAffinity>
-6.41921

> <CNNscore>
0.3995894492

> <CNNaffinity>
5.9106736183

> <CNN_VS>
2.3618428707

> <CNNaffinity_variance>
0.7983740568

$$$$
[H]c1nc(N2C([H])([H])C([H])([H])C([H])([H])[C@@]([H])(N([H])C(=O)c3c([H])c([H])c(N([H])C(=O)c4c([H])c([H])c(N(C([H])([H])[H])C([H])([H])[H])c([H])c4[H])c([H])c3[H])C2([H])[H])sc1C(F)(F)F


 38 41  0  0  0  0  0  0  0  0999 V2000
  154.0730  137.5310  185.8881 C   0  0  0  0  0  0  0  0  0  0  0  0
  155.3423  137.9810  186.0359 C   0  0  0  0  0  0  0  0  0  0  0  0
  155.8858  138.9167  185.1342 C   0  0  0  0  0  0  0  0  0  0  0  0
  155.1349  139.3833  184.0950 C   0  0  0  0  0  0  0  0  0  0  0  0
  153.8192  138.8991  183.9422 C   0  0  0  0  0  0  0  0  0  0  0  0
  153.2935  137.9693  184.8454 C   0  0  0  0  0  0  0  0  0  0  0  0
  153.4178  137.4240  188.1747 C   0  0  0  0  0  0  0  0  0  0  0  0
  154.1185  138.5488  188.2437 O   0  0  0  0  0  0  0  0  0  0  0  0
  153.3577  136.7905  186.9163 N   0  0  0  0  0  0  0  0  0  0  0  0
  152.9058  135.9219  186.6888 H   0  0  0  0  0  0  0  0  0  0  0  0
  151.9842  136.1799  191.9922 C   0  0  0  0  0  0  0  0  0  0  0  0
  151.2981  135.8732  190.8159 C   0  0  0  0  0  0  0  0  0  0  0  0
  151.7262  136.3189  189.5866 C   0  0  0  0  0  0  0  0  0  0  0  0
  152.8521  137.0924  189.4510 C   0  0  0  0  0  0  0  0  0  0  0  0
  153.5290  137.4018  190.6395 C   0  0  0  0  0  0  0  0  0  0  0  0
  153.1130  136.9640  191.8713 C   0  0  0  0  0  0  0  0  0  0  0  0
  152.6902  135.0314  194.0400 C   0  0  0  0  0  0  0  0  0  0  0  0
  151.6065  135.6257  193.2350 N   0  0  0  0  0  0  0  0  0  0  0  0
  150.2664  135.6440  193.7177 C   0  0  0  0  0  0  0  0  0  0  0  0
  155.5950  140.4573  183.2227 C   0  0  0  0  0  0  0  0  0  0  0  0
  154.8291  141.5035  183.1992 O   0  0  0  0  0  0  0  0  0  0  0  0
  156.7522  140.4636  182.4174 N   0  0  0  0  0  0  0  0  0  0  0  0
  157.3861  139.6647  182.3802 H   0  0  0  0  0  0  0  0  0  0  0  0
  156.9897  141.6799  181.6190 C   0  0  0  0  0  0  0  0  0  0  0  0
  158.3252  141.4479  180.9552 C   0  0  0  0  0  0  0  0  0  0  0  0
  158.7804  142.6598  180.1513 C   0  0  0  0  0  0  0  0  0  0  0  0
  158.7136  143.9250  181.0007 C   0  0  0  0  0  0  0  0  0  0  0  0
  158.3741  143.4606  182.3330 N   0  0  0  0  0  0  0  0  0  0  0  0
  157.0831  142.8895  182.5184 C   0  0  0  0  0  0  0  0  0  0  0  0
  159.3652  143.5779  183.3446 C   0  0  0  0  0  0  0  0  0  0  0  0
  160.1699  144.5941  183.6372 N   0  0  0  0  0  0  0  0  0  0  0  0
  160.9892  144.5094  184.6245 C   0  0  0  0  0  0  0  0  0  0  0  0
  160.9932  143.3436  185.3450 C   0  0  0  0  0  0  0  0  0  0  0  0
  159.8052  142.4229  184.5572 S   0  0  0  0  0  0  0  0  0  0  0  0
  161.8652  143.0260  186.5369 C   0  0  0  0  0  0  0  0  0  0  0  0
  163.0493  142.4828  186.1402 F   0  0  0  0  0  0  0  0  0  0  0  0
  162.0732  144.2549  187.1665 F   0  0  0  0  0  0  0  0  0  0  0  0
  161.1455  142.2681  187.4084 F   0  0  0  0  0  0  0  0  0  0  0  0
 17 18  1  0  0  0
 18 19  1  0  0  0
 18 11  1  0  0  0
 11 12  2  0  0  0
 12 13  1  0  0  0
 13 14  2  0  0  0
 14 15  1  0  0  0
 15 16  2  0  0  0
 14  7  1  0  0  0
  7  8  2  0  0  0
  7  9  1  0  0  0
  9  1  1  0  0  0
  1  2  2  0  0  0
  2  3  1  0  0  0
  3  4  2  0  0  0
  4  5  1  0  0  0
  5  6  2  0  0  0
  4 20  1  0  0  0
 20 21  2  0  0  0
 20 22  1  0  0  0
 22 24  1  0  0  0
 24 25  1  0  0  0
 25 26  1  0  0  0
 26 27  1  0  0  0
 27 28  1  0  0  0
 28 29  1  0  0  0
 28 30  1  0  0  0
 30 31  2  0  0  0
 31 32  1  0  0  0
 32 33  2  0  0  0
 33 34  1  0  0  0
 33 35  1  0  0  0
 35 36  1  0  0  0
 35 37  1  0  0  0
 35 38  1  0  0  0
 16 11  1  0  0  0
  6  1  1  0  0  0
 29 24  1  0  0  0
 34 30  1  0  0  0
  9 10  1  0  0  0
 22 23  1  0  0  0
M  END
> <minimizedAffinity>
-10.06252

> <CNNscore>
0.3874402642

> <CNNaffinity>
6.5898294449

> <CNN_VS>
2.5531651974

> <CNNaffinity_variance>
0.0118298931

$$$$
[H]c1nc(N2C([H])([H])C([H])([H])C([H])([H])[C@@]([H])(N([H])C(=O)c3c([H])c([H])c(N([H])C(=O)c4c([H])c([H])c(N(C([H])([H])[H])C([H])([H])[H])c([H])c4[H])c([H])c3[H])C2([H])[H])sc1C(F)(F)F


 38 41  0  0  0  0  0  0  0  0999 V2000
  148.0775  135.6217  188.2070 C   0  0  0  0  0  0  0  0  0  0  0  0
  148.4932  134.8197  187.1974 C   0  0  0  0  0  0  0  0  0  0  0  0
  148.5838  135.3073  185.8791 C   0  0  0  0  0  0  0  0  0  0  0  0
  148.2516  136.6014  185.6025 C   0  0  0  0  0  0  0  0  0  0  0  0
  147.8077  137.4246  186.6581 C   0  0  0  0  0  0  0  0  0  0  0  0
  147.7222  136.9258  187.9620 C   0  0  0  0  0  0  0  0  0  0  0  0
  149.5532  135.3835  190.0603 C   0  0  0  0  0  0  0  0  0  0  0  0
  150.4593  135.7341  189.1564 O   0  0  0  0  0  0  0  0  0  0  0  0
  148.2192  135.2813  189.6146 N   0  0  0  0  0  0  0  0  0  0  0  0
  147.4154  134.9977  190.1474 H   0  0  0  0  0  0  0  0  0  0  0  0
  151.0508  134.6289  193.9801 C   0  0  0  0  0  0  0  0  0  0  0  0
  150.6647  135.9082  193.5765 C   0  0  0  0  0  0  0  0  0  0  0  0
  150.2329  136.1680  192.2962 C   0  0  0  0  0  0  0  0  0  0  0  0
  150.1606  135.1813  191.3445 C   0  0  0  0  0  0  0  0  0  0  0  0
  150.5587  133.9018  191.7578 C   0  0  0  0  0  0  0  0  0  0  0  0
  150.9911  133.6293  193.0309 C   0  0  0  0  0  0  0  0  0  0  0  0
  151.1219  132.9680  195.7821 C   0  0  0  0  0  0  0  0  0  0  0  0
  151.3826  134.3454  195.3232 N   0  0  0  0  0  0  0  0  0  0  0  0
  151.9564  135.3094  196.2009 C   0  0  0  0  0  0  0  0  0  0  0  0
  148.4662  137.1965  184.2887 C   0  0  0  0  0  0  0  0  0  0  0  0
  147.4209  137.7651  183.7730 O   0  0  0  0  0  0  0  0  0  0  0  0
  149.6619  137.2034  183.5420 N   0  0  0  0  0  0  0  0  0  0  0  0
  150.5137  136.7589  183.8861 H   0  0  0  0  0  0  0  0  0  0  0  0
  149.6124  137.8730  182.2296 C   0  0  0  0  0  0  0  0  0  0  0  0
  150.6046  137.1198  181.3774 C   0  0  0  0  0  0  0  0  0  0  0  0
  150.7554  137.7411  179.9941 C   0  0  0  0  0  0  0  0  0  0  0  0
  151.0310  139.2374  180.1034 C   0  0  0  0  0  0  0  0  0  0  0  0
  151.1971  139.4818  181.5242 N   0  0  0  0  0  0  0  0  0  0  0  0
  150.0543  139.3115  182.3562 C   0  0  0  0  0  0  0  0  0  0  0  0
  152.4933  139.8387  181.9847 C   0  0  0  0  0  0  0  0  0  0  0  0
  153.2668  140.8646  181.6460 N   0  0  0  0  0  0  0  0  0  0  0  0
  154.4116  141.0273  182.2082 C   0  0  0  0  0  0  0  0  0  0  0  0
  154.7883  140.1095  183.1537 C   0  0  0  0  0  0  0  0  0  0  0  0
  153.4617  139.0516  183.1851 S   0  0  0  0  0  0  0  0  0  0  0  0
  156.0797  140.1037  183.9373 C   0  0  0  0  0  0  0  0  0  0  0  0
  157.0986  139.5977  183.1888 F   0  0  0  0  0  0  0  0  0  0  0  0
  156.3158  141.4443  184.2489 F   0  0  0  0  0  0  0  0  0  0  0  0
  155.8630  139.4695  185.1216 F   0  0  0  0  0  0  0  0  0  0  0  0
 17 18  1  0  0  0
 18 19  1  0  0  0
 18 11  1  0  0  0
 11 12  2  0  0  0
 12 13  1  0  0  0
 13 14  2  0  0  0
 14 15  1  0  0  0
 15 16  2  0  0  0
 14  7  1  0  0  0
  7  8  2  0  0  0
  7  9  1  0  0  0
  9  1  1  0  0  0
  1  2  2  0  0  0
  2  3  1  0  0  0
  3  4  2  0  0  0
  4  5  1  0  0  0
  5  6  2  0  0  0
  4 20  1  0  0  0
 20 21  2  0  0  0
 20 22  1  0  0  0
 22 24  1  0  0  0
 24 25  1  0  0  0
 25 26  1  0  0  0
 26 27  1  0  0  0
 27 28  1  0  0  0
 28 29  1  0  0  0
 28 30  1  0  0  0
 30 31  2  0  0  0
 31 32  1  0  0  0
 32 33  2  0  0  0
 33 34  1  0  0  0
 33 35  1  0  0  0
 35 36  1  0  0  0
 35 37  1  0  0  0
 35 38  1  0  0  0
 16 11  1  0  0  0
  6  1  1  0  0  0
 29 24  1  0  0  0
 34 30  1  0  0  0
  9 10  1  0  0  0
 22 23  1  0  0  0
M  END
> <minimizedAffinity>
-5.81534

> <CNNscore>
0.3867428303

> <CNNaffinity>
5.9691820145

> <CNN_VS>
2.3085384369

> <CNNaffinity_variance>
0.4770215154

$$$$
[H]c1nc(N2C([H])([H])C([H])([H])C([H])([H])[C@@]([H])(N([H])C(=O)c3c([H])c([H])c(N([H])C(=O)c4c([H])c([H])c(N(C([H])([H])[H])C([H])([H])[H])c([H])c4[H])c([H])c3[H])C2([H])[H])sc1C(F)(F)F


 38 41  0  0  0  0  0  0  0  0999 V2000
  154.3272  138.1024  185.4490 C   0  0  0  0  0  0  0  0  0  0  0  0
  153.8446  137.2019  184.5593 C   0  0  0  0  0  0  0  0  0  0  0  0
  152.5417  136.6835  184.6921 C   0  0  0  0  0  0  0  0  0  0  0  0
  151.7460  137.0852  185.7252 C   0  0  0  0  0  0  0  0  0  0  0  0
  152.2623  138.0131  186.6533 C   0  0  0  0  0  0  0  0  0  0  0  0
  153.5584  138.5185  186.5086 C   0  0  0  0  0  0  0  0  0  0  0  0
  155.3522  139.9037  184.2767 C   0  0  0  0  0  0  0  0  0  0  0  0
  154.1525  139.9873  183.7159 O   0  0  0  0  0  0  0  0  0  0  0  0
  155.5371  138.8805  185.2294 N   0  0  0  0  0  0  0  0  0  0  0  0
  156.3809  138.6496  185.7244 H   0  0  0  0  0  0  0  0  0  0  0  0
  157.8375  142.8381  182.4357 C   0  0  0  0  0  0  0  0  0  0  0  0
  158.3567  141.6347  182.9162 C   0  0  0  0  0  0  0  0  0  0  0  0
  157.5694  140.7082  183.5605 C   0  0  0  0  0  0  0  0  0  0  0  0
  156.2289  140.9191  183.7676 C   0  0  0  0  0  0  0  0  0  0  0  0
  155.7192  142.1346  183.2887 C   0  0  0  0  0  0  0  0  0  0  0  0
  156.4930  143.0667  182.6448 C   0  0  0  0  0  0  0  0  0  0  0  0
  158.8984  143.3346  180.2820 C   0  0  0  0  0  0  0  0  0  0  0  0
  158.6234  143.7319  181.6756 N   0  0  0  0  0  0  0  0  0  0  0  0
  159.1182  144.9632  182.1934 C   0  0  0  0  0  0  0  0  0  0  0  0
  150.3449  136.6943  185.8262 C   0  0  0  0  0  0  0  0  0  0  0  0
  149.7179  137.1816  186.8515 O   0  0  0  0  0  0  0  0  0  0  0  0
  149.6300  135.8536  184.9490 N   0  0  0  0  0  0  0  0  0  0  0  0
  150.0713  135.4267  184.1338 H   0  0  0  0  0  0  0  0  0  0  0  0
  148.2144  135.6106  185.2807 C   0  0  0  0  0  0  0  0  0  0  0  0
  148.0899  134.1080  185.3520 C   0  0  0  0  0  0  0  0  0  0  0  0
  146.6524  133.6661  185.5977 C   0  0  0  0  0  0  0  0  0  0  0  0
  145.7080  134.3269  184.5986 C   0  0  0  0  0  0  0  0  0  0  0  0
  146.5780  135.0297  183.6738 N   0  0  0  0  0  0  0  0  0  0  0  0
  147.3195  136.1337  184.1824 C   0  0  0  0  0  0  0  0  0  0  0  0
  146.6523  134.5444  182.3403 C   0  0  0  0  0  0  0  0  0  0  0  0
  145.6865  134.3450  181.4496 N   0  0  0  0  0  0  0  0  0  0  0  0
  145.9698  133.9203  180.2696 C   0  0  0  0  0  0  0  0  0  0  0  0
  147.2890  133.6869  179.9810 C   0  0  0  0  0  0  0  0  0  0  0  0
  148.0596  134.0963  181.4364 S   0  0  0  0  0  0  0  0  0  0  0  0
  147.8484  133.1901  178.6686 C   0  0  0  0  0  0  0  0  0  0  0  0
  147.6572  131.8483  178.5371 F   0  0  0  0  0  0  0  0  0  0  0  0
  147.1379  133.8875  177.6894 F   0  0  0  0  0  0  0  0  0  0  0  0
  149.1415  133.6018  178.5673 F   0  0  0  0  0  0  0  0  0  0  0  0
 17 18  1  0  0  0
 18 19  1  0  0  0
 18 11  1  0  0  0
 11 12  2  0  0  0
 12 13  1  0  0  0
 13 14  2  0  0  0
 14 15  1  0  0  0
 15 16  2  0  0  0
 14  7  1  0  0  0
  7  8  2  0  0  0
  7  9  1  0  0  0
  9  1  1  0  0  0
  1  2  2  0  0  0
  2  3  1  0  0  0
  3  4  2  0  0  0
  4  5  1  0  0  0
  5  6  2  0  0  0
  4 20  1  0  0  0
 20 21  2  0  0  0
 20 22  1  0  0  0
 22 24  1  0  0  0
 24 25  1  0  0  0
 25 26  1  0  0  0
 26 27  1  0  0  0
 27 28  1  0  0  0
 28 29  1  0  0  0
 28 30  1  0  0  0
 30 31  2  0  0  0
 31 32  1  0  0  0
 32 33  2  0  0  0
 33 34  1  0  0  0
 33 35  1  0  0  0
 35 36  1  0  0  0
 35 37  1  0  0  0
 35 38  1  0  0  0
 16 11  1  0  0  0
  6  1  1  0  0  0
 29 24  1  0  0  0
 34 30  1  0  0  0
  9 10  1  0  0  0
 22 23  1  0  0  0
M  END
> <minimizedAffinity>
-5.50407

> <CNNscore>
0.3620727658

> <CNNaffinity>
6.1169219017

> <CNN_VS>
2.2147707939

> <CNNaffinity_variance>
0.6488291621

$$$$
[H]c1nc(N2C([H])([H])C([H])([H])C([H])([H])[C@@]([H])(N([H])C(=O)c3c([H])c([H])c(N([H])C(=O)c4c([H])c([H])c(N(C([H])([H])[H])C([H])([H])[H])c([H])c4[H])c([H])c3[H])C2([H])[H])sc1C(F)(F)F


 38 41  0  0  0  0  0  0  0  0999 V2000
  153.9495  138.5463  184.6070 C   0  0  0  0  0  0  0  0  0  0  0  0
  153.7136  138.6092  185.9396 C   0  0  0  0  0  0  0  0  0  0  0  0
  152.6554  137.8832  186.5201 C   0  0  0  0  0  0  0  0  0  0  0  0
  151.8509  137.1032  185.7415 C   0  0  0  0  0  0  0  0  0  0  0  0
  152.0967  137.0546  184.3537 C   0  0  0  0  0  0  0  0  0  0  0  0
  153.1510  137.7818  183.7916 C   0  0  0  0  0  0  0  0  0  0  0  0
  154.9934  140.2985  183.3784 C   0  0  0  0  0  0  0  0  0  0  0  0
  153.7768  140.8249  183.4387 O   0  0  0  0  0  0  0  0  0  0  0  0
  155.1689  139.0364  183.9824 N   0  0  0  0  0  0  0  0  0  0  0  0
  156.0046  138.4781  184.0031 H   0  0  0  0  0  0  0  0  0  0  0  0
  157.8482  142.9375  181.6284 C   0  0  0  0  0  0  0  0  0  0  0  0
  156.5413  143.3464  181.8991 C   0  0  0  0  0  0  0  0  0  0  0  0
  155.6004  142.4836  182.4124 C   0  0  0  0  0  0  0  0  0  0  0  0
  155.8966  141.1711  182.6844 C   0  0  0  0  0  0  0  0  0  0  0  0
  157.2095  140.7683  182.4009 C   0  0  0  0  0  0  0  0  0  0  0  0
  158.1572  141.6182  181.8891 C   0  0  0  0  0  0  0  0  0  0  0  0
  159.4977  143.5594  179.9246 C   0  0  0  0  0  0  0  0  0  0  0  0
  158.8387  143.8535  181.2110 N   0  0  0  0  0  0  0  0  0  0  0  0
  159.1870  145.0142  181.9596 C   0  0  0  0  0  0  0  0  0  0  0  0
  150.8383  136.2202  186.3081 C   0  0  0  0  0  0  0  0  0  0  0  0
  150.3574  135.3446  185.4812 O   0  0  0  0  0  0  0  0  0  0  0  0
  150.3382  136.2331  187.6261 N   0  0  0  0  0  0  0  0  0  0  0  0
  150.6647  136.9079  188.3188 H   0  0  0  0  0  0  0  0  0  0  0  0
  149.3063  135.2304  187.9466 C   0  0  0  0  0  0  0  0  0  0  0  0
  148.2348  136.0029  188.6769 C   0  0  0  0  0  0  0  0  0  0  0  0
  147.1153  135.0955  189.1725 C   0  0  0  0  0  0  0  0  0  0  0  0
  147.6847  133.9180  189.9573 C   0  0  0  0  0  0  0  0  0  0  0  0
  149.1052  134.1948  190.0642 N   0  0  0  0  0  0  0  0  0  0  0  0
  149.8696  134.1706  188.8632 C   0  0  0  0  0  0  0  0  0  0  0  0
  149.6218  134.5031  191.3517 C   0  0  0  0  0  0  0  0  0  0  0  0
  149.2237  134.0934  192.5515 N   0  0  0  0  0  0  0  0  0  0  0  0
  149.8524  134.4711  193.6075 C   0  0  0  0  0  0  0  0  0  0  0  0
  150.9302  135.3006  193.4395 C   0  0  0  0  0  0  0  0  0  0  0  0
  150.9836  135.4939  191.7544 S   0  0  0  0  0  0  0  0  0  0  0  0
  151.8103  135.8640  194.5303 C   0  0  0  0  0  0  0  0  0  0  0  0
  151.2700  135.6303  195.7583 F   0  0  0  0  0  0  0  0  0  0  0  0
  153.0271  135.1929  194.3915 F   0  0  0  0  0  0  0  0  0  0  0  0
  152.0619  137.1716  194.2496 F   0  0  0  0  0  0  0  0  0  0  0  0
 17 18  1  0  0  0
 18 19  1  0  0  0
 18 11  1  0  0  0
 11 12  2  0  0  0
 12 13  1  0  0  0
 13 14  2  0  0  0
 14 15  1  0  0  0
 15 16  2  0  0  0
 14  7  1  0  0  0
  7  8  2  0  0  0
  7  9  1  0  0  0
  9  1  1  0  0  0
  1  2  2  0  0  0
  2  3  1  0  0  0
  3  4  2  0  0  0
  4  5  1  0  0  0
  5  6  2  0  0  0
  4 20  1  0  0  0
 20 21  2  0  0  0
 20 22  1  0  0  0
 22 24  1  0  0  0
 24 25  1  0  0  0
 25 26  1  0  0  0
 26 27  1  0  0  0
 27 28  1  0  0  0
 28 29  1  0  0  0
 28 30  1  0  0  0
 30 31  2  0  0  0
 31 32  1  0  0  0
 32 33  2  0  0  0
 33 34  1  0  0  0
 33 35  1  0  0  0
 35 36  1  0  0  0
 35 37  1  0  0  0
 35 38  1  0  0  0
 16 11  1  0  0  0
  6  1  1  0  0  0
 29 24  1  0  0  0
 34 30  1  0  0  0
  9 10  1  0  0  0
 22 23  1  0  0  0
M  END
> <minimizedAffinity>
-7.40537

> <CNNscore>
0.3458479643

> <CNNaffinity>
5.7642798424

> <CNN_VS>
1.9935644865

> <CNNaffinity_variance>
0.3300015330

$$$$
[H]c1nc(N2C([H])([H])C([H])([H])N(c3nc(C(F)(F)F)nc(N([H])C(=O)c4c([H])c([H])c(N5C([H])([H])C([H])([H])N(C([H])([H])[H])C([H])([H])C5([H])[H])c([H])c4[H])c3[H])C([H])([H])C2([H])[H])c2c([H])c([H])n([H])c2n1


 43 48  0  0  0  0  0  0  0  0999 V2000
  153.9641  139.2124  184.7493 C   0  0  0  0  0  0  0  0  0  0  0  0
  155.1861  139.7236  184.4090 C   0  0  0  0  0  0  0  0  0  0  0  0
  155.4865  140.1807  183.1127 C   0  0  0  0  0  0  0  0  0  0  0  0
  154.5052  140.0935  182.2029 N   0  0  0  0  0  0  0  0  0  0  0  0
  153.2923  139.5999  182.4949 C   0  0  0  0  0  0  0  0  0  0  0  0
  153.0336  139.1745  183.7284 N   0  0  0  0  0  0  0  0  0  0  0  0
  156.7534  140.7150  182.8265 N   0  0  0  0  0  0  0  0  0  0  0  0
  157.0720  142.0756  183.1735 C   0  0  0  0  0  0  0  0  0  0  0  0
  158.5476  142.3511  182.8925 C   0  0  0  0  0  0  0  0  0  0  0  0
  159.3598  141.2665  183.4073 N   0  0  0  0  0  0  0  0  0  0  0  0
  158.9305  139.9180  183.2496 C   0  0  0  0  0  0  0  0  0  0  0  0
  157.7818  139.9052  182.2170 C   0  0  0  0  0  0  0  0  0  0  0  0
  160.5663  141.6556  184.0524 C   0  0  0  0  0  0  0  0  0  0  0  0
  161.7650  141.5405  183.4707 N   0  0  0  0  0  0  0  0  0  0  0  0
  162.9312  141.8766  184.0536 C   0  0  0  0  0  0  0  0  0  0  0  0
  162.8701  142.3584  185.3034 N   0  0  0  0  0  0  0  0  0  0  0  0
  161.6686  142.4986  185.9497 C   0  0  0  0  0  0  0  0  0  0  0  0
  161.3621  142.9543  187.1884 N   0  0  0  0  0  0  0  0  0  0  0  0
  160.0356  142.9041  187.3739 C   0  0  0  0  0  0  0  0  0  0  0  0
  159.4757  142.4032  186.2265 C   0  0  0  0  0  0  0  0  0  0  0  0
  160.4912  142.1506  185.3400 C   0  0  0  0  0  0  0  0  0  0  0  0
  162.0530  143.2879  187.8834 H   0  0  0  0  0  0  0  0  0  0  0  0
  154.4592  138.2581  187.0127 C   0  0  0  0  0  0  0  0  0  0  0  0
  155.7104  138.2547  186.9101 O   0  0  0  0  0  0  0  0  0  0  0  0
  153.6114  138.7065  186.0109 N   0  0  0  0  0  0  0  0  0  0  0  0
  152.5536  138.6655  186.2013 H   0  0  0  0  0  0  0  0  0  0  0  0
  153.0762  136.7601  190.8030 C   0  0  0  0  0  0  0  0  0  0  0  0
  154.1955  137.5633  190.6787 C   0  0  0  0  0  0  0  0  0  0  0  0
  154.6548  138.0593  189.4619 C   0  0  0  0  0  0  0  0  0  0  0  0
  153.9590  137.7377  188.3054 C   0  0  0  0  0  0  0  0  0  0  0  0
  152.8446  136.9417  188.4065 C   0  0  0  0  0  0  0  0  0  0  0  0
  152.3994  136.4523  189.6375 C   0  0  0  0  0  0  0  0  0  0  0  0
  149.8525  135.3682  192.6643 C   0  0  0  0  0  0  0  0  0  0  0  0
  150.8406  135.0558  193.6664 N   0  0  0  0  0  0  0  0  0  0  0  0
  151.4495  136.2793  194.1263 C   0  0  0  0  0  0  0  0  0  0  0  0
  151.9453  137.1290  192.9716 C   0  0  0  0  0  0  0  0  0  0  0  0
  152.6873  136.2872  192.0765 N   0  0  0  0  0  0  0  0  0  0  0  0
  153.0103  134.9626  192.5561 C   0  0  0  0  0  0  0  0  0  0  0  0
  151.8351  134.2040  193.1097 C   0  0  0  0  0  0  0  0  0  0  0  0
  152.2528  139.5619  181.3965 C   0  0  0  0  0  0  0  0  0  0  0  0
  152.5516  138.5873  180.4667 F   0  0  0  0  0  0  0  0  0  0  0  0
  152.1205  140.8022  180.8221 F   0  0  0  0  0  0  0  0  0  0  0  0
  151.0513  139.2471  181.9980 F   0  0  0  0  0  0  0  0  0  0  0  0
 33 34  1  0  0  0
 34 35  1  0  0  0
 35 36  1  0  0  0
 36 37  1  0  0  0
 37 38  1  0  0  0
 38 39  1  0  0  0
 37 27  1  0  0  0
 27 28  2  0  0  0
 28 29  1  0  0  0
 29 30  2  0  0  0
 30 31  1  0  0  0
 31 32  2  0  0  0
 30 23  1  0  0  0
 23 24  2  0  0  0
 23 25  1  0  0  0
 25  1  1  0  0  0
  1  2  2  0  0  0
  2  3  1  0  0  0
  3  4  2  0  0  0
  4  5  1  0  0  0
  5  6  2  0  0  0
  5 40  1  0  0  0
 40 41  1  0  0  0
 40 42  1  0  0  0
 40 43  1  0  0  0
  3  7  1  0  0  0
  7  8  1  0  0  0
  8  9  1  0  0  0
  9 10  1  0  0  0
 10 11  1  0  0  0
 11 12  1  0  0  0
 10 13  1  0  0  0
 13 14  2  0  0  0
 14 15  1  0  0  0
 15 16  2  0  0  0
 16 17  1  0  0  0
 17 18  1  0  0  0
 18 19  1  0  0  0
 19 20  2  0  0  0
 20 21  1  0  0  0
 39 34  1  0  0  0
 32 27  1  0  0  0
  6  1  1  0  0  0
 12  7  1  0  0  0
 21 13  1  0  0  0
 21 17  2  0  0  0
 25 26  1  0  0  0
 18 22  1  0  0  0
M  END
> <minimizedAffinity>
-10.38404

> <CNNscore>
0.3484501839

> <CNNaffinity>
6.8510408401

> <CNN_VS>
2.3872463703

> <CNNaffinity_variance>
0.1783604324

$$$$
[H]c1nc(N2C([H])([H])C([H])([H])N(c3nc(C(F)(F)F)nc(N([H])C(=O)c4c([H])c([H])c(N5C([H])([H])C([H])([H])N(C([H])([H])[H])C([H])([H])C5([H])[H])c([H])c4[H])c3[H])C([H])([H])C2([H])[H])c2c([H])c([H])n([H])c2n1


 43 48  0  0  0  0  0  0  0  0999 V2000
  153.5761  138.6357  185.2373 C   0  0  0  0  0  0  0  0  0  0  0  0
  154.6945  139.3395  184.8850 C   0  0  0  0  0  0  0  0  0  0  0  0
  155.0038  139.6606  183.5505 C   0  0  0  0  0  0  0  0  0  0  0  0
  154.1390  139.2399  182.6159 N   0  0  0  0  0  0  0  0  0  0  0  0
  153.0298  138.5482  182.9183 C   0  0  0  0  0  0  0  0  0  0  0  0
  152.7602  138.2575  184.1881 N   0  0  0  0  0  0  0  0  0  0  0  0
  156.1569  140.4039  183.2503 N   0  0  0  0  0  0  0  0  0  0  0  0
  156.1524  141.8400  183.3536 C   0  0  0  0  0  0  0  0  0  0  0  0
  157.5612  142.3817  183.1207 C   0  0  0  0  0  0  0  0  0  0  0  0
  158.5208  141.6069  183.8823 N   0  0  0  0  0  0  0  0  0  0  0  0
  158.3956  140.1904  183.9550 C   0  0  0  0  0  0  0  0  0  0  0  0
  157.3867  139.7487  182.8720 C   0  0  0  0  0  0  0  0  0  0  0  0
  159.5489  142.3565  184.5182 C   0  0  0  0  0  0  0  0  0  0  0  0
  160.2158  141.9051  185.5859 N   0  0  0  0  0  0  0  0  0  0  0  0
  161.1794  142.5909  186.2294 C   0  0  0  0  0  0  0  0  0  0  0  0
  161.4798  143.8085  185.7550 N   0  0  0  0  0  0  0  0  0  0  0  0
  160.8288  144.3228  184.6630 C   0  0  0  0  0  0  0  0  0  0  0  0
  160.9578  145.5053  184.0141 N   0  0  0  0  0  0  0  0  0  0  0  0
  160.0952  145.5562  182.9895 C   0  0  0  0  0  0  0  0  0  0  0  0
  159.3939  144.3775  182.9798 C   0  0  0  0  0  0  0  0  0  0  0  0
  159.8498  143.6097  184.0209 C   0  0  0  0  0  0  0  0  0  0  0  0
  161.6231  146.2540  184.2762 H   0  0  0  0  0  0  0  0  0  0  0  0
  153.8704  137.3284  187.3547 C   0  0  0  0  0  0  0  0  0  0  0  0
  154.8965  136.6951  187.0054 O   0  0  0  0  0  0  0  0  0  0  0  0
  153.2286  138.2514  186.5425 N   0  0  0  0  0  0  0  0  0  0  0  0
  152.3555  138.7385  186.9392 H   0  0  0  0  0  0  0  0  0  0  0  0
  152.4239  136.3669  191.2925 C   0  0  0  0  0  0  0  0  0  0  0  0
  151.7975  135.9329  190.1381 C   0  0  0  0  0  0  0  0  0  0  0  0
  152.2533  136.2312  188.8572 C   0  0  0  0  0  0  0  0  0  0  0  0
  153.3973  137.0040  188.7196 C   0  0  0  0  0  0  0  0  0  0  0  0
  154.0349  137.4451  189.8531 C   0  0  0  0  0  0  0  0  0  0  0  0
  153.5614  137.1359  191.1310 C   0  0  0  0  0  0  0  0  0  0  0  0
  150.4001  133.4246  193.0362 C   0  0  0  0  0  0  0  0  0  0  0  0
  150.7547  134.1787  194.2126 N   0  0  0  0  0  0  0  0  0  0  0  0
  150.1626  135.4908  194.1281 C   0  0  0  0  0  0  0  0  0  0  0  0
  150.4787  136.1661  192.8070 C   0  0  0  0  0  0  0  0  0  0  0  0
  151.8852  136.0301  192.5546 N   0  0  0  0  0  0  0  0  0  0  0  0
  152.6935  135.5482  193.6517 C   0  0  0  0  0  0  0  0  0  0  0  0
  152.1701  134.2950  194.2988 C   0  0  0  0  0  0  0  0  0  0  0  0
  152.1140  138.1359  181.7870 C   0  0  0  0  0  0  0  0  0  0  0  0
  152.3744  138.8696  180.6479 F   0  0  0  0  0  0  0  0  0  0  0  0
  150.8008  138.2335  182.1768 F   0  0  0  0  0  0  0  0  0  0  0  0
  152.3776  136.8063  181.5276 F   0  0  0  0  0  0  0  0  0  0  0  0
 33 34  1  0  0  0
 34 35  1  0  0  0
 35 36  1  0  0  0
 36 37  1  0  0  0
 37 38  1  0  0  0
 38 39  1  0  0  0
 37 27  1  0  0  0
 27 28  2  0  0  0
 28 29  1  0  0  0
 29 30  2  0  0  0
 30 31  1  0  0  0
 31 32  2  0  0  0
 30 23  1  0  0  0
 23 24  2  0  0  0
 23 25  1  0  0  0
 25  1  1  0  0  0
  1  2  2  0  0  0
  2  3  1  0  0  0
  3  4  2  0  0  0
  4  5  1  0  0  0
  5  6  2  0  0  0
  5 40  1  0  0  0
 40 41  1  0  0  0
 40 42  1  0  0  0
 40 43  1  0  0  0
  3  7  1  0  0  0
  7  8  1  0  0  0
  8  9  1  0  0  0
  9 10  1  0  0  0
 10 11  1  0  0  0
 11 12  1  0  0  0
 10 13  1  0  0  0
 13 14  2  0  0  0
 14 15  1  0  0  0
 15 16  2  0  0  0
 16 17  1  0  0  0
 17 18  1  0  0  0
 18 19  1  0  0  0
 19 20  2  0  0  0
 20 21  1  0  0  0
 39 34  1  0  0  0
 32 27  1  0  0  0
  6  1  1  0  0  0
 12  7  1  0  0  0
 21 13  1  0  0  0
 21 17  2  0  0  0
 25 26  1  0  0  0
 18 22  1  0  0  0
M  END
> <minimizedAffinity>
-9.25442

> <CNNscore>
0.2152969092

> <CNNaffinity>
6.8183937073

> <CNN_VS>
1.4679790735

> <CNNaffinity_variance>
0.0231153611

$$$$
[H]c1nc(N2C([H])([H])C([H])([H])N(c3nc(C(F)(F)F)nc(N([H])C(=O)c4c([H])c([H])c(N5C([H])([H])C([H])([H])N(C([H])([H])[H])C([H])([H])C5([H])[H])c([H])c4[H])c3[H])C([H])([H])C2([H])[H])c2c([H])c([H])n([H])c2n1


 43 48  0  0  0  0  0  0  0  0999 V2000
  151.5094  136.7963  184.2684 C   0  0  0  0  0  0  0  0  0  0  0  0
  151.0496  136.7663  185.5560 C   0  0  0  0  0  0  0  0  0  0  0  0
  150.1420  135.7956  186.0185 C   0  0  0  0  0  0  0  0  0  0  0  0
  149.7363  134.8799  185.1268 N   0  0  0  0  0  0  0  0  0  0  0  0
  150.1635  134.8724  183.8549 C   0  0  0  0  0  0  0  0  0  0  0  0
  151.0218  135.8013  183.4427 N   0  0  0  0  0  0  0  0  0  0  0  0
  149.7200  135.8024  187.3579 N   0  0  0  0  0  0  0  0  0  0  0  0
  148.3264  135.6571  187.6895 C   0  0  0  0  0  0  0  0  0  0  0  0
  148.1618  135.5467  189.2038 C   0  0  0  0  0  0  0  0  0  0  0  0
  149.1317  134.6123  189.7396 N   0  0  0  0  0  0  0  0  0  0  0  0
  150.4691  134.6150  189.2508 C   0  0  0  0  0  0  0  0  0  0  0  0
  150.6726  135.9123  188.4374 C   0  0  0  0  0  0  0  0  0  0  0  0
  148.6471  133.7360  190.7498 C   0  0  0  0  0  0  0  0  0  0  0  0
  148.8802  133.9366  192.0513 N   0  0  0  0  0  0  0  0  0  0  0  0
  148.4584  133.1212  193.0363 C   0  0  0  0  0  0  0  0  0  0  0  0
  147.7577  132.0378  192.6711 N   0  0  0  0  0  0  0  0  0  0  0  0
  147.4883  131.7813  191.3511 C   0  0  0  0  0  0  0  0  0  0  0  0
  146.8123  130.7717  190.7514 N   0  0  0  0  0  0  0  0  0  0  0  0
  146.8119  130.9529  189.4234 C   0  0  0  0  0  0  0  0  0  0  0  0
  147.5053  132.1073  189.1629 C   0  0  0  0  0  0  0  0  0  0  0  0
  147.9265  132.6231  190.3619 C   0  0  0  0  0  0  0  0  0  0  0  0
  146.3669  129.9807  191.2492 H   0  0  0  0  0  0  0  0  0  0  0  0
  153.3664  138.4735  184.4008 C   0  0  0  0  0  0  0  0  0  0  0  0
  153.6086  138.3414  185.6254 O   0  0  0  0  0  0  0  0  0  0  0  0
  152.3843  137.7561  183.7342 N   0  0  0  0  0  0  0  0  0  0  0  0
  152.2584  137.9465  182.6831 H   0  0  0  0  0  0  0  0  0  0  0  0
  155.9185  141.3564  182.4777 C   0  0  0  0  0  0  0  0  0  0  0  0
  156.3955  140.4079  183.3644 C   0  0  0  0  0  0  0  0  0  0  0  0
  155.5854  139.4662  183.9924 C   0  0  0  0  0  0  0  0  0  0  0  0
  154.2249  139.4696  183.7206 C   0  0  0  0  0  0  0  0  0  0  0  0
  153.7305  140.4029  182.8427 C   0  0  0  0  0  0  0  0  0  0  0  0
  154.5599  141.3413  182.2226 C   0  0  0  0  0  0  0  0  0  0  0  0
  159.3877  143.1299  183.2610 C   0  0  0  0  0  0  0  0  0  0  0  0
  159.2440  143.5213  181.8810 N   0  0  0  0  0  0  0  0  0  0  0  0
  158.0551  144.3250  181.7398 C   0  0  0  0  0  0  0  0  0  0  0  0
  156.8428  143.6471  182.3498 C   0  0  0  0  0  0  0  0  0  0  0  0
  156.8092  142.2860  181.8952 N   0  0  0  0  0  0  0  0  0  0  0  0
  157.7159  141.9415  180.8236 C   0  0  0  0  0  0  0  0  0  0  0  0
  159.1404  142.3622  181.0623 C   0  0  0  0  0  0  0  0  0  0  0  0
  149.6542  133.7836  182.9364 C   0  0  0  0  0  0  0  0  0  0  0  0
  148.5002  133.2155  183.4356 F   0  0  0  0  0  0  0  0  0  0  0  0
  150.6363  132.8501  182.7131 F   0  0  0  0  0  0  0  0  0  0  0  0
  149.3650  134.3863  181.7290 F   0  0  0  0  0  0  0  0  0  0  0  0
 33 34  1  0  0  0
 34 35  1  0  0  0
 35 36  1  0  0  0
 36 37  1  0  0  0
 37 38  1  0  0  0
 38 39  1  0  0  0
 37 27  1  0  0  0
 27 28  2  0  0  0
 28 29  1  0  0  0
 29 30  2  0  0  0
 30 31  1  0  0  0
 31 32  2  0  0  0
 30 23  1  0  0  0
 23 24  2  0  0  0
 23 25  1  0  0  0
 25  1  1  0  0  0
  1  2  2  0  0  0
  2  3  1  0  0  0
  3  4  2  0  0  0
  4  5  1  0  0  0
  5  6  2  0  0  0
  5 40  1  0  0  0
 40 41  1  0  0  0
 40 42  1  0  0  0
 40 43  1  0  0  0
  3  7  1  0  0  0
  7  8  1  0  0  0
  8  9  1  0  0  0
  9 10  1  0  0  0
 10 11  1  0  0  0
 11 12  1  0  0  0
 10 13  1  0  0  0
 13 14  2  0  0  0
 14 15  1  0  0  0
 15 16  2  0  0  0
 16 17  1  0  0  0
 17 18  1  0  0  0
 18 19  1  0  0  0
 19 20  2  0  0  0
 20 21  1  0  0  0
 39 34  1  0  0  0
 32 27  1  0  0  0
  6  1  1  0  0  0
 12  7  1  0  0  0
 21 13  1  0  0  0
 21 17  2  0  0  0
 25 26  1  0  0  0
 18 22  1  0  0  0
M  END
> <minimizedAffinity>
-6.33634

> <CNNscore>
0.2095486671

> <CNNaffinity>
6.2070531845

> <CNN_VS>
1.3006796837

> <CNNaffinity_variance>
0.6392587423

$$$$
[H]c1nc(N2C([H])([H])C([H])([H])N(c3nc(C(F)(F)F)nc(N([H])C(=O)c4c([H])c([H])c(N5C([H])([H])C([H])([H])N(C([H])([H])[H])C([H])([H])C5([H])[H])c([H])c4[H])c3[H])C([H])([H])C2([H])[H])c2c([H])c([H])n([H])c2n1


 43 48  0  0  0  0  0  0  0  0999 V2000
  152.0208  137.1956  186.9180 C   0  0  0  0  0  0  0  0  0  0  0  0
  152.2491  136.1764  187.8008 C   0  0  0  0  0  0  0  0  0  0  0  0
  151.2113  135.4220  188.3784 C   0  0  0  0  0  0  0  0  0  0  0  0
  149.9608  135.7489  188.0211 N   0  0  0  0  0  0  0  0  0  0  0  0
  149.6930  136.7404  187.1578 C   0  0  0  0  0  0  0  0  0  0  0  0
  150.6924  137.4386  186.6255 N   0  0  0  0  0  0  0  0  0  0  0  0
  151.5072  134.3729  189.2639 N   0  0  0  0  0  0  0  0  0  0  0  0
  151.9007  133.0804  188.7659 C   0  0  0  0  0  0  0  0  0  0  0  0
  152.3071  132.1777  189.9287 C   0  0  0  0  0  0  0  0  0  0  0  0
  153.1813  132.8990  190.8323 N   0  0  0  0  0  0  0  0  0  0  0  0
  152.9056  134.2576  191.1573 C   0  0  0  0  0  0  0  0  0  0  0  0
  151.4662  134.5721  190.6934 C   0  0  0  0  0  0  0  0  0  0  0  0
  154.2853  132.1594  191.3396 C   0  0  0  0  0  0  0  0  0  0  0  0
  155.4700  132.1158  190.7207 N   0  0  0  0  0  0  0  0  0  0  0  0
  156.5323  131.4119  191.1554 C   0  0  0  0  0  0  0  0  0  0  0  0
  156.3759  130.7117  192.2882 N   0  0  0  0  0  0  0  0  0  0  0  0
  155.1836  130.7191  192.9657 C   0  0  0  0  0  0  0  0  0  0  0  0
  154.7952  130.1034  194.1085 N   0  0  0  0  0  0  0  0  0  0  0  0
  153.5206  130.4160  194.3808 C   0  0  0  0  0  0  0  0  0  0  0  0
  153.0785  131.2529  193.3882 C   0  0  0  0  0  0  0  0  0  0  0  0
  154.1126  131.4418  192.5073 C   0  0  0  0  0  0  0  0  0  0  0  0
  155.3965  129.4841  194.6802 H   0  0  0  0  0  0  0  0  0  0  0  0
  153.3600  138.0865  184.9966 C   0  0  0  0  0  0  0  0  0  0  0  0
  152.8107  137.4067  184.0954 O   0  0  0  0  0  0  0  0  0  0  0  0
  153.0059  138.0093  186.3353 N   0  0  0  0  0  0  0  0  0  0  0  0
  153.5412  138.6357  187.0267 H   0  0  0  0  0  0  0  0  0  0  0  0
  156.4282  140.7085  183.5018 C   0  0  0  0  0  0  0  0  0  0  0  0
  155.1722  140.6223  182.9284 C   0  0  0  0  0  0  0  0  0  0  0  0
  154.1674  139.7829  183.4007 C   0  0  0  0  0  0  0  0  0  0  0  0
  154.4286  138.9863  184.5062 C   0  0  0  0  0  0  0  0  0  0  0  0
  155.6692  139.0567  185.0909 C   0  0  0  0  0  0  0  0  0  0  0  0
  156.6660  139.9053  184.6016 C   0  0  0  0  0  0  0  0  0  0  0  0
  158.0214  141.6211  179.9772 C   0  0  0  0  0  0  0  0  0  0  0  0
  158.5677  142.7044  180.7557 N   0  0  0  0  0  0  0  0  0  0  0  0
  159.4097  142.1622  181.7932 C   0  0  0  0  0  0  0  0  0  0  0  0
  158.6965  141.0871  182.5913 C   0  0  0  0  0  0  0  0  0  0  0  0
  157.3958  141.5774  182.9492 N   0  0  0  0  0  0  0  0  0  0  0  0
  157.1520  142.9838  182.7221 C   0  0  0  0  0  0  0  0  0  0  0  0
  157.5099  143.4561  181.3394 C   0  0  0  0  0  0  0  0  0  0  0  0
  148.2462  137.0152  186.8115 C   0  0  0  0  0  0  0  0  0  0  0  0
  147.4426  136.9126  187.9284 F   0  0  0  0  0  0  0  0  0  0  0  0
  147.8327  136.1857  185.7982 F   0  0  0  0  0  0  0  0  0  0  0  0
  148.1898  138.3119  186.3425 F   0  0  0  0  0  0  0  0  0  0  0  0
 33 34  1  0  0  0
 34 35  1  0  0  0
 35 36  1  0  0  0
 36 37  1  0  0  0
 37 38  1  0  0  0
 38 39  1  0  0  0
 37 27  1  0  0  0
 27 28  2  0  0  0
 28 29  1  0  0  0
 29 30  2  0  0  0
 30 31  1  0  0  0
 31 32  2  0  0  0
 30 23  1  0  0  0
 23 24  2  0  0  0
 23 25  1  0  0  0
 25  1  1  0  0  0
  1  2  2  0  0  0
  2  3  1  0  0  0
  3  4  2  0  0  0
  4  5  1  0  0  0
  5  6  2  0  0  0
  5 40  1  0  0  0
 40 41  1  0  0  0
 40 42  1  0  0  0
 40 43  1  0  0  0
  3  7  1  0  0  0
  7  8  1  0  0  0
  8  9  1  0  0  0
  9 10  1  0  0  0
 10 11  1  0  0  0
 11 12  1  0  0  0
 10 13  1  0  0  0
 13 14  2  0  0  0
 14 15  1  0  0  0
 15 16  2  0  0  0
 16 17  1  0  0  0
 17 18  1  0  0  0
 18 19  1  0  0  0
 19 20  2  0  0  0
 20 21  1  0  0  0
 39 34  1  0  0  0
 32 27  1  0  0  0
  6  1  1  0  0  0
 12  7  1  0  0  0
 21 13  1  0  0  0
 21 17  2  0  0  0
 25 26  1  0  0  0
 18 22  1  0  0  0
M  END
> <minimizedAffinity>
-6.72272

> <CNNscore>
0.1972524524

> <CNNaffinity>
6.2115826607

> <CNN_VS>
1.2252498865

> <CNNaffinity_variance>
0.3743545115

$$$$
[H]c1nc(N2C([H])([H])C([H])([H])N(c3nc(C(F)(F)F)nc(N([H])C(=O)c4c([H])c([H])c(N5C([H])([H])C([H])([H])N(C([H])([H])[H])C([H])([H])C5([H])[H])c([H])c4[H])c3[H])C([H])([H])C2([H])[H])c2c([H])c([H])n([H])c2n1


 43 48  0  0  0  0  0  0  0  0999 V2000
  153.0384  138.7060  183.6503 C   0  0  0  0  0  0  0  0  0  0  0  0
  154.0680  139.6022  183.5662 C   0  0  0  0  0  0  0  0  0  0  0  0
  154.2619  140.4373  182.4505 C   0  0  0  0  0  0  0  0  0  0  0  0
  153.3771  140.3175  181.4500 N   0  0  0  0  0  0  0  0  0  0  0  0
  152.3524  139.4524  181.4926 C   0  0  0  0  0  0  0  0  0  0  0  0
  152.1913  138.6740  182.5592 N   0  0  0  0  0  0  0  0  0  0  0  0
  155.3260  141.3535  182.4286 N   0  0  0  0  0  0  0  0  0  0  0  0
  155.3965  142.4203  183.3930 C   0  0  0  0  0  0  0  0  0  0  0  0
  156.7180  143.1706  183.2416 C   0  0  0  0  0  0  0  0  0  0  0  0
  157.8123  142.2266  183.1292 N   0  0  0  0  0  0  0  0  0  0  0  0
  157.6616  141.0520  182.3385 C   0  0  0  0  0  0  0  0  0  0  0  0
  156.3971  141.2266  181.4687 C   0  0  0  0  0  0  0  0  0  0  0  0
  158.9926  142.5665  183.8465 C   0  0  0  0  0  0  0  0  0  0  0  0
  159.5637  141.7399  184.7291 N   0  0  0  0  0  0  0  0  0  0  0  0
  160.6673  142.0311  185.4435 C   0  0  0  0  0  0  0  0  0  0  0  0
  161.2200  143.2365  185.2451 N   0  0  0  0  0  0  0  0  0  0  0  0
  160.6779  144.1253  184.3524 C   0  0  0  0  0  0  0  0  0  0  0  0
  161.0524  145.3756  183.9888 N   0  0  0  0  0  0  0  0  0  0  0  0
  160.2028  145.8535  183.0689 C   0  0  0  0  0  0  0  0  0  0  0  0
  159.2583  144.8866  182.8358 C   0  0  0  0  0  0  0  0  0  0  0  0
  159.5533  143.8111  183.6341 C   0  0  0  0  0  0  0  0  0  0  0  0
  161.8716  145.8816  184.3694 H   0  0  0  0  0  0  0  0  0  0  0  0
  153.3665  136.5645  184.9095 C   0  0  0  0  0  0  0  0  0  0  0  0
  154.1889  136.0426  184.1176 O   0  0  0  0  0  0  0  0  0  0  0  0
  152.8100  137.8200  184.7157 N   0  0  0  0  0  0  0  0  0  0  0  0
  152.1141  138.1736  185.4556 H   0  0  0  0  0  0  0  0  0  0  0  0
  152.4115  134.1714  188.3568 C   0  0  0  0  0  0  0  0  0  0  0  0
  152.2908  135.5494  188.3452 C   0  0  0  0  0  0  0  0  0  0  0  0
  152.5917  136.3383  187.2387 C   0  0  0  0  0  0  0  0  0  0  0  0
  153.0364  135.7192  186.0793 C   0  0  0  0  0  0  0  0  0  0  0  0
  153.1630  134.3518  186.0694 C   0  0  0  0  0  0  0  0  0  0  0  0
  152.8568  133.5765  187.1910 C   0  0  0  0  0  0  0  0  0  0  0  0
  152.9685  134.3788  192.2863 C   0  0  0  0  0  0  0  0  0  0  0  0
  152.0033  133.3085  192.2543 N   0  0  0  0  0  0  0  0  0  0  0  0
  152.5552  132.1971  191.5197 C   0  0  0  0  0  0  0  0  0  0  0  0
  153.0892  132.6276  190.1666 C   0  0  0  0  0  0  0  0  0  0  0  0
  152.0982  133.4475  189.5292 N   0  0  0  0  0  0  0  0  0  0  0  0
  150.7907  133.4743  190.1446 C   0  0  0  0  0  0  0  0  0  0  0  0
  150.8105  133.7575  191.6219 C   0  0  0  0  0  0  0  0  0  0  0  0
  151.4035  139.4100  180.3152 C   0  0  0  0  0  0  0  0  0  0  0  0
  150.9773  138.1208  180.0699 F   0  0  0  0  0  0  0  0  0  0  0  0
  151.9876  139.9810  179.2113 F   0  0  0  0  0  0  0  0  0  0  0  0
  150.3109  140.1802  180.6582 F   0  0  0  0  0  0  0  0  0  0  0  0
 33 34  1  0  0  0
 34 35  1  0  0  0
 35 36  1  0  0  0
 36 37  1  0  0  0
 37 38  1  0  0  0
 38 39  1  0  0  0
 37 27  1  0  0  0
 27 28  2  0  0  0
 28 29  1  0  0  0
 29 30  2  0  0  0
 30 31  1  0  0  0
 31 32  2  0  0  0
 30 23  1  0  0  0
 23 24  2  0  0  0
 23 25  1  0  0  0
 25  1  1  0  0  0
  1  2  2  0  0  0
  2  3  1  0  0  0
  3  4  2  0  0  0
  4  5  1  0  0  0
  5  6  2  0  0  0
  5 40  1  0  0  0
 40 41  1  0  0  0
 40 42  1  0  0  0
 40 43  1  0  0  0
  3  7  1  0  0  0
  7  8  1  0  0  0
  8  9  1  0  0  0
  9 10  1  0  0  0
 10 11  1  0  0  0
 11 12  1  0  0  0
 10 13  1  0  0  0
 13 14  2  0  0  0
 14 15  1  0  0  0
 15 16  2  0  0  0
 16 17  1  0  0  0
 17 18  1  0  0  0
 18 19  1  0  0  0
 19 20  2  0  0  0
 20 21  1  0  0  0
 39 34  1  0  0  0
 32 27  1  0  0  0
  6  1  1  0  0  0
 12  7  1  0  0  0
 21 13  1  0  0  0
 21 17  2  0  0  0
 25 26  1  0  0  0
 18 22  1  0  0  0
M  END
> <minimizedAffinity>
-7.49261

> <CNNscore>
0.1947043836

> <CNNaffinity>
6.7298049927

> <CNN_VS>
1.3103225231

> <CNNaffinity_variance>
0.0537757464

$$$$
[H]c1nc(N2C([H])([H])C([H])([H])N(c3nc(C(F)(F)F)nc(N([H])C(=O)c4c([H])c([H])c(N5C([H])([H])C([H])([H])N(C([H])([H])[H])C([H])([H])C5([H])[H])c([H])c4[H])c3[H])C([H])([H])C2([H])[H])c2c([H])c([H])n([H])c2n1


 43 48  0  0  0  0  0  0  0  0999 V2000
  152.6994  137.6253  183.2821 C   0  0  0  0  0  0  0  0  0  0  0  0
  153.0727  137.4185  184.5814 C   0  0  0  0  0  0  0  0  0  0  0  0
  153.8330  138.3491  185.3130 C   0  0  0  0  0  0  0  0  0  0  0  0
  154.1854  139.4730  184.6718 N   0  0  0  0  0  0  0  0  0  0  0  0
  153.8392  139.7160  183.3986 C   0  0  0  0  0  0  0  0  0  0  0  0
  153.1198  138.8197  182.7288 N   0  0  0  0  0  0  0  0  0  0  0  0
  154.1699  138.0915  186.6518 N   0  0  0  0  0  0  0  0  0  0  0  0
  153.4504  138.7264  187.7254 C   0  0  0  0  0  0  0  0  0  0  0  0
  153.9135  138.1611  189.0664 C   0  0  0  0  0  0  0  0  0  0  0  0
  153.9773  136.7147  188.9975 N   0  0  0  0  0  0  0  0  0  0  0  0
  154.4965  136.0790  187.8340 C   0  0  0  0  0  0  0  0  0  0  0  0
  155.2150  137.1539  186.9887 C   0  0  0  0  0  0  0  0  0  0  0  0
  153.4973  136.0236  190.1444 C   0  0  0  0  0  0  0  0  0  0  0  0
  154.2720  135.7528  191.2003 N   0  0  0  0  0  0  0  0  0  0  0  0
  153.8632  135.0834  192.2946 C   0  0  0  0  0  0  0  0  0  0  0  0
  152.5890  134.6662  192.3121 N   0  0  0  0  0  0  0  0  0  0  0  0
  151.7484  134.9155  191.2575 C   0  0  0  0  0  0  0  0  0  0  0  0
  150.4468  134.6005  191.0516 N   0  0  0  0  0  0  0  0  0  0  0  0
  150.0524  135.0628  189.8569 C   0  0  0  0  0  0  0  0  0  0  0  0
  151.1273  135.6899  189.2803 C   0  0  0  0  0  0  0  0  0  0  0  0
  152.1829  135.5985  190.1511 C   0  0  0  0  0  0  0  0  0  0  0  0
  149.8518  134.0792  191.7195 H   0  0  0  0  0  0  0  0  0  0  0  0
  152.3509  135.4493  182.0894 C   0  0  0  0  0  0  0  0  0  0  0  0
  153.4397  134.9166  182.4159 O   0  0  0  0  0  0  0  0  0  0  0  0
  151.9746  136.7240  182.4856 N   0  0  0  0  0  0  0  0  0  0  0  0
  151.0193  137.0861  182.1492 H   0  0  0  0  0  0  0  0  0  0  0  0
  149.7941  133.0012  179.6414 C   0  0  0  0  0  0  0  0  0  0  0  0
  149.3654  134.1780  180.2286 C   0  0  0  0  0  0  0  0  0  0  0  0
  150.1793  134.9835  181.0200 C   0  0  0  0  0  0  0  0  0  0  0  0
  151.4935  134.5949  181.2368 C   0  0  0  0  0  0  0  0  0  0  0  0
  151.9396  133.4299  180.6627 C   0  0  0  0  0  0  0  0  0  0  0  0
  151.1068  132.6337  179.8717 C   0  0  0  0  0  0  0  0  0  0  0  0
  149.0252  132.1817  175.8294 C   0  0  0  0  0  0  0  0  0  0  0  0
  148.1783  131.1911  176.4454 N   0  0  0  0  0  0  0  0  0  0  0  0
  147.1766  131.8559  177.2417 C   0  0  0  0  0  0  0  0  0  0  0  0
  147.7931  132.8629  178.1942 C   0  0  0  0  0  0  0  0  0  0  0  0
  148.8968  132.2353  178.8637 N   0  0  0  0  0  0  0  0  0  0  0  0
  149.0198  130.8043  178.7018 C   0  0  0  0  0  0  0  0  0  0  0  0
  148.9614  130.3384  177.2726 C   0  0  0  0  0  0  0  0  0  0  0  0
  154.2761  141.0239  182.7764 C   0  0  0  0  0  0  0  0  0  0  0  0
  154.2100  142.0536  183.6924 F   0  0  0  0  0  0  0  0  0  0  0  0
  153.5373  141.2858  181.6488 F   0  0  0  0  0  0  0  0  0  0  0  0
  155.5904  140.8593  182.3887 F   0  0  0  0  0  0  0  0  0  0  0  0
 33 34  1  0  0  0
 34 35  1  0  0  0
 35 36  1  0  0  0
 36 37  1  0  0  0
 37 38  1  0  0  0
 38 39  1  0  0  0
 37 27  1  0  0  0
 27 28  2  0  0  0
 28 29  1  0  0  0
 29 30  2  0  0  0
 30 31  1  0  0  0
 31 32  2  0  0  0
 30 23  1  0  0  0
 23 24  2  0  0  0
 23 25  1  0  0  0
 25  1  1  0  0  0
  1  2  2  0  0  0
  2  3  1  0  0  0
  3  4  2  0  0  0
  4  5  1  0  0  0
  5  6  2  0  0  0
  5 40  1  0  0  0
 40 41  1  0  0  0
 40 42  1  0  0  0
 40 43  1  0  0  0
  3  7  1  0  0  0
  7  8  1  0  0  0
  8  9  1  0  0  0
  9 10  1  0  0  0
 10 11  1  0  0  0
 11 12  1  0  0  0
 10 13  1  0  0  0
 13 14  2  0  0  0
 14 15  1  0  0  0
 15 16  2  0  0  0
 16 17  1  0  0  0
 17 18  1  0  0  0
 18 19  1  0  0  0
 19 20  2  0  0  0
 20 21  1  0  0  0
 39 34  1  0  0  0
 32 27  1  0  0  0
  6  1  1  0  0  0
 12  7  1  0  0  0
 21 13  1  0  0  0
 21 17  2  0  0  0
 25 26  1  0  0  0
 18 22  1  0  0  0
M  END
> <minimizedAffinity>
-5.78494

> <CNNscore>
0.1925812364

> <CNNaffinity>
5.9071035385

> <CNN_VS>
1.1375973225

> <CNNaffinity_variance>
0.0092302263

$$$$
[H]c1nc(N2C([H])([H])C([H])([H])N(c3nc(C(F)(F)F)nc(N([H])C(=O)c4c([H])c([H])c(N5C([H])([H])C([H])([H])N(C([H])([H])[H])C([H])([H])C5([H])[H])c([H])c4[H])c3[H])C([H])([H])C2([H])[H])c2c([H])c([H])n([H])c2n1


 43 48  0  0  0  0  0  0  0  0999 V2000
  153.7001  139.1294  184.6955 C   0  0  0  0  0  0  0  0  0  0  0  0
  154.6201  140.0394  184.2530 C   0  0  0  0  0  0  0  0  0  0  0  0
  154.7698  140.3723  182.8942 C   0  0  0  0  0  0  0  0  0  0  0  0
  153.9562  139.7482  182.0300 N   0  0  0  0  0  0  0  0  0  0  0  0
  153.0394  138.8503  182.4219 C   0  0  0  0  0  0  0  0  0  0  0  0
  152.9179  138.5533  183.7128 N   0  0  0  0  0  0  0  0  0  0  0  0
  155.7187  141.3298  182.5004 N   0  0  0  0  0  0  0  0  0  0  0  0
  155.5576  142.7146  182.8604 C   0  0  0  0  0  0  0  0  0  0  0  0
  156.7941  143.5071  182.4418 C   0  0  0  0  0  0  0  0  0  0  0  0
  157.9939  142.7950  182.8345 N   0  0  0  0  0  0  0  0  0  0  0  0
  158.0684  141.3821  182.6743 C   0  0  0  0  0  0  0  0  0  0  0  0
  156.8996  140.9473  181.7629 C   0  0  0  0  0  0  0  0  0  0  0  0
  159.0388  143.5995  183.3678 C   0  0  0  0  0  0  0  0  0  0  0  0
  159.3579  144.7957  182.8621 N   0  0  0  0  0  0  0  0  0  0  0  0
  160.3521  145.5781  183.3231 C   0  0  0  0  0  0  0  0  0  0  0  0
  161.0617  145.1120  184.3609 N   0  0  0  0  0  0  0  0  0  0  0  0
  160.7793  143.8920  184.9203 C   0  0  0  0  0  0  0  0  0  0  0  0
  161.3456  143.2247  185.9546 N   0  0  0  0  0  0  0  0  0  0  0  0
  160.7194  142.0535  186.1351 C   0  0  0  0  0  0  0  0  0  0  0  0
  159.7263  141.9655  185.1932 C   0  0  0  0  0  0  0  0  0  0  0  0
  159.7631  143.1091  184.4370 C   0  0  0  0  0  0  0  0  0  0  0  0
  162.1433  143.5715  186.5161 H   0  0  0  0  0  0  0  0  0  0  0  0
  154.4948  138.2870  186.9176 C   0  0  0  0  0  0  0  0  0  0  0  0
  155.7121  138.1979  186.6241 O   0  0  0  0  0  0  0  0  0  0  0  0
  153.5245  138.7257  186.0290 N   0  0  0  0  0  0  0  0  0  0  0  0
  152.5093  138.7638  186.3824 H   0  0  0  0  0  0  0  0  0  0  0  0
  153.4995  137.0876  190.9293 C   0  0  0  0  0  0  0  0  0  0  0  0
  152.7422  136.7253  189.8298 C   0  0  0  0  0  0  0  0  0  0  0  0
  153.0512  137.1011  188.5257 C   0  0  0  0  0  0  0  0  0  0  0  0
  154.1780  137.8802  188.3055 C   0  0  0  0  0  0  0  0  0  0  0  0
  154.9440  138.2507  189.3833 C   0  0  0  0  0  0  0  0  0  0  0  0
  154.6170  137.8642  190.6859 C   0  0  0  0  0  0  0  0  0  0  0  0
  150.5569  135.0957  192.7091 C   0  0  0  0  0  0  0  0  0  0  0  0
  151.4734  135.1777  193.8188 N   0  0  0  0  0  0  0  0  0  0  0  0
  151.6902  136.5643  194.1502 C   0  0  0  0  0  0  0  0  0  0  0  0
  152.0759  137.3800  192.9307 C   0  0  0  0  0  0  0  0  0  0  0  0
  153.1057  136.6745  192.2220 N   0  0  0  0  0  0  0  0  0  0  0  0
  153.7039  135.5498  192.9047 C   0  0  0  0  0  0  0  0  0  0  0  0
  152.7100  134.5693  193.4651 C   0  0  0  0  0  0  0  0  0  0  0  0
  152.1618  138.2171  181.3648 C   0  0  0  0  0  0  0  0  0  0  0  0
  152.3024  136.8445  181.3629 F   0  0  0  0  0  0  0  0  0  0  0  0
  152.4260  138.7663  180.1342 F   0  0  0  0  0  0  0  0  0  0  0  0
  150.8580  138.5286  181.6928 F   0  0  0  0  0  0  0  0  0  0  0  0
 33 34  1  0  0  0
 34 35  1  0  0  0
 35 36  1  0  0  0
 36 37  1  0  0  0
 37 38  1  0  0  0
 38 39  1  0  0  0
 37 27  1  0  0  0
 27 28  2  0  0  0
 28 29  1  0  0  0
 29 30  2  0  0  0
 30 31  1  0  0  0
 31 32  2  0  0  0
 30 23  1  0  0  0
 23 24  2  0  0  0
 23 25  1  0  0  0
 25  1  1  0  0  0
  1  2  2  0  0  0
  2  3  1  0  0  0
  3  4  2  0  0  0
  4  5  1  0  0  0
  5  6  2  0  0  0
  5 40  1  0  0  0
 40 41  1  0  0  0
 40 42  1  0  0  0
 40 43  1  0  0  0
  3  7  1  0  0  0
  7  8  1  0  0  0
  8  9  1  0  0  0
  9 10  1  0  0  0
 10 11  1  0  0  0
 11 12  1  0  0  0
 10 13  1  0  0  0
 13 14  2  0  0  0
 14 15  1  0  0  0
 15 16  2  0  0  0
 16 17  1  0  0  0
 17 18  1  0  0  0
 18 19  1  0  0  0
 19 20  2  0  0  0
 20 21  1  0  0  0
 39 34  1  0  0  0
 32 27  1  0  0  0
  6  1  1  0  0  0
 12  7  1  0  0  0
 21 13  1  0  0  0
 21 17  2  0  0  0
 25 26  1  0  0  0
 18 22  1  0  0  0
M  END
> <minimizedAffinity>
-9.94586

> <CNNscore>
0.1880392879

> <CNNaffinity>
6.8965134621

> <CNN_VS>
1.2968155146

> <CNNaffinity_variance>
0.0364959091

$$$$
[H]c1nc(N2C([H])([H])C([H])([H])N(c3nc(C(F)(F)F)nc(N([H])C(=O)c4c([H])c([H])c(N5C([H])([H])C([H])([H])N(C([H])([H])[H])C([H])([H])C5([H])[H])c([H])c4[H])c3[H])C([H])([H])C2([H])[H])c2c([H])c([H])n([H])c2n1


 43 48  0  0  0  0  0  0  0  0999 V2000
  154.0404  138.7902  183.9532 C   0  0  0  0  0  0  0  0  0  0  0  0
  154.9185  139.7776  183.6007 C   0  0  0  0  0  0  0  0  0  0  0  0
  154.7010  140.6359  182.5072 C   0  0  0  0  0  0  0  0  0  0  0  0
  153.5729  140.4436  181.8082 N   0  0  0  0  0  0  0  0  0  0  0  0
  152.6844  139.4879  182.1207 C   0  0  0  0  0  0  0  0  0  0  0  0
  152.9137  138.6895  183.1596 N   0  0  0  0  0  0  0  0  0  0  0  0
  155.6287  141.6459  182.2047 N   0  0  0  0  0  0  0  0  0  0  0  0
  155.4987  142.9590  182.7808 C   0  0  0  0  0  0  0  0  0  0  0  0
  156.7110  143.8108  182.4104 C   0  0  0  0  0  0  0  0  0  0  0  0
  157.9290  143.0517  182.6133 N   0  0  0  0  0  0  0  0  0  0  0  0
  157.9850  141.6800  182.2354 C   0  0  0  0  0  0  0  0  0  0  0  0
  156.7584  141.3847  181.3442 C   0  0  0  0  0  0  0  0  0  0  0  0
  159.0102  143.7696  183.1957 C   0  0  0  0  0  0  0  0  0  0  0  0
  159.3825  144.9821  182.7720 N   0  0  0  0  0  0  0  0  0  0  0  0
  160.4119  145.6852  183.2809 C   0  0  0  0  0  0  0  0  0  0  0  0
  161.1013  145.1171  184.2809 N   0  0  0  0  0  0  0  0  0  0  0  0
  160.7646  143.8756  184.7565 C   0  0  0  0  0  0  0  0  0  0  0  0
  161.3017  143.1137  185.7398 N   0  0  0  0  0  0  0  0  0  0  0  0
  160.6233  141.9623  185.8423 C   0  0  0  0  0  0  0  0  0  0  0  0
  159.6257  141.9844  184.9013 C   0  0  0  0  0  0  0  0  0  0  0  0
  159.7132  143.1745  184.2253 C   0  0  0  0  0  0  0  0  0  0  0  0
  162.1152  143.3846  186.3201 H   0  0  0  0  0  0  0  0  0  0  0  0
  153.7889  138.0086  186.3207 C   0  0  0  0  0  0  0  0  0  0  0  0
  153.1592  139.0068  186.7482 O   0  0  0  0  0  0  0  0  0  0  0  0
  154.2144  137.8785  185.0070 N   0  0  0  0  0  0  0  0  0  0  0  0
  154.7475  136.9819  184.7449 H   0  0  0  0  0  0  0  0  0  0  0  0
  154.5161  135.0479  189.3586 C   0  0  0  0  0  0  0  0  0  0  0  0
  153.8892  136.2526  189.6219 C   0  0  0  0  0  0  0  0  0  0  0  0
  153.6430  137.2195  188.6515 C   0  0  0  0  0  0  0  0  0  0  0  0
  154.0426  136.9713  187.3462 C   0  0  0  0  0  0  0  0  0  0  0  0
  154.6665  135.7812  187.0630 C   0  0  0  0  0  0  0  0  0  0  0  0
  154.9060  134.8227  188.0515 C   0  0  0  0  0  0  0  0  0  0  0  0
  155.3083  131.1894  189.8857 C   0  0  0  0  0  0  0  0  0  0  0  0
  155.5352  131.6494  191.2329 N   0  0  0  0  0  0  0  0  0  0  0  0
  154.3089  132.1975  191.7573 C   0  0  0  0  0  0  0  0  0  0  0  0
  153.7040  133.2225  190.8167 C   0  0  0  0  0  0  0  0  0  0  0  0
  154.7402  134.1274  190.4069 N   0  0  0  0  0  0  0  0  0  0  0  0
  155.9913  134.0431  191.1257 C   0  0  0  0  0  0  0  0  0  0  0  0
  156.5474  132.6494  191.2337 C   0  0  0  0  0  0  0  0  0  0  0  0
  151.4363  139.3683  181.2744 C   0  0  0  0  0  0  0  0  0  0  0  0
  150.3035  139.3644  182.0620 F   0  0  0  0  0  0  0  0  0  0  0  0
  151.5108  138.2583  180.4691 F   0  0  0  0  0  0  0  0  0  0  0  0
  151.4035  140.4794  180.4564 F   0  0  0  0  0  0  0  0  0  0  0  0
 33 34  1  0  0  0
 34 35  1  0  0  0
 35 36  1  0  0  0
 36 37  1  0  0  0
 37 38  1  0  0  0
 38 39  1  0  0  0
 37 27  1  0  0  0
 27 28  2  0  0  0
 28 29  1  0  0  0
 29 30  2  0  0  0
 30 31  1  0  0  0
 31 32  2  0  0  0
 30 23  1  0  0  0
 23 24  2  0  0  0
 23 25  1  0  0  0
 25  1  1  0  0  0
  1  2  2  0  0  0
  2  3  1  0  0  0
  3  4  2  0  0  0
  4  5  1  0  0  0
  5  6  2  0  0  0
  5 40  1  0  0  0
 40 41  1  0  0  0
 40 42  1  0  0  0
 40 43  1  0  0  0
  3  7  1  0  0  0
  7  8  1  0  0  0
  8  9  1  0  0  0
  9 10  1  0  0  0
 10 11  1  0  0  0
 11 12  1  0  0  0
 10 13  1  0  0  0
 13 14  2  0  0  0
 14 15  1  0  0  0
 15 16  2  0  0  0
 16 17  1  0  0  0
 17 18  1  0  0  0
 18 19  1  0  0  0
 19 20  2  0  0  0
 20 21  1  0  0  0
 39 34  1  0  0  0
 32 27  1  0  0  0
  6  1  1  0  0  0
 12  7  1  0  0  0
 21 13  1  0  0  0
 21 17  2  0  0  0
 25 26  1  0  0  0
 18 22  1  0  0  0
M  END
> <minimizedAffinity>
-8.47048

> <CNNscore>
0.1689606905

> <CNNaffinity>
6.7570657730

> <CNN_VS>
1.1416784525

> <CNNaffinity_variance>
0.0254154094

$$$$
[H]c1nc(N2C([H])([H])C([H])([H])N(c3nc(C(F)(F)F)nc(N([H])C(=O)c4c([H])c([H])c(N5C([H])([H])C([H])([H])N(C([H])([H])[H])C([H])([H])C5([H])[H])c([H])c4[H])c3[H])C([H])([H])C2([H])[H])c2c([H])c([H])n([H])c2n1


 43 48  0  0  0  0  0  0  0  0999 V2000
  152.5439  138.5534  182.8920 C   0  0  0  0  0  0  0  0  0  0  0  0
  151.7172  137.6909  183.5575 C   0  0  0  0  0  0  0  0  0  0  0  0
  150.4373  137.3458  183.0859 C   0  0  0  0  0  0  0  0  0  0  0  0
  150.0510  137.9085  181.9316 N   0  0  0  0  0  0  0  0  0  0  0  0
  150.8311  138.7583  181.2464 C   0  0  0  0  0  0  0  0  0  0  0  0
  152.0373  139.0682  181.7140 N   0  0  0  0  0  0  0  0  0  0  0  0
  149.6400  136.4383  183.8021 N   0  0  0  0  0  0  0  0  0  0  0  0
  148.3465  136.0465  183.3056 C   0  0  0  0  0  0  0  0  0  0  0  0
  147.7624  134.9467  184.1897 C   0  0  0  0  0  0  0  0  0  0  0  0
  148.7691  133.9379  184.4538 N   0  0  0  0  0  0  0  0  0  0  0  0
  150.1098  134.3261  184.7359 C   0  0  0  0  0  0  0  0  0  0  0  0
  150.1111  135.8425  185.0301 C   0  0  0  0  0  0  0  0  0  0  0  0
  148.3153  132.5906  184.4080 C   0  0  0  0  0  0  0  0  0  0  0  0
  147.8822  131.9380  185.4919 N   0  0  0  0  0  0  0  0  0  0  0  0
  147.4649  130.6578  185.4955 C   0  0  0  0  0  0  0  0  0  0  0  0
  147.4913  130.0060  184.3241 N   0  0  0  0  0  0  0  0  0  0  0  0
  147.9256  130.6247  183.1797 C   0  0  0  0  0  0  0  0  0  0  0  0
  148.0392  130.1797  181.9050 N   0  0  0  0  0  0  0  0  0  0  0  0
  148.5159  131.1592  181.1241 C   0  0  0  0  0  0  0  0  0  0  0  0
  148.7141  132.2610  181.9165 C   0  0  0  0  0  0  0  0  0  0  0  0
  148.3471  131.9290  183.1957 C   0  0  0  0  0  0  0  0  0  0  0  0
  147.7949  129.2249  181.5881 H   0  0  0  0  0  0  0  0  0  0  0  0
  154.4188  140.1995  183.1255 C   0  0  0  0  0  0  0  0  0  0  0  0
  153.8737  141.1454  182.5060 O   0  0  0  0  0  0  0  0  0  0  0  0
  153.8141  138.9673  183.3250 N   0  0  0  0  0  0  0  0  0  0  0  0
  154.3697  138.2246  183.8696 H   0  0  0  0  0  0  0  0  0  0  0  0
  158.3510  141.1832  184.5723 C   0  0  0  0  0  0  0  0  0  0  0  0
  157.3710  142.1363  184.3604 C   0  0  0  0  0  0  0  0  0  0  0  0
  156.0936  141.8357  183.8965 C   0  0  0  0  0  0  0  0  0  0  0  0
  155.7752  140.5117  183.6303 C   0  0  0  0  0  0  0  0  0  0  0  0
  156.7335  139.5495  183.8343 C   0  0  0  0  0  0  0  0  0  0  0  0
  158.0114  139.8711  184.2998 C   0  0  0  0  0  0  0  0  0  0  0  0
  160.7813  144.3251  184.4450 C   0  0  0  0  0  0  0  0  0  0  0  0
  161.4837  143.5399  185.4290 N   0  0  0  0  0  0  0  0  0  0  0  0
  161.9027  142.2972  184.8295 C   0  0  0  0  0  0  0  0  0  0  0  0
  160.7519  141.5902  184.1389 C   0  0  0  0  0  0  0  0  0  0  0  0
  159.6279  141.5770  185.0316 N   0  0  0  0  0  0  0  0  0  0  0  0
  159.8849  141.9732  186.3976 C   0  0  0  0  0  0  0  0  0  0  0  0
  160.6256  143.2756  186.5327 C   0  0  0  0  0  0  0  0  0  0  0  0
  150.3029  139.3234  179.9464 C   0  0  0  0  0  0  0  0  0  0  0  0
  151.3050  139.9541  179.2381 F   0  0  0  0  0  0  0  0  0  0  0  0
  149.2364  140.1546  180.1862 F   0  0  0  0  0  0  0  0  0  0  0  0
  149.8433  138.2531  179.2062 F   0  0  0  0  0  0  0  0  0  0  0  0
 33 34  1  0  0  0
 34 35  1  0  0  0
 35 36  1  0  0  0
 36 37  1  0  0  0
 37 38  1  0  0  0
 38 39  1  0  0  0
 37 27  1  0  0  0
 27 28  2  0  0  0
 28 29  1  0  0  0
 29 30  2  0  0  0
 30 31  1  0  0  0
 31 32  2  0  0  0
 30 23  1  0  0  0
 23 24  2  0  0  0
 23 25  1  0  0  0
 25  1  1  0  0  0
  1  2  2  0  0  0
  2  3  1  0  0  0
  3  4  2  0  0  0
  4  5  1  0  0  0
  5  6  2  0  0  0
  5 40  1  0  0  0
 40 41  1  0  0  0
 40 42  1  0  0  0
 40 43  1  0  0  0
  3  7  1  0  0  0
  7  8  1  0  0  0
  8  9  1  0  0  0
  9 10  1  0  0  0
 10 11  1  0  0  0
 11 12  1  0  0  0
 10 13  1  0  0  0
 13 14  2  0  0  0
 14 15  1  0  0  0
 15 16  2  0  0  0
 16 17  1  0  0  0
 17 18  1  0  0  0
 18 19  1  0  0  0
 19 20  2  0  0  0
 20 21  1  0  0  0
 39 34  1  0  0  0
 32 27  1  0  0  0
  6  1  1  0  0  0
 12  7  1  0  0  0
 21 13  1  0  0  0
 21 17  2  0  0  0
 25 26  1  0  0  0
 18 22  1  0  0  0
M  END
> <minimizedAffinity>
-7.31326

> <CNNscore>
0.1667924672

> <CNNaffinity>
6.5863151550

> <CNN_VS>
1.0985476971

> <CNNaffinity_variance>
0.4880174100

$$$$
[H]c1c(C(=O)N([H])c2c([H])c([H])c(C(F)(F)F)c([H])c2[H])nc(C(F)(F)F)nc1N1C([H])([H])C([H])([H])N(S(=O)(=O)N2C([H])([H])C([H])([H])OC([H])([H])C2([H])[H])C([H])([H])[C@@]1([H])C([H])([H])[H]


 40 43  0  0  0  0  0  0  0  0999 V2000
  152.8871  138.8035  182.5931 C   0  0  0  0  0  0  0  0  0  0  0  0
  153.1905  138.2195  183.7922 C   0  0  0  0  0  0  0  0  0  0  0  0
  154.1526  138.7326  184.6432 C   0  0  0  0  0  0  0  0  0  0  0  0
  154.7898  139.8459  184.2456 N   0  0  0  0  0  0  0  0  0  0  0  0
  154.5153  140.4484  183.0729 C   0  0  0  0  0  0  0  0  0  0  0  0
  153.5816  139.9255  182.2762 N   0  0  0  0  0  0  0  0  0  0  0  0
  152.2643  139.9650  179.9665 C   0  0  0  0  0  0  0  0  0  0  0  0
  151.5293  138.7651  180.4406 C   0  0  0  0  0  0  0  0  0  0  0  0
  150.0106  139.0601  180.6131 C   0  0  0  0  0  0  0  0  0  0  0  0
  149.3680  137.8358  180.8055 N   0  0  0  0  0  0  0  0  0  0  0  0
  150.1931  136.7064  181.0486 C   0  0  0  0  0  0  0  0  0  0  0  0
  151.2170  137.0036  182.1058 C   0  0  0  0  0  0  0  0  0  0  0  0
  151.9270  138.2483  181.7331 N   0  0  0  0  0  0  0  0  0  0  0  0
  147.7987  137.5784  180.2838 S   0  0  0  0  0  0  0  0  0  0  0  0
  147.6543  138.2787  178.9165 O   0  0  0  0  0  0  0  0  0  0  0  0
  146.8942  138.4415  181.1825 O   0  0  0  0  0  0  0  0  0  0  0  0
  147.2244  136.0352  180.1225 N   0  0  0  0  0  0  0  0  0  0  0  0
  146.8164  135.2446  181.1925 C   0  0  0  0  0  0  0  0  0  0  0  0
  147.4408  133.8428  181.1561 C   0  0  0  0  0  0  0  0  0  0  0  0
  147.3470  133.2470  179.9233 O   0  0  0  0  0  0  0  0  0  0  0  0
  147.7646  134.0140  178.8604 C   0  0  0  0  0  0  0  0  0  0  0  0
  147.1598  135.4108  178.8569 C   0  0  0  0  0  0  0  0  0  0  0  0
  155.2610  141.6864  182.7303 C   0  0  0  0  0  0  0  0  0  0  0  0
  156.2573  141.4525  181.8064 F   0  0  0  0  0  0  0  0  0  0  0  0
  155.8165  142.2791  183.8431 F   0  0  0  0  0  0  0  0  0  0  0  0
  154.3779  142.6268  182.2091 F   0  0  0  0  0  0  0  0  0  0  0  0
  154.4000  138.1001  185.9136 C   0  0  0  0  0  0  0  0  0  0  0  0
  153.4606  137.4692  186.4451 O   0  0  0  0  0  0  0  0  0  0  0  0
  155.6821  138.2192  186.5047 N   0  0  0  0  0  0  0  0  0  0  0  0
  156.4189  138.7460  185.9930 H   0  0  0  0  0  0  0  0  0  0  0  0
  155.9146  137.6221  187.7636 C   0  0  0  0  0  0  0  0  0  0  0  0
  155.5762  138.2352  188.9549 C   0  0  0  0  0  0  0  0  0  0  0  0
  155.8053  137.5622  190.1468 C   0  0  0  0  0  0  0  0  0  0  0  0
  156.3603  136.3003  190.2138 C   0  0  0  0  0  0  0  0  0  0  0  0
  156.6946  135.6979  189.0294 C   0  0  0  0  0  0  0  0  0  0  0  0
  156.4699  136.3599  187.8155 C   0  0  0  0  0  0  0  0  0  0  0  0
  156.5833  135.6240  191.5176 C   0  0  0  0  0  0  0  0  0  0  0  0
  155.3558  135.0507  191.8569 F   0  0  0  0  0  0  0  0  0  0  0  0
  156.8500  136.6209  192.4371 F   0  0  0  0  0  0  0  0  0  0  0  0
  157.5426  134.6632  191.4486 F   0  0  0  0  0  0  0  0  0  0  0  0
  7  8  1  0  0  0
  8  9  1  0  0  0
  9 10  1  0  0  0
 10 11  1  0  0  0
 11 12  1  0  0  0
 12 13  1  0  0  0
 13  1  1  0  0  0
  1  2  2  0  0  0
  2  3  1  0  0  0
  3  4  2  0  0  0
  4  5  1  0  0  0
  5  6  2  0  0  0
  5 23  1  0  0  0
 23 24  1  0  0  0
 23 25  1  0  0  0
 23 26  1  0  0  0
  3 27  1  0  0  0
 27 28  2  0  0  0
 27 29  1  0  0  0
 29 31  1  0  0  0
 31 32  2  0  0  0
 32 33  1  0  0  0
 33 34  2  0  0  0
 34 35  1  0  0  0
 35 36  2  0  0  0
 34 37  1  0  0  0
 37 38  1  0  0  0
 37 39  1  0  0  0
 37 40  1  0  0  0
 10 14  1  0  0  0
 14 15  2  0  0  0
 14 16  2  0  0  0
 14 17  1  0  0  0
 17 18  1  0  0  0
 18 19  1  0  0  0
 19 20  1  0  0  0
 20 21  1  0  0  0
 21 22  1  0  0  0
 13  8  1  0  0  0
  6  1  1  0  0  0
 36 31  1  0  0  0
 22 17  1  0  0  0
 29 30  1  0  0  0
M  END
> <minimizedAffinity>
-7.77353

> <CNNscore>
0.5032022595

> <CNNaffinity>
6.0787668228

> <CNN_VS>
3.0588490963

> <CNNaffinity_variance>
0.1736002713

$$$$
[H]c1c(C(=O)N([H])c2c([H])c([H])c(C(F)(F)F)c([H])c2[H])nc(C(F)(F)F)nc1N1C([H])([H])C([H])([H])N(S(=O)(=O)N2C([H])([H])C([H])([H])OC([H])([H])C2([H])[H])C([H])([H])[C@@]1([H])C([H])([H])[H]


 40 43  0  0  0  0  0  0  0  0999 V2000
  155.1205  138.6626  185.4485 C   0  0  0  0  0  0  0  0  0  0  0  0
  154.0963  138.7474  184.5460 C   0  0  0  0  0  0  0  0  0  0  0  0
  154.1955  139.4862  183.3808 C   0  0  0  0  0  0  0  0  0  0  0  0
  155.3543  140.1283  183.1605 N   0  0  0  0  0  0  0  0  0  0  0  0
  156.3840  140.0653  184.0262 C   0  0  0  0  0  0  0  0  0  0  0  0
  156.2532  139.3438  185.1408 N   0  0  0  0  0  0  0  0  0  0  0  0
  152.5023  137.8898  186.5366 C   0  0  0  0  0  0  0  0  0  0  0  0
  153.7445  137.5329  187.2676 C   0  0  0  0  0  0  0  0  0  0  0  0
  153.8015  138.2224  188.6621 C   0  0  0  0  0  0  0  0  0  0  0  0
  154.8521  137.6388  189.3723 N   0  0  0  0  0  0  0  0  0  0  0  0
  155.7369  136.8023  188.6422 C   0  0  0  0  0  0  0  0  0  0  0  0
  156.1854  137.4679  187.3734 C   0  0  0  0  0  0  0  0  0  0  0  0
  154.9863  137.9299  186.6379 N   0  0  0  0  0  0  0  0  0  0  0  0
  154.8065  137.4884  191.0385 S   0  0  0  0  0  0  0  0  0  0  0  0
  154.7939  138.9164  191.6230 O   0  0  0  0  0  0  0  0  0  0  0  0
  156.1949  136.9793  191.4677 O   0  0  0  0  0  0  0  0  0  0  0  0
  153.5829  136.6388  191.7582 N   0  0  0  0  0  0  0  0  0  0  0  0
  152.2804  137.1124  191.8838 C   0  0  0  0  0  0  0  0  0  0  0  0
  151.7410  136.9697  193.3138 C   0  0  0  0  0  0  0  0  0  0  0  0
  151.9613  135.7244  193.8470 O   0  0  0  0  0  0  0  0  0  0  0  0
  153.2501  135.2544  193.7439 C   0  0  0  0  0  0  0  0  0  0  0  0
  153.8183  135.3716  192.3367 C   0  0  0  0  0  0  0  0  0  0  0  0
  157.6315  140.7954  183.6846 C   0  0  0  0  0  0  0  0  0  0  0  0
  158.6191  140.6034  184.6273 F   0  0  0  0  0  0  0  0  0  0  0  0
  157.4143  142.1478  183.5369 F   0  0  0  0  0  0  0  0  0  0  0  0
  158.0989  140.3562  182.4499 F   0  0  0  0  0  0  0  0  0  0  0  0
  153.1001  139.5045  182.4454 C   0  0  0  0  0  0  0  0  0  0  0  0
  152.6808  140.6169  182.0582 O   0  0  0  0  0  0  0  0  0  0  0  0
  152.5461  138.2758  182.0088 N   0  0  0  0  0  0  0  0  0  0  0  0
  152.9607  137.3896  182.3622 H   0  0  0  0  0  0  0  0  0  0  0  0
  151.4538  138.2962  181.1133 C   0  0  0  0  0  0  0  0  0  0  0  0
  151.3826  139.1659  180.0418 C   0  0  0  0  0  0  0  0  0  0  0  0
  150.2906  139.0940  179.1884 C   0  0  0  0  0  0  0  0  0  0  0  0
  149.2565  138.1944  179.3495 C   0  0  0  0  0  0  0  0  0  0  0  0
  149.3321  137.3353  180.4143 C   0  0  0  0  0  0  0  0  0  0  0  0
  150.4269  137.3907  181.2865 C   0  0  0  0  0  0  0  0  0  0  0  0
  148.1103  138.1593  178.4051 C   0  0  0  0  0  0  0  0  0  0  0  0
  147.8435  136.8054  178.1900 F   0  0  0  0  0  0  0  0  0  0  0  0
  148.5658  138.6923  177.2140 F   0  0  0  0  0  0  0  0  0  0  0  0
  147.0066  138.7779  178.9023 F   0  0  0  0  0  0  0  0  0  0  0  0
  7  8  1  0  0  0
  8  9  1  0  0  0
  9 10  1  0  0  0
 10 11  1  0  0  0
 11 12  1  0  0  0
 12 13  1  0  0  0
 13  1  1  0  0  0
  1  2  2  0  0  0
  2  3  1  0  0  0
  3  4  2  0  0  0
  4  5  1  0  0  0
  5  6  2  0  0  0
  5 23  1  0  0  0
 23 24  1  0  0  0
 23 25  1  0  0  0
 23 26  1  0  0  0
  3 27  1  0  0  0
 27 28  2  0  0  0
 27 29  1  0  0  0
 29 31  1  0  0  0
 31 32  2  0  0  0
 32 33  1  0  0  0
 33 34  2  0  0  0
 34 35  1  0  0  0
 35 36  2  0  0  0
 34 37  1  0  0  0
 37 38  1  0  0  0
 37 39  1  0  0  0
 37 40  1  0  0  0
 10 14  1  0  0  0
 14 15  2  0  0  0
 14 16  2  0  0  0
 14 17  1  0  0  0
 17 18  1  0  0  0
 18 19  1  0  0  0
 19 20  1  0  0  0
 20 21  1  0  0  0
 21 22  1  0  0  0
 13  8  1  0  0  0
  6  1  1  0  0  0
 36 31  1  0  0  0
 22 17  1  0  0  0
 29 30  1  0  0  0
M  END
> <minimizedAffinity>
-8.93192

> <CNNscore>
0.4705079198

> <CNNaffinity>
6.1981039047

> <CNN_VS>
2.9162569046

> <CNNaffinity_variance>
0.1159806103

$$$$
[H]c1c(C(=O)N([H])c2c([H])c([H])c(C(F)(F)F)c([H])c2[H])nc(C(F)(F)F)nc1N1C([H])([H])C([H])([H])N(S(=O)(=O)N2C([H])([H])C([H])([H])OC([H])([H])C2([H])[H])C([H])([H])[C@@]1([H])C([H])([H])[H]


 40 43  0  0  0  0  0  0  0  0999 V2000
  153.3673  139.3519  183.0680 C   0  0  0  0  0  0  0  0  0  0  0  0
  152.6353  138.4504  183.7908 C   0  0  0  0  0  0  0  0  0  0  0  0
  151.4665  137.8896  183.3087 C   0  0  0  0  0  0  0  0  0  0  0  0
  151.0678  138.2658  182.0827 N   0  0  0  0  0  0  0  0  0  0  0  0
  151.7646  139.1491  181.3425 C   0  0  0  0  0  0  0  0  0  0  0  0
  152.8874  139.6711  181.8394 N   0  0  0  0  0  0  0  0  0  0  0  0
  153.9089  142.2355  182.9031 C   0  0  0  0  0  0  0  0  0  0  0  0
  154.9042  141.3279  183.5279 C   0  0  0  0  0  0  0  0  0  0  0  0
  156.2436  141.3207  182.7346 C   0  0  0  0  0  0  0  0  0  0  0  0
  157.1889  140.6585  183.5199 N   0  0  0  0  0  0  0  0  0  0  0  0
  156.7057  139.9597  184.6574 C   0  0  0  0  0  0  0  0  0  0  0  0
  155.5306  139.0957  184.3011 C   0  0  0  0  0  0  0  0  0  0  0  0
  154.5350  139.9294  183.5899 N   0  0  0  0  0  0  0  0  0  0  0  0
  158.8125  141.0606  183.4624 S   0  0  0  0  0  0  0  0  0  0  0  0
  159.5680  139.8237  182.9332 O   0  0  0  0  0  0  0  0  0  0  0  0
  159.2957  141.1302  184.9227 O   0  0  0  0  0  0  0  0  0  0  0  0
  159.3087  142.3694  182.5803 N   0  0  0  0  0  0  0  0  0  0  0  0
  159.5508  143.6257  183.1274 C   0  0  0  0  0  0  0  0  0  0  0  0
  158.8523  144.7483  182.3476 C   0  0  0  0  0  0  0  0  0  0  0  0
  159.0439  144.6573  180.9916 O   0  0  0  0  0  0  0  0  0  0  0  0
  158.7899  143.4238  180.4380 C   0  0  0  0  0  0  0  0  0  0  0  0
  159.4731  142.2837  181.1797 C   0  0  0  0  0  0  0  0  0  0  0  0
  151.2520  139.4879  179.9903 C   0  0  0  0  0  0  0  0  0  0  0  0
  150.4784  138.4769  179.4609 F   0  0  0  0  0  0  0  0  0  0  0  0
  152.2711  139.7761  179.1091 F   0  0  0  0  0  0  0  0  0  0  0  0
  150.4854  140.6466  180.0651 F   0  0  0  0  0  0  0  0  0  0  0  0
  150.7595  136.9123  184.0963 C   0  0  0  0  0  0  0  0  0  0  0  0
  149.9283  136.1825  183.5136 O   0  0  0  0  0  0  0  0  0  0  0  0
  151.0290  136.8200  185.4842 N   0  0  0  0  0  0  0  0  0  0  0  0
  151.7479  137.4502  185.8944 H   0  0  0  0  0  0  0  0  0  0  0  0
  150.3146  135.8803  186.2601 C   0  0  0  0  0  0  0  0  0  0  0  0
  150.7302  134.5720  186.4180 C   0  0  0  0  0  0  0  0  0  0  0  0
  149.9890  133.7237  187.2286 C   0  0  0  0  0  0  0  0  0  0  0  0
  148.8447  134.1142  187.8941 C   0  0  0  0  0  0  0  0  0  0  0  0
  148.4370  135.4125  187.7329 C   0  0  0  0  0  0  0  0  0  0  0  0
  149.1722  136.2849  186.9202 C   0  0  0  0  0  0  0  0  0  0  0  0
  148.0887  133.1650  188.7510 C   0  0  0  0  0  0  0  0  0  0  0  0
  147.3067  132.4100  187.8739 F   0  0  0  0  0  0  0  0  0  0  0  0
  147.2347  133.9282  189.5246 F   0  0  0  0  0  0  0  0  0  0  0  0
  148.9045  132.3477  189.4683 F   0  0  0  0  0  0  0  0  0  0  0  0
  7  8  1  0  0  0
  8  9  1  0  0  0
  9 10  1  0  0  0
 10 11  1  0  0  0
 11 12  1  0  0  0
 12 13  1  0  0  0
 13  1  1  0  0  0
  1  2  2  0  0  0
  2  3  1  0  0  0
  3  4  2  0  0  0
  4  5  1  0  0  0
  5  6  2  0  0  0
  5 23  1  0  0  0
 23 24  1  0  0  0
 23 25  1  0  0  0
 23 26  1  0  0  0
  3 27  1  0  0  0
 27 28  2  0  0  0
 27 29  1  0  0  0
 29 31  1  0  0  0
 31 32  2  0  0  0
 32 33  1  0  0  0
 33 34  2  0  0  0
 34 35  1  0  0  0
 35 36  2  0  0  0
 34 37  1  0  0  0
 37 38  1  0  0  0
 37 39  1  0  0  0
 37 40  1  0  0  0
 10 14  1  0  0  0
 14 15  2  0  0  0
 14 16  2  0  0  0
 14 17  1  0  0  0
 17 18  1  0  0  0
 18 19  1  0  0  0
 19 20  1  0  0  0
 20 21  1  0  0  0
 21 22  1  0  0  0
 13  8  1  0  0  0
  6  1  1  0  0  0
 36 31  1  0  0  0
 22 17  1  0  0  0
 29 30  1  0  0  0
M  END
> <minimizedAffinity>
-7.19118

> <CNNscore>
0.4045746028

> <CNNaffinity>
6.7631516457

> <CNN_VS>
2.7361993790

> <CNNaffinity_variance>
0.1385052502

$$$$
[H]c1c(C(=O)N([H])c2c([H])c([H])c(C(F)(F)F)c([H])c2[H])nc(C(F)(F)F)nc1N1C([H])([H])C([H])([H])N(S(=O)(=O)N2C([H])([H])C([H])([H])OC([H])([H])C2([H])[H])C([H])([H])[C@@]1([H])C([H])([H])[H]


 40 43  0  0  0  0  0  0  0  0999 V2000
  153.0878  138.1572  183.2087 C   0  0  0  0  0  0  0  0  0  0  0  0
  153.6575  137.6293  184.3346 C   0  0  0  0  0  0  0  0  0  0  0  0
  154.6368  138.2943  185.0502 C   0  0  0  0  0  0  0  0  0  0  0  0
  155.0153  139.4995  184.5945 N   0  0  0  0  0  0  0  0  0  0  0  0
  154.4746  140.0504  183.4910 C   0  0  0  0  0  0  0  0  0  0  0  0
  153.5327  139.3803  182.8247 N   0  0  0  0  0  0  0  0  0  0  0  0
  151.1504  139.4970  181.4516 C   0  0  0  0  0  0  0  0  0  0  0  0
  151.1026  138.0226  181.6215 C   0  0  0  0  0  0  0  0  0  0  0  0
  149.7647  137.5688  182.2751 C   0  0  0  0  0  0  0  0  0  0  0  0
  149.6958  136.1792  182.1606 N   0  0  0  0  0  0  0  0  0  0  0  0
  150.8768  135.5075  181.7487 C   0  0  0  0  0  0  0  0  0  0  0  0
  152.0657  135.9724  182.5391 C   0  0  0  0  0  0  0  0  0  0  0  0
  152.1161  137.4511  182.4828 N   0  0  0  0  0  0  0  0  0  0  0  0
  148.2313  135.3845  182.0034 S   0  0  0  0  0  0  0  0  0  0  0  0
  147.7324  135.6324  180.5646 O   0  0  0  0  0  0  0  0  0  0  0  0
  147.2117  136.1818  182.8375 O   0  0  0  0  0  0  0  0  0  0  0  0
  148.1381  133.7587  182.2957 N   0  0  0  0  0  0  0  0  0  0  0  0
  148.0252  133.2054  183.5675 C   0  0  0  0  0  0  0  0  0  0  0  0
  149.0376  132.0768  183.8069 C   0  0  0  0  0  0  0  0  0  0  0  0
  149.0796  131.1686  182.7788 O   0  0  0  0  0  0  0  0  0  0  0  0
  149.2092  131.7047  181.5185 C   0  0  0  0  0  0  0  0  0  0  0  0
  148.2153  132.8234  181.2398 C   0  0  0  0  0  0  0  0  0  0  0  0
  154.9464  141.3966  183.0772 C   0  0  0  0  0  0  0  0  0  0  0  0
  154.9088  141.5611  181.7089 F   0  0  0  0  0  0  0  0  0  0  0  0
  156.2249  141.6545  183.5213 F   0  0  0  0  0  0  0  0  0  0  0  0
  154.1439  142.3676  183.6678 F   0  0  0  0  0  0  0  0  0  0  0  0
  155.1705  137.7092  186.2535 C   0  0  0  0  0  0  0  0  0  0  0  0
  155.5647  138.4818  187.1540 O   0  0  0  0  0  0  0  0  0  0  0  0
  155.2295  136.2981  186.3663 N   0  0  0  0  0  0  0  0  0  0  0  0
  154.8656  135.7207  185.5812 H   0  0  0  0  0  0  0  0  0  0  0  0
  155.7790  135.7263  187.5353 C   0  0  0  0  0  0  0  0  0  0  0  0
  157.1319  135.4882  187.6853 C   0  0  0  0  0  0  0  0  0  0  0  0
  157.5930  134.9575  188.8819 C   0  0  0  0  0  0  0  0  0  0  0  0
  156.7690  134.6476  189.9448 C   0  0  0  0  0  0  0  0  0  0  0  0
  155.4284  134.8850  189.7897 C   0  0  0  0  0  0  0  0  0  0  0  0
  154.9432  135.4217  188.5903 C   0  0  0  0  0  0  0  0  0  0  0  0
  157.3154  134.0817  191.2050 C   0  0  0  0  0  0  0  0  0  0  0  0
  156.3840  133.1282  191.6222 F   0  0  0  0  0  0  0  0  0  0  0  0
  157.3103  135.1075  192.1313 F   0  0  0  0  0  0  0  0  0  0  0  0
  158.5313  133.4993  191.0304 F   0  0  0  0  0  0  0  0  0  0  0  0
  7  8  1  0  0  0
  8  9  1  0  0  0
  9 10  1  0  0  0
 10 11  1  0  0  0
 11 12  1  0  0  0
 12 13  1  0  0  0
 13  1  1  0  0  0
  1  2  2  0  0  0
  2  3  1  0  0  0
  3  4  2  0  0  0
  4  5  1  0  0  0
  5  6  2  0  0  0
  5 23  1  0  0  0
 23 24  1  0  0  0
 23 25  1  0  0  0
 23 26  1  0  0  0
  3 27  1  0  0  0
 27 28  2  0  0  0
 27 29  1  0  0  0
 29 31  1  0  0  0
 31 32  2  0  0  0
 32 33  1  0  0  0
 33 34  2  0  0  0
 34 35  1  0  0  0
 35 36  2  0  0  0
 34 37  1  0  0  0
 37 38  1  0  0  0
 37 39  1  0  0  0
 37 40  1  0  0  0
 10 14  1  0  0  0
 14 15  2  0  0  0
 14 16  2  0  0  0
 14 17  1  0  0  0
 17 18  1  0  0  0
 18 19  1  0  0  0
 19 20  1  0  0  0
 20 21  1  0  0  0
 21 22  1  0  0  0
 13  8  1  0  0  0
  6  1  1  0  0  0
 36 31  1  0  0  0
 22 17  1  0  0  0
 29 30  1  0  0  0
M  END
> <minimizedAffinity>
-5.77934

> <CNNscore>
0.3218802512

> <CNNaffinity>
5.8771820068

> <CNN_VS>
1.8917487860

> <CNNaffinity_variance>
0.1177941784

$$$$
[H]c1c(C(=O)N([H])c2c([H])c([H])c(C(F)(F)F)c([H])c2[H])nc(C(F)(F)F)nc1N1C([H])([H])C([H])([H])N(S(=O)(=O)N2C([H])([H])C([H])([H])OC([H])([H])C2([H])[H])C([H])([H])[C@@]1([H])C([H])([H])[H]


 40 43  0  0  0  0  0  0  0  0999 V2000
  153.8990  139.7645  183.0391 C   0  0  0  0  0  0  0  0  0  0  0  0
  153.3944  138.7209  183.7653 C   0  0  0  0  0  0  0  0  0  0  0  0
  152.3036  137.9833  183.3417 C   0  0  0  0  0  0  0  0  0  0  0  0
  151.7473  138.3318  182.1702 N   0  0  0  0  0  0  0  0  0  0  0  0
  152.2190  139.3520  181.4284 C   0  0  0  0  0  0  0  0  0  0  0  0
  153.2725  140.0426  181.8679 N   0  0  0  0  0  0  0  0  0  0  0  0
  154.0035  142.6926  182.8132 C   0  0  0  0  0  0  0  0  0  0  0  0
  155.1458  141.9528  183.4071 C   0  0  0  0  0  0  0  0  0  0  0  0
  156.4387  142.1264  182.5577 C   0  0  0  0  0  0  0  0  0  0  0  0
  157.5019  141.6251  183.3109 N   0  0  0  0  0  0  0  0  0  0  0  0
  157.1728  140.8852  184.4770 C   0  0  0  0  0  0  0  0  0  0  0  0
  156.1243  139.8517  184.1824 C   0  0  0  0  0  0  0  0  0  0  0  0
  154.9891  140.5168  183.5032 N   0  0  0  0  0  0  0  0  0  0  0  0
  159.0450  142.2595  183.1790 S   0  0  0  0  0  0  0  0  0  0  0  0
  158.8943  143.7818  182.9776 O   0  0  0  0  0  0  0  0  0  0  0  0
  159.5858  141.8076  181.8100 O   0  0  0  0  0  0  0  0  0  0  0  0
  160.1438  142.0182  184.3921 N   0  0  0  0  0  0  0  0  0  0  0  0
  159.9142  142.3528  185.7232 C   0  0  0  0  0  0  0  0  0  0  0  0
  161.0685  143.1617  186.3310 C   0  0  0  0  0  0  0  0  0  0  0  0
  162.3001  142.6139  186.0727 O   0  0  0  0  0  0  0  0  0  0  0  0
  162.5439  142.2961  184.7567 C   0  0  0  0  0  0  0  0  0  0  0  0
  161.4237  141.4855  184.1201 C   0  0  0  0  0  0  0  0  0  0  0  0
  151.5469  139.6485  180.1375 C   0  0  0  0  0  0  0  0  0  0  0  0
  150.8055  140.8096  180.1939 F   0  0  0  0  0  0  0  0  0  0  0  0
  150.7280  138.6171  179.7330 F   0  0  0  0  0  0  0  0  0  0  0  0
  152.5058  139.7770  179.1376 F   0  0  0  0  0  0  0  0  0  0  0  0
  151.8419  136.8671  184.1265 C   0  0  0  0  0  0  0  0  0  0  0  0
  150.8900  137.0602  184.9138 O   0  0  0  0  0  0  0  0  0  0  0  0
  152.4790  135.6103  183.9790 N   0  0  0  0  0  0  0  0  0  0  0  0
  153.2536  135.5231  183.2901 H   0  0  0  0  0  0  0  0  0  0  0  0
  152.0434  134.5238  184.7698 C   0  0  0  0  0  0  0  0  0  0  0  0
  152.4759  134.3233  186.0668 C   0  0  0  0  0  0  0  0  0  0  0  0
  151.9689  133.2508  186.7868 C   0  0  0  0  0  0  0  0  0  0  0  0
  151.0470  132.3593  186.2769 C   0  0  0  0  0  0  0  0  0  0  0  0
  150.6225  132.5627  184.9900 C   0  0  0  0  0  0  0  0  0  0  0  0
  151.1211  133.6405  184.2469 C   0  0  0  0  0  0  0  0  0  0  0  0
  150.5357  131.2275  187.0921 C   0  0  0  0  0  0  0  0  0  0  0  0
  149.7038  130.4979  186.2398 F   0  0  0  0  0  0  0  0  0  0  0  0
  149.7435  131.7810  188.0802 F   0  0  0  0  0  0  0  0  0  0  0  0
  151.5328  130.4321  187.5624 F   0  0  0  0  0  0  0  0  0  0  0  0
  7  8  1  0  0  0
  8  9  1  0  0  0
  9 10  1  0  0  0
 10 11  1  0  0  0
 11 12  1  0  0  0
 12 13  1  0  0  0
 13  1  1  0  0  0
  1  2  2  0  0  0
  2  3  1  0  0  0
  3  4  2  0  0  0
  4  5  1  0  0  0
  5  6  2  0  0  0
  5 23  1  0  0  0
 23 24  1  0  0  0
 23 25  1  0  0  0
 23 26  1  0  0  0
  3 27  1  0  0  0
 27 28  2  0  0  0
 27 29  1  0  0  0
 29 31  1  0  0  0
 31 32  2  0  0  0
 32 33  1  0  0  0
 33 34  2  0  0  0
 34 35  1  0  0  0
 35 36  2  0  0  0
 34 37  1  0  0  0
 37 38  1  0  0  0
 37 39  1  0  0  0
 37 40  1  0  0  0
 10 14  1  0  0  0
 14 15  2  0  0  0
 14 16  2  0  0  0
 14 17  1  0  0  0
 17 18  1  0  0  0
 18 19  1  0  0  0
 19 20  1  0  0  0
 20 21  1  0  0  0
 21 22  1  0  0  0
 13  8  1  0  0  0
  6  1  1  0  0  0
 36 31  1  0  0  0
 22 17  1  0  0  0
 29 30  1  0  0  0
M  END
> <minimizedAffinity>
-7.78071

> <CNNscore>
0.3132274449

> <CNNaffinity>
6.5772247314

> <CNN_VS>
2.0601673126

> <CNNaffinity_variance>
0.1438532770

$$$$
[H]c1c(C(=O)N([H])c2c([H])c([H])c(C(F)(F)F)c([H])c2[H])nc(C(F)(F)F)nc1N1C([H])([H])C([H])([H])N(S(=O)(=O)N2C([H])([H])C([H])([H])OC([H])([H])C2([H])[H])C([H])([H])[C@@]1([H])C([H])([H])[H]


 40 43  0  0  0  0  0  0  0  0999 V2000
  153.8618  139.8896  183.0270 C   0  0  0  0  0  0  0  0  0  0  0  0
  153.3206  138.8997  183.8003 C   0  0  0  0  0  0  0  0  0  0  0  0
  152.2176  138.1672  183.4001 C   0  0  0  0  0  0  0  0  0  0  0  0
  151.6869  138.4653  182.2030 N   0  0  0  0  0  0  0  0  0  0  0  0
  152.1949  139.4319  181.4149 C   0  0  0  0  0  0  0  0  0  0  0  0
  153.2592  140.1193  181.8330 N   0  0  0  0  0  0  0  0  0  0  0  0
  153.9387  142.8229  182.8657 C   0  0  0  0  0  0  0  0  0  0  0  0
  155.1075  142.0779  183.3983 C   0  0  0  0  0  0  0  0  0  0  0  0
  156.3660  142.2806  182.5048 C   0  0  0  0  0  0  0  0  0  0  0  0
  157.4603  141.7698  183.2052 N   0  0  0  0  0  0  0  0  0  0  0  0
  157.1806  141.0008  184.3653 C   0  0  0  0  0  0  0  0  0  0  0  0
  156.1283  139.9667  184.0867 C   0  0  0  0  0  0  0  0  0  0  0  0
  154.9639  140.6390  183.4668 N   0  0  0  0  0  0  0  0  0  0  0  0
  158.9932  142.4184  183.0297 S   0  0  0  0  0  0  0  0  0  0  0  0
  158.8244  143.9426  182.8591 O   0  0  0  0  0  0  0  0  0  0  0  0
  159.4886  141.9932  181.6352 O   0  0  0  0  0  0  0  0  0  0  0  0
  160.1358  142.1659  184.1992 N   0  0  0  0  0  0  0  0  0  0  0  0
  160.1015  142.7603  185.4570 C   0  0  0  0  0  0  0  0  0  0  0  0
  161.4413  143.4068  185.8356 C   0  0  0  0  0  0  0  0  0  0  0  0
  162.5156  142.5830  185.6104 O   0  0  0  0  0  0  0  0  0  0  0  0
  162.5684  142.0043  184.3635 C   0  0  0  0  0  0  0  0  0  0  0  0
  161.2590  141.3445  183.9549 C   0  0  0  0  0  0  0  0  0  0  0  0
  151.5488  139.6745  180.0997 C   0  0  0  0  0  0  0  0  0  0  0  0
  150.8126  140.8402  180.0910 F   0  0  0  0  0  0  0  0  0  0  0  0
  150.7323  138.6299  179.7251 F   0  0  0  0  0  0  0  0  0  0  0  0
  152.5271  139.7548  179.1136 F   0  0  0  0  0  0  0  0  0  0  0  0
  151.7166  137.1067  184.2366 C   0  0  0  0  0  0  0  0  0  0  0  0
  151.1581  136.1370  183.6791 O   0  0  0  0  0  0  0  0  0  0  0  0
  151.8724  137.2050  185.6413 N   0  0  0  0  0  0  0  0  0  0  0  0
  152.3643  138.0349  186.0305 H   0  0  0  0  0  0  0  0  0  0  0  0
  151.3556  136.1777  186.4618 C   0  0  0  0  0  0  0  0  0  0  0  0
  152.0857  135.0545  186.8012 C   0  0  0  0  0  0  0  0  0  0  0  0
  151.5151  134.1104  187.6433 C   0  0  0  0  0  0  0  0  0  0  0  0
  150.2439  134.2274  188.1676 C   0  0  0  0  0  0  0  0  0  0  0  0
  149.5245  135.3427  187.8267 C   0  0  0  0  0  0  0  0  0  0  0  0
  150.0830  136.3082  186.9793 C   0  0  0  0  0  0  0  0  0  0  0  0
  149.6812  133.1867  189.0661 C   0  0  0  0  0  0  0  0  0  0  0  0
  150.2484  133.4274  190.3194 F   0  0  0  0  0  0  0  0  0  0  0  0
  150.1633  131.9733  188.6126 F   0  0  0  0  0  0  0  0  0  0  0  0
  148.3257  133.2478  189.1492 F   0  0  0  0  0  0  0  0  0  0  0  0
  7  8  1  0  0  0
  8  9  1  0  0  0
  9 10  1  0  0  0
 10 11  1  0  0  0
 11 12  1  0  0  0
 12 13  1  0  0  0
 13  1  1  0  0  0
  1  2  2  0  0  0
  2  3  1  0  0  0
  3  4  2  0  0  0
  4  5  1  0  0  0
  5  6  2  0  0  0
  5 23  1  0  0  0
 23 24  1  0  0  0
 23 25  1  0  0  0
 23 26  1  0  0  0
  3 27  1  0  0  0
 27 28  2  0  0  0
 27 29  1  0  0  0
 29 31  1  0  0  0
 31 32  2  0  0  0
 32 33  1  0  0  0
 33 34  2  0  0  0
 34 35  1  0  0  0
 35 36  2  0  0  0
 34 37  1  0  0  0
 37 38  1  0  0  0
 37 39  1  0  0  0
 37 40  1  0  0  0
 10 14  1  0  0  0
 14 15  2  0  0  0
 14 16  2  0  0  0
 14 17  1  0  0  0
 17 18  1  0  0  0
 18 19  1  0  0  0
 19 20  1  0  0  0
 20 21  1  0  0  0
 21 22  1  0  0  0
 13  8  1  0  0  0
  6  1  1  0  0  0
 36 31  1  0  0  0
 22 17  1  0  0  0
 29 30  1  0  0  0
M  END
> <minimizedAffinity>
-8.05384

> <CNNscore>
0.3027945161

> <CNNaffinity>
6.6140546799

> <CNN_VS>
2.0026993752

> <CNNaffinity_variance>
0.1027006656

$$$$
[H]c1c(C(=O)N([H])c2c([H])c([H])c(C(F)(F)F)c([H])c2[H])nc(C(F)(F)F)nc1N1C([H])([H])C([H])([H])N(S(=O)(=O)N2C([H])([H])C([H])([H])OC([H])([H])C2([H])[H])C([H])([H])[C@@]1([H])C([H])([H])[H]


 40 43  0  0  0  0  0  0  0  0999 V2000
  155.4672  138.2003  186.6013 C   0  0  0  0  0  0  0  0  0  0  0  0
  154.4700  138.0103  185.6846 C   0  0  0  0  0  0  0  0  0  0  0  0
  154.5400  138.5158  184.3990 C   0  0  0  0  0  0  0  0  0  0  0  0
  155.6421  139.2112  184.0744 N   0  0  0  0  0  0  0  0  0  0  0  0
  156.6440  139.4159  184.9507 C   0  0  0  0  0  0  0  0  0  0  0  0
  156.5426  138.9145  186.1829 N   0  0  0  0  0  0  0  0  0  0  0  0
  156.9862  135.8602  187.5248 C   0  0  0  0  0  0  0  0  0  0  0  0
  156.0401  136.5412  188.4446 C   0  0  0  0  0  0  0  0  0  0  0  0
  154.8775  135.5959  188.8663 C   0  0  0  0  0  0  0  0  0  0  0  0
  154.1941  136.2179  189.9127 N   0  0  0  0  0  0  0  0  0  0  0  0
  154.5101  137.5778  190.1702 C   0  0  0  0  0  0  0  0  0  0  0  0
  154.5008  138.3834  188.9032 C   0  0  0  0  0  0  0  0  0  0  0  0
  155.3609  137.7022  187.9090 N   0  0  0  0  0  0  0  0  0  0  0  0
  153.4447  135.3320  191.1189 S   0  0  0  0  0  0  0  0  0  0  0  0
  154.4986  135.0780  192.2169 O   0  0  0  0  0  0  0  0  0  0  0  0
  153.2284  133.9178  190.5497 O   0  0  0  0  0  0  0  0  0  0  0  0
  152.0844  135.9216  191.8531 N   0  0  0  0  0  0  0  0  0  0  0  0
  152.0687  136.4630  193.1349 C   0  0  0  0  0  0  0  0  0  0  0  0
  150.9519  135.8718  194.0064 C   0  0  0  0  0  0  0  0  0  0  0  0
  149.7355  135.8441  193.3713 O   0  0  0  0  0  0  0  0  0  0  0  0
  149.7369  135.2945  192.1103 C   0  0  0  0  0  0  0  0  0  0  0  0
  150.8268  135.8620  191.2121 C   0  0  0  0  0  0  0  0  0  0  0  0
  157.8304  140.1823  184.4912 C   0  0  0  0  0  0  0  0  0  0  0  0
  158.3775  140.9453  185.5009 F   0  0  0  0  0  0  0  0  0  0  0  0
  157.5339  141.0024  183.4247 F   0  0  0  0  0  0  0  0  0  0  0  0
  158.7973  139.2978  184.0235 F   0  0  0  0  0  0  0  0  0  0  0  0
  153.4791  138.2477  183.4621 C   0  0  0  0  0  0  0  0  0  0  0  0
  153.1529  137.0555  183.2741 O   0  0  0  0  0  0  0  0  0  0  0  0
  152.8568  139.3326  182.7966 N   0  0  0  0  0  0  0  0  0  0  0  0
  153.1713  140.2990  183.0188 H   0  0  0  0  0  0  0  0  0  0  0  0
  151.8358  139.0660  181.8574 C   0  0  0  0  0  0  0  0  0  0  0  0
  150.6417  138.4628  182.2034 C   0  0  0  0  0  0  0  0  0  0  0  0
  149.6764  138.2712  181.2249 C   0  0  0  0  0  0  0  0  0  0  0  0
  149.8412  138.6511  179.9084 C   0  0  0  0  0  0  0  0  0  0  0  0
  151.0277  139.2478  179.5711 C   0  0  0  0  0  0  0  0  0  0  0  0
  152.0142  139.4516  180.5445 C   0  0  0  0  0  0  0  0  0  0  0  0
  148.7740  138.4231  178.9004 C   0  0  0  0  0  0  0  0  0  0  0  0
  147.6230  139.0060  179.4352 F   0  0  0  0  0  0  0  0  0  0  0  0
  148.5680  137.0574  178.8479 F   0  0  0  0  0  0  0  0  0  0  0  0
  149.0649  138.9859  177.6976 F   0  0  0  0  0  0  0  0  0  0  0  0
  7  8  1  0  0  0
  8  9  1  0  0  0
  9 10  1  0  0  0
 10 11  1  0  0  0
 11 12  1  0  0  0
 12 13  1  0  0  0
 13  1  1  0  0  0
  1  2  2  0  0  0
  2  3  1  0  0  0
  3  4  2  0  0  0
  4  5  1  0  0  0
  5  6  2  0  0  0
  5 23  1  0  0  0
 23 24  1  0  0  0
 23 25  1  0  0  0
 23 26  1  0  0  0
  3 27  1  0  0  0
 27 28  2  0  0  0
 27 29  1  0  0  0
 29 31  1  0  0  0
 31 32  2  0  0  0
 32 33  1  0  0  0
 33 34  2  0  0  0
 34 35  1  0  0  0
 35 36  2  0  0  0
 34 37  1  0  0  0
 37 38  1  0  0  0
 37 39  1  0  0  0
 37 40  1  0  0  0
 10 14  1  0  0  0
 14 15  2  0  0  0
 14 16  2  0  0  0
 14 17  1  0  0  0
 17 18  1  0  0  0
 18 19  1  0  0  0
 19 20  1  0  0  0
 20 21  1  0  0  0
 21 22  1  0  0  0
 13  8  1  0  0  0
  6  1  1  0  0  0
 36 31  1  0  0  0
 22 17  1  0  0  0
 29 30  1  0  0  0
M  END
> <minimizedAffinity>
-8.54453

> <CNNscore>
0.2993035316

> <CNNaffinity>
6.0350799561

> <CNN_VS>
1.8063207865

> <CNNaffinity_variance>
0.2346618623

$$$$
[H]c1c(C(=O)N([H])c2c([H])c([H])c(C(F)(F)F)c([H])c2[H])nc(C(F)(F)F)nc1N1C([H])([H])C([H])([H])N(S(=O)(=O)N2C([H])([H])C([H])([H])OC([H])([H])C2([H])[H])C([H])([H])[C@@]1([H])C([H])([H])[H]


 40 43  0  0  0  0  0  0  0  0999 V2000
  153.9220  136.9967  185.9031 C   0  0  0  0  0  0  0  0  0  0  0  0
  154.8146  137.9526  185.5026 C   0  0  0  0  0  0  0  0  0  0  0  0
  154.6514  138.6749  184.3343 C   0  0  0  0  0  0  0  0  0  0  0  0
  153.5653  138.4021  183.5932 N   0  0  0  0  0  0  0  0  0  0  0  0
  152.6649  137.4694  183.9579 C   0  0  0  0  0  0  0  0  0  0  0  0
  152.8544  136.7908  185.0910 N   0  0  0  0  0  0  0  0  0  0  0  0
  153.7164  138.1976  188.5773 C   0  0  0  0  0  0  0  0  0  0  0  0
  154.0767  136.7644  188.4330 C   0  0  0  0  0  0  0  0  0  0  0  0
  155.5047  136.4790  188.9833 C   0  0  0  0  0  0  0  0  0  0  0  0
  155.6570  135.0928  189.0465 N   0  0  0  0  0  0  0  0  0  0  0  0
  154.6664  134.3058  188.4022 C   0  0  0  0  0  0  0  0  0  0  0  0
  154.4024  134.8038  187.0106 C   0  0  0  0  0  0  0  0  0  0  0  0
  154.1237  136.2564  187.0781 N   0  0  0  0  0  0  0  0  0  0  0  0
  156.6162  134.3688  190.2113 S   0  0  0  0  0  0  0  0  0  0  0  0
  155.7987  133.2080  190.8152 O   0  0  0  0  0  0  0  0  0  0  0  0
  156.6890  135.3564  191.3904 O   0  0  0  0  0  0  0  0  0  0  0  0
  158.1062  133.7767  189.8032 N   0  0  0  0  0  0  0  0  0  0  0  0
  158.8745  134.2692  188.7528 C   0  0  0  0  0  0  0  0  0  0  0  0
  159.3952  133.1541  187.8353 C   0  0  0  0  0  0  0  0  0  0  0  0
  159.9565  132.1102  188.5273 O   0  0  0  0  0  0  0  0  0  0  0  0
  159.1971  131.6042  189.5567 C   0  0  0  0  0  0  0  0  0  0  0  0
  158.6684  132.6803  190.4945 C   0  0  0  0  0  0  0  0  0  0  0  0
  151.4861  137.2533  183.0806 C   0  0  0  0  0  0  0  0  0  0  0  0
  150.9623  138.4404  182.6143 F   0  0  0  0  0  0  0  0  0  0  0  0
  150.4897  136.5479  183.7192 F   0  0  0  0  0  0  0  0  0  0  0  0
  151.8588  136.4698  181.9929 F   0  0  0  0  0  0  0  0  0  0  0  0
  155.6010  139.7001  183.9842 C   0  0  0  0  0  0  0  0  0  0  0  0
  156.5039  139.9660  184.8071 O   0  0  0  0  0  0  0  0  0  0  0  0
  155.4738  140.3604  182.7371 N   0  0  0  0  0  0  0  0  0  0  0  0
  154.7063  140.0714  182.0972 H   0  0  0  0  0  0  0  0  0  0  0  0
  156.3890  141.3848  182.4075 C   0  0  0  0  0  0  0  0  0  0  0  0
  157.6158  141.1310  181.8243 C   0  0  0  0  0  0  0  0  0  0  0  0
  158.4396  142.1992  181.4983 C   0  0  0  0  0  0  0  0  0  0  0  0
  158.1024  143.5178  181.7267 C   0  0  0  0  0  0  0  0  0  0  0  0
  156.8851  143.7631  182.3061 C   0  0  0  0  0  0  0  0  0  0  0  0
  156.0383  142.6988  182.6413 C   0  0  0  0  0  0  0  0  0  0  0  0
  159.0221  144.6244  181.3571 C   0  0  0  0  0  0  0  0  0  0  0  0
  160.0163  144.6285  182.3380 F   0  0  0  0  0  0  0  0  0  0  0  0
  158.2997  145.7957  181.4861 F   0  0  0  0  0  0  0  0  0  0  0  0
  159.5799  144.4501  180.1297 F   0  0  0  0  0  0  0  0  0  0  0  0
  7  8  1  0  0  0
  8  9  1  0  0  0
  9 10  1  0  0  0
 10 11  1  0  0  0
 11 12  1  0  0  0
 12 13  1  0  0  0
 13  1  1  0  0  0
  1  2  2  0  0  0
  2  3  1  0  0  0
  3  4  2  0  0  0
  4  5  1  0  0  0
  5  6  2  0  0  0
  5 23  1  0  0  0
 23 24  1  0  0  0
 23 25  1  0  0  0
 23 26  1  0  0  0
  3 27  1  0  0  0
 27 28  2  0  0  0
 27 29  1  0  0  0
 29 31  1  0  0  0
 31 32  2  0  0  0
 32 33  1  0  0  0
 33 34  2  0  0  0
 34 35  1  0  0  0
 35 36  2  0  0  0
 34 37  1  0  0  0
 37 38  1  0  0  0
 37 39  1  0  0  0
 37 40  1  0  0  0
 10 14  1  0  0  0
 14 15  2  0  0  0
 14 16  2  0  0  0
 14 17  1  0  0  0
 17 18  1  0  0  0
 18 19  1  0  0  0
 19 20  1  0  0  0
 20 21  1  0  0  0
 21 22  1  0  0  0
 13  8  1  0  0  0
  6  1  1  0  0  0
 36 31  1  0  0  0
 22 17  1  0  0  0
 29 30  1  0  0  0
M  END
> <minimizedAffinity>
-7.61510

> <CNNscore>
0.2985486388

> <CNNaffinity>
6.4120683670

> <CNN_VS>
1.9143142700

> <CNNaffinity_variance>
0.0473509058

$$$$
[H]c1c(C(=O)N([H])c2c([H])c([H])c(C(F)(F)F)c([H])c2[H])nc(C(F)(F)F)nc1N1C([H])([H])C([H])([H])N(S(=O)(=O)N2C([H])([H])C([H])([H])OC([H])([H])C2([H])[H])C([H])([H])[C@@]1([H])C([H])([H])[H]


 40 43  0  0  0  0  0  0  0  0999 V2000
  155.7444  140.4649  183.9890 C   0  0  0  0  0  0  0  0  0  0  0  0
  154.7763  139.5119  183.8293 C   0  0  0  0  0  0  0  0  0  0  0  0
  153.4271  139.8077  183.9026 C   0  0  0  0  0  0  0  0  0  0  0  0
  153.0933  141.0869  184.1385 N   0  0  0  0  0  0  0  0  0  0  0  0
  154.0196  142.0512  184.2987 C   0  0  0  0  0  0  0  0  0  0  0  0
  155.3123  141.7299  184.2226 N   0  0  0  0  0  0  0  0  0  0  0  0
  156.7422  137.7789  184.6417 C   0  0  0  0  0  0  0  0  0  0  0  0
  157.6959  138.8556  184.2730 C   0  0  0  0  0  0  0  0  0  0  0  0
  158.6599  139.1885  185.4490 C   0  0  0  0  0  0  0  0  0  0  0  0
  159.6690  140.0083  184.9408 N   0  0  0  0  0  0  0  0  0  0  0  0
  159.4743  140.5369  183.6375 C   0  0  0  0  0  0  0  0  0  0  0  0
  158.1051  141.1369  183.4974 C   0  0  0  0  0  0  0  0  0  0  0  0
  157.1078  140.1357  183.9390 N   0  0  0  0  0  0  0  0  0  0  0  0
  161.2224  139.9738  185.5625 S   0  0  0  0  0  0  0  0  0  0  0  0
  162.0596  139.0611  184.6422 O   0  0  0  0  0  0  0  0  0  0  0  0
  161.1542  139.1453  186.8586 O   0  0  0  0  0  0  0  0  0  0  0  0
  162.0608  141.3850  185.7700 N   0  0  0  0  0  0  0  0  0  0  0  0
  162.8709  141.9557  184.7931 C   0  0  0  0  0  0  0  0  0  0  0  0
  164.2573  142.3359  185.3311 C   0  0  0  0  0  0  0  0  0  0  0  0
  164.2007  143.0258  186.5161 O   0  0  0  0  0  0  0  0  0  0  0  0
  163.4166  142.4606  187.4949 C   0  0  0  0  0  0  0  0  0  0  0  0
  162.0287  142.0768  187.0014 C   0  0  0  0  0  0  0  0  0  0  0  0
  153.5505  143.4401  184.5372 C   0  0  0  0  0  0  0  0  0  0  0  0
  154.4415  144.1642  185.3005 F   0  0  0  0  0  0  0  0  0  0  0  0
  152.3154  143.4703  185.1468 F   0  0  0  0  0  0  0  0  0  0  0  0
  153.3792  144.0845  183.3161 F   0  0  0  0  0  0  0  0  0  0  0  0
  152.4508  138.7714  183.6832 C   0  0  0  0  0  0  0  0  0  0  0  0
  152.2484  137.9541  184.6074 O   0  0  0  0  0  0  0  0  0  0  0  0
  151.7689  138.7184  182.4425 N   0  0  0  0  0  0  0  0  0  0  0  0
  151.9788  139.4448  181.7280 H   0  0  0  0  0  0  0  0  0  0  0  0
  150.8323  137.6848  182.2187 C   0  0  0  0  0  0  0  0  0  0  0  0
  149.4769  137.8455  182.4346 C   0  0  0  0  0  0  0  0  0  0  0  0
  148.6211  136.7898  182.1536 C   0  0  0  0  0  0  0  0  0  0  0  0
  149.0493  135.5717  181.6663 C   0  0  0  0  0  0  0  0  0  0  0  0
  150.3945  135.4180  181.4551 C   0  0  0  0  0  0  0  0  0  0  0  0
  151.2748  136.4721  181.7310 C   0  0  0  0  0  0  0  0  0  0  0  0
  148.0895  134.4742  181.3813 C   0  0  0  0  0  0  0  0  0  0  0  0
  148.5232  133.3893  182.1464 F   0  0  0  0  0  0  0  0  0  0  0  0
  148.2555  134.1426  180.0498 F   0  0  0  0  0  0  0  0  0  0  0  0
  146.8126  134.7990  181.7161 F   0  0  0  0  0  0  0  0  0  0  0  0
  7  8  1  0  0  0
  8  9  1  0  0  0
  9 10  1  0  0  0
 10 11  1  0  0  0
 11 12  1  0  0  0
 12 13  1  0  0  0
 13  1  1  0  0  0
  1  2  2  0  0  0
  2  3  1  0  0  0
  3  4  2  0  0  0
  4  5  1  0  0  0
  5  6  2  0  0  0
  5 23  1  0  0  0
 23 24  1  0  0  0
 23 25  1  0  0  0
 23 26  1  0  0  0
  3 27  1  0  0  0
 27 28  2  0  0  0
 27 29  1  0  0  0
 29 31  1  0  0  0
 31 32  2  0  0  0
 32 33  1  0  0  0
 33 34  2  0  0  0
 34 35  1  0  0  0
 35 36  2  0  0  0
 34 37  1  0  0  0
 37 38  1  0  0  0
 37 39  1  0  0  0
 37 40  1  0  0  0
 10 14  1  0  0  0
 14 15  2  0  0  0
 14 16  2  0  0  0
 14 17  1  0  0  0
 17 18  1  0  0  0
 18 19  1  0  0  0
 19 20  1  0  0  0
 20 21  1  0  0  0
 21 22  1  0  0  0
 13  8  1  0  0  0
  6  1  1  0  0  0
 36 31  1  0  0  0
 22 17  1  0  0  0
 29 30  1  0  0  0
M  END
> <minimizedAffinity>
35.29778

> <CNNscore>
0.2965905666

> <CNNaffinity>
6.1513967514

> <CNN_VS>
1.8244462013

> <CNNaffinity_variance>
1.4764388800

$$$$
[H]c1c(N2C([H])([H])C([H])([H])OC([H])([H])C2([H])[H])nc(C(F)(F)F)nc1N1C([H])([H])C([H])([H])N(c2c([H])c(N3C([H])([H])C([H])([H])OC([H])([H])C3([H])[H])nc(C(F)(F)F)c2[H])C([H])([H])[C@@]1([H])C([H])([H])[H]


 39 43  0  0  0  0  0  0  0  0999 V2000
  153.9034  139.0259  185.9176 C   0  0  0  0  0  0  0  0  0  0  0  0
  153.9683  137.4948  185.7756 C   0  0  0  0  0  0  0  0  0  0  0  0
  153.7312  137.1331  184.3465 C   0  0  0  0  0  0  0  0  0  0  0  0
  152.3641  136.7314  184.0847 N   0  0  0  0  0  0  0  0  0  0  0  0
  151.8435  135.7474  185.0336 C   0  0  0  0  0  0  0  0  0  0  0  0
  151.7249  136.5614  186.3296 C   0  0  0  0  0  0  0  0  0  0  0  0
  153.0493  136.9787  186.7233 N   0  0  0  0  0  0  0  0  0  0  0  0
  153.3523  136.8685  188.1234 C   0  0  0  0  0  0  0  0  0  0  0  0
  152.4392  136.5320  189.0978 C   0  0  0  0  0  0  0  0  0  0  0  0
  152.8333  136.3995  190.4241 C   0  0  0  0  0  0  0  0  0  0  0  0
  154.1636  136.6218  190.6983 N   0  0  0  0  0  0  0  0  0  0  0  0
  155.0611  136.9519  189.7688 C   0  0  0  0  0  0  0  0  0  0  0  0
  154.6114  137.0613  188.5179 N   0  0  0  0  0  0  0  0  0  0  0  0
  152.0084  136.0319  191.4992 N   0  0  0  0  0  0  0  0  0  0  0  0
  152.0842  134.6493  191.9919 C   0  0  0  0  0  0  0  0  0  0  0  0
  152.3963  134.6783  193.4839 C   0  0  0  0  0  0  0  0  0  0  0  0
  151.6451  135.6243  194.1441 O   0  0  0  0  0  0  0  0  0  0  0  0
  151.7153  136.9100  193.6629 C   0  0  0  0  0  0  0  0  0  0  0  0
  151.1232  136.8902  192.2238 C   0  0  0  0  0  0  0  0  0  0  0  0
  156.5018  137.1417  190.1417 C   0  0  0  0  0  0  0  0  0  0  0  0
  156.6910  136.9752  191.4821 F   0  0  0  0  0  0  0  0  0  0  0  0
  156.8748  138.4198  189.7587 F   0  0  0  0  0  0  0  0  0  0  0  0
  157.3103  136.2633  189.4472 F   0  0  0  0  0  0  0  0  0  0  0  0
  151.5255  137.2431  183.0879 C   0  0  0  0  0  0  0  0  0  0  0  0
  150.2660  136.7726  182.7971 C   0  0  0  0  0  0  0  0  0  0  0  0
  149.4853  137.3575  181.7937 C   0  0  0  0  0  0  0  0  0  0  0  0
  150.0599  138.4057  181.1428 N   0  0  0  0  0  0  0  0  0  0  0  0
  151.2513  138.9065  181.3764 C   0  0  0  0  0  0  0  0  0  0  0  0
  152.0100  138.3245  182.3622 C   0  0  0  0  0  0  0  0  0  0  0  0
  148.1934  136.9786  181.4401 N   0  0  0  0  0  0  0  0  0  0  0  0
  147.3919  136.1631  182.3798 C   0  0  0  0  0  0  0  0  0  0  0  0
  147.3379  134.7965  181.6437 C   0  0  0  0  0  0  0  0  0  0  0  0
  146.8115  134.9464  180.3936 O   0  0  0  0  0  0  0  0  0  0  0  0
  147.5577  135.7659  179.5548 C   0  0  0  0  0  0  0  0  0  0  0  0
  147.5467  137.1917  180.1770 C   0  0  0  0  0  0  0  0  0  0  0  0
  151.7963  140.0805  180.6241 C   0  0  0  0  0  0  0  0  0  0  0  0
  152.4320  139.5399  179.4975 F   0  0  0  0  0  0  0  0  0  0  0  0
  152.7191  140.7816  181.3696 F   0  0  0  0  0  0  0  0  0  0  0  0
  150.7248  140.8075  180.2152 F   0  0  0  0  0  0  0  0  0  0  0  0
  1  2  1  0  0  0
  2  3  1  0  0  0
  3  4  1  0  0  0
  4  5  1  0  0  0
  5  6  1  0  0  0
  6  7  1  0  0  0
  7  8  1  0  0  0
  8  9  2  0  0  0
  9 10  1  0  0  0
 10 11  2  0  0  0
 11 12  1  0  0  0
 12 13  2  0  0  0
 12 20  1  0  0  0
 20 21  1  0  0  0
 20 22  1  0  0  0
 20 23  1  0  0  0
 10 14  1  0  0  0
 14 15  1  0  0  0
 15 16  1  0  0  0
 16 17  1  0  0  0
 17 18  1  0  0  0
 18 19  1  0  0  0
  4 24  1  0  0  0
 24 25  2  0  0  0
 25 26  1  0  0  0
 26 27  2  0  0  0
 27 28  1  0  0  0
 28 29  2  0  0  0
 28 36  1  0  0  0
 36 37  1  0  0  0
 36 38  1  0  0  0
 36 39  1  0  0  0
 26 30  1  0  0  0
 30 31  1  0  0  0
 31 32  1  0  0  0
 32 33  1  0  0  0
 33 34  1  0  0  0
 34 35  1  0  0  0
  7  2  1  0  0  0
 13  8  1  0  0  0
 19 14  1  0  0  0
 29 24  1  0  0  0
 35 30  1  0  0  0
M  END
> <minimizedAffinity>
-7.16691

> <CNNscore>
0.6130748391

> <CNNaffinity>
6.3996620178

> <CNN_VS>
3.9234716892

> <CNNaffinity_variance>
0.1003821343

$$$$
[H]c1c(N2C([H])([H])C([H])([H])OC([H])([H])C2([H])[H])nc(C(F)(F)F)nc1N1C([H])([H])C([H])([H])N(c2c([H])c(N3C([H])([H])C([H])([H])OC([H])([H])C3([H])[H])nc(C(F)(F)F)c2[H])C([H])([H])[C@@]1([H])C([H])([H])[H]


 39 43  0  0  0  0  0  0  0  0999 V2000
  156.1511  136.9676  186.9966 C   0  0  0  0  0  0  0  0  0  0  0  0
  154.7280  136.4026  186.8412 C   0  0  0  0  0  0  0  0  0  0  0  0
  154.3211  136.5092  185.4086 C   0  0  0  0  0  0  0  0  0  0  0  0
  153.4942  137.6683  185.1409 N   0  0  0  0  0  0  0  0  0  0  0  0
  152.3852  137.8349  186.0802 C   0  0  0  0  0  0  0  0  0  0  0  0
  153.1034  138.2132  187.3831 C   0  0  0  0  0  0  0  0  0  0  0  0
  153.9298  137.0994  187.7827 N   0  0  0  0  0  0  0  0  0  0  0  0
  153.9130  136.7754  189.1824 C   0  0  0  0  0  0  0  0  0  0  0  0
  152.8262  136.9419  190.0116 C   0  0  0  0  0  0  0  0  0  0  0  0
  152.8848  136.5533  191.3448 C   0  0  0  0  0  0  0  0  0  0  0  0
  154.0708  136.0046  191.7766 N   0  0  0  0  0  0  0  0  0  0  0  0
  155.1345  135.8389  190.9895 C   0  0  0  0  0  0  0  0  0  0  0  0
  155.0059  136.2348  189.7222 N   0  0  0  0  0  0  0  0  0  0  0  0
  151.8398  136.6410  192.2785 N   0  0  0  0  0  0  0  0  0  0  0  0
  150.4681  136.3957  191.8111 C   0  0  0  0  0  0  0  0  0  0  0  0
  149.8538  135.2872  192.6585 C   0  0  0  0  0  0  0  0  0  0  0  0
  150.1249  135.4584  193.9972 O   0  0  0  0  0  0  0  0  0  0  0  0
  151.4489  135.5845  194.3448 C   0  0  0  0  0  0  0  0  0  0  0  0
  151.9712  136.8914  193.6804 C   0  0  0  0  0  0  0  0  0  0  0  0
  156.3804  135.1984  191.5259 C   0  0  0  0  0  0  0  0  0  0  0  0
  156.1515  133.9055  191.8948 F   0  0  0  0  0  0  0  0  0  0  0  0
  156.8045  135.9413  192.6156 F   0  0  0  0  0  0  0  0  0  0  0  0
  157.3973  135.2404  190.5922 F   0  0  0  0  0  0  0  0  0  0  0  0
  153.7102  138.6299  184.1471 C   0  0  0  0  0  0  0  0  0  0  0  0
  154.7360  139.5463  184.1446 C   0  0  0  0  0  0  0  0  0  0  0  0
  154.8896  140.4624  183.0980 C   0  0  0  0  0  0  0  0  0  0  0  0
  153.9627  140.3760  182.1051 N   0  0  0  0  0  0  0  0  0  0  0  0
  152.9667  139.5222  182.0443 C   0  0  0  0  0  0  0  0  0  0  0  0
  152.8239  138.6282  183.0769 C   0  0  0  0  0  0  0  0  0  0  0  0
  155.9044  141.4085  182.9842 N   0  0  0  0  0  0  0  0  0  0  0  0
  156.3374  141.8524  181.6404 C   0  0  0  0  0  0  0  0  0  0  0  0
  157.7522  141.2192  181.5404 C   0  0  0  0  0  0  0  0  0  0  0  0
  158.5354  141.6301  182.5797 O   0  0  0  0  0  0  0  0  0  0  0  0
  158.0688  141.2472  183.8318 C   0  0  0  0  0  0  0  0  0  0  0  0
  156.6995  141.9533  184.0472 C   0  0  0  0  0  0  0  0  0  0  0  0
  152.0043  139.4833  180.8981 C   0  0  0  0  0  0  0  0  0  0  0  0
  150.8667  138.8260  181.3876 F   0  0  0  0  0  0  0  0  0  0  0  0
  152.5100  138.7746  179.8300 F   0  0  0  0  0  0  0  0  0  0  0  0
  151.6801  140.7729  180.6230 F   0  0  0  0  0  0  0  0  0  0  0  0
  1  2  1  0  0  0
  2  3  1  0  0  0
  3  4  1  0  0  0
  4  5  1  0  0  0
  5  6  1  0  0  0
  6  7  1  0  0  0
  7  8  1  0  0  0
  8  9  2  0  0  0
  9 10  1  0  0  0
 10 11  2  0  0  0
 11 12  1  0  0  0
 12 13  2  0  0  0
 12 20  1  0  0  0
 20 21  1  0  0  0
 20 22  1  0  0  0
 20 23  1  0  0  0
 10 14  1  0  0  0
 14 15  1  0  0  0
 15 16  1  0  0  0
 16 17  1  0  0  0
 17 18  1  0  0  0
 18 19  1  0  0  0
  4 24  1  0  0  0
 24 25  2  0  0  0
 25 26  1  0  0  0
 26 27  2  0  0  0
 27 28  1  0  0  0
 28 29  2  0  0  0
 28 36  1  0  0  0
 36 37  1  0  0  0
 36 38  1  0  0  0
 36 39  1  0  0  0
 26 30  1  0  0  0
 30 31  1  0  0  0
 31 32  1  0  0  0
 32 33  1  0  0  0
 33 34  1  0  0  0
 34 35  1  0  0  0
  7  2  1  0  0  0
 13  8  1  0  0  0
 19 14  1  0  0  0
 29 24  1  0  0  0
 35 30  1  0  0  0
M  END
> <minimizedAffinity>
-8.54441

> <CNNscore>
0.4928067625

> <CNNaffinity>
6.5979833603

> <CNN_VS>
3.2515308857

> <CNNaffinity_variance>
0.0822755694

$$$$
[H]c1c(N2C([H])([H])C([H])([H])OC([H])([H])C2([H])[H])nc(C(F)(F)F)nc1N1C([H])([H])C([H])([H])N(c2c([H])c(N3C([H])([H])C([H])([H])OC([H])([H])C3([H])[H])nc(C(F)(F)F)c2[H])C([H])([H])[C@@]1([H])C([H])([H])[H]


 39 43  0  0  0  0  0  0  0  0999 V2000
  154.2104  134.6542  185.6238 C   0  0  0  0  0  0  0  0  0  0  0  0
  153.7202  135.6551  186.6851 C   0  0  0  0  0  0  0  0  0  0  0  0
  152.8094  136.6420  186.0324 C   0  0  0  0  0  0  0  0  0  0  0  0
  153.4718  137.8858  185.6963 N   0  0  0  0  0  0  0  0  0  0  0  0
  154.2627  138.4505  186.7897 C   0  0  0  0  0  0  0  0  0  0  0  0
  155.4270  137.4573  186.9091 C   0  0  0  0  0  0  0  0  0  0  0  0
  154.8888  136.1752  187.2959 N   0  0  0  0  0  0  0  0  0  0  0  0
  155.6274  135.4613  188.3004 C   0  0  0  0  0  0  0  0  0  0  0  0
  156.3392  134.3043  188.0744 C   0  0  0  0  0  0  0  0  0  0  0  0
  157.0673  133.7079  189.0973 C   0  0  0  0  0  0  0  0  0  0  0  0
  157.0329  134.3306  190.3241 N   0  0  0  0  0  0  0  0  0  0  0  0
  156.3465  135.4489  190.5625 C   0  0  0  0  0  0  0  0  0  0  0  0
  155.6714  135.9648  189.5343 N   0  0  0  0  0  0  0  0  0  0  0  0
  157.8550  132.5509  188.9859 N   0  0  0  0  0  0  0  0  0  0  0  0
  158.4225  132.2208  187.6710 C   0  0  0  0  0  0  0  0  0  0  0  0
  159.9341  132.0817  187.8119 C   0  0  0  0  0  0  0  0  0  0  0  0
  160.2780  131.3595  188.9322 O   0  0  0  0  0  0  0  0  0  0  0  0
  159.7716  131.8052  190.1300 C   0  0  0  0  0  0  0  0  0  0  0  0
  158.2236  131.6678  190.0488 C   0  0  0  0  0  0  0  0  0  0  0  0
  156.3888  136.0881  191.9191 C   0  0  0  0  0  0  0  0  0  0  0  0
  157.3733  135.5444  192.6907 F   0  0  0  0  0  0  0  0  0  0  0  0
  155.1524  135.9014  192.5153 F   0  0  0  0  0  0  0  0  0  0  0  0
  156.5818  137.4518  191.8153 F   0  0  0  0  0  0  0  0  0  0  0  0
  153.4704  138.5150  184.4461 C   0  0  0  0  0  0  0  0  0  0  0  0
  152.6771  138.1549  183.3816 C   0  0  0  0  0  0  0  0  0  0  0  0
  152.7259  138.8531  182.1698 C   0  0  0  0  0  0  0  0  0  0  0  0
  153.6023  139.8937  182.1300 N   0  0  0  0  0  0  0  0  0  0  0  0
  154.3802  140.2923  183.1102 C   0  0  0  0  0  0  0  0  0  0  0  0
  154.3258  139.5996  184.2948 C   0  0  0  0  0  0  0  0  0  0  0  0
  151.9492  138.5903  181.0449 N   0  0  0  0  0  0  0  0  0  0  0  0
  152.1713  139.3732  179.8087 C   0  0  0  0  0  0  0  0  0  0  0  0
  150.8803  140.2343  179.7451 C   0  0  0  0  0  0  0  0  0  0  0  0
  149.7724  139.4374  179.7493 O   0  0  0  0  0  0  0  0  0  0  0  0
  149.6251  138.6711  180.8996 C   0  0  0  0  0  0  0  0  0  0  0  0
  150.8331  137.6926  180.9573 C   0  0  0  0  0  0  0  0  0  0  0  0
  155.3007  141.4662  182.9852 C   0  0  0  0  0  0  0  0  0  0  0  0
  154.7144  142.4840  183.7508 F   0  0  0  0  0  0  0  0  0  0  0  0
  155.4121  141.8916  181.6792 F   0  0  0  0  0  0  0  0  0  0  0  0
  156.4723  141.1011  183.5665 F   0  0  0  0  0  0  0  0  0  0  0  0
  1  2  1  0  0  0
  2  3  1  0  0  0
  3  4  1  0  0  0
  4  5  1  0  0  0
  5  6  1  0  0  0
  6  7  1  0  0  0
  7  8  1  0  0  0
  8  9  2  0  0  0
  9 10  1  0  0  0
 10 11  2  0  0  0
 11 12  1  0  0  0
 12 13  2  0  0  0
 12 20  1  0  0  0
 20 21  1  0  0  0
 20 22  1  0  0  0
 20 23  1  0  0  0
 10 14  1  0  0  0
 14 15  1  0  0  0
 15 16  1  0  0  0
 16 17  1  0  0  0
 17 18  1  0  0  0
 18 19  1  0  0  0
  4 24  1  0  0  0
 24 25  2  0  0  0
 25 26  1  0  0  0
 26 27  2  0  0  0
 27 28  1  0  0  0
 28 29  2  0  0  0
 28 36  1  0  0  0
 36 37  1  0  0  0
 36 38  1  0  0  0
 36 39  1  0  0  0
 26 30  1  0  0  0
 30 31  1  0  0  0
 31 32  1  0  0  0
 32 33  1  0  0  0
 33 34  1  0  0  0
 34 35  1  0  0  0
  7  2  1  0  0  0
 13  8  1  0  0  0
 19 14  1  0  0  0
 29 24  1  0  0  0
 35 30  1  0  0  0
M  END
> <minimizedAffinity>
-7.75365

> <CNNscore>
0.4480558336

> <CNNaffinity>
6.3099279404

> <CNN_VS>
2.8271999359

> <CNNaffinity_variance>
0.0701450109

$$$$
[H]c1c(N2C([H])([H])C([H])([H])OC([H])([H])C2([H])[H])nc(C(F)(F)F)nc1N1C([H])([H])C([H])([H])N(c2c([H])c(N3C([H])([H])C([H])([H])OC([H])([H])C3([H])[H])nc(C(F)(F)F)c2[H])C([H])([H])[C@@]1([H])C([H])([H])[H]


 39 43  0  0  0  0  0  0  0  0999 V2000
  153.1762  138.8289  187.2085 C   0  0  0  0  0  0  0  0  0  0  0  0
  152.7395  137.5329  186.5026 C   0  0  0  0  0  0  0  0  0  0  0  0
  152.9193  136.3876  187.4436 C   0  0  0  0  0  0  0  0  0  0  0  0
  154.1517  135.6599  187.2189 N   0  0  0  0  0  0  0  0  0  0  0  0
  154.3872  135.3113  185.8179 C   0  0  0  0  0  0  0  0  0  0  0  0
  154.6671  136.6768  185.1750 C   0  0  0  0  0  0  0  0  0  0  0  0
  153.4763  137.4838  185.2927 N   0  0  0  0  0  0  0  0  0  0  0  0
  153.1171  138.2466  184.1294 C   0  0  0  0  0  0  0  0  0  0  0  0
  152.1100  137.9099  183.2527 C   0  0  0  0  0  0  0  0  0  0  0  0
  151.7983  138.7357  182.1789 C   0  0  0  0  0  0  0  0  0  0  0  0
  152.5431  139.8856  182.0477 N   0  0  0  0  0  0  0  0  0  0  0  0
  153.5242  140.2262  182.8844 C   0  0  0  0  0  0  0  0  0  0  0  0
  153.7675  139.3861  183.8914 N   0  0  0  0  0  0  0  0  0  0  0  0
  150.7783  138.5200  181.2385 N   0  0  0  0  0  0  0  0  0  0  0  0
  150.3102  137.1434  181.0247 C   0  0  0  0  0  0  0  0  0  0  0  0
  148.8029  137.0991  181.2492 C   0  0  0  0  0  0  0  0  0  0  0  0
  148.1664  138.1634  180.6517 O   0  0  0  0  0  0  0  0  0  0  0  0
  148.6169  139.4173  180.9899 C   0  0  0  0  0  0  0  0  0  0  0  0
  150.0867  139.5230  180.4894 C   0  0  0  0  0  0  0  0  0  0  0  0
  154.2663  141.5161  182.6951 C   0  0  0  0  0  0  0  0  0  0  0  0
  153.4217  142.5229  182.3302 F   0  0  0  0  0  0  0  0  0  0  0  0
  155.2255  141.3146  181.7160 F   0  0  0  0  0  0  0  0  0  0  0  0
  154.9391  141.8712  183.8480 F   0  0  0  0  0  0  0  0  0  0  0  0
  155.1179  135.3471  188.1820 C   0  0  0  0  0  0  0  0  0  0  0  0
  155.9939  134.2893  188.1074 C   0  0  0  0  0  0  0  0  0  0  0  0
  156.9440  134.0602  189.1090 C   0  0  0  0  0  0  0  0  0  0  0  0
  156.9315  134.9484  190.1402 N   0  0  0  0  0  0  0  0  0  0  0  0
  156.1288  135.9801  190.2673 C   0  0  0  0  0  0  0  0  0  0  0  0
  155.1991  136.1953  189.2797 C   0  0  0  0  0  0  0  0  0  0  0  0
  157.8915  133.0405  189.1169 N   0  0  0  0  0  0  0  0  0  0  0  0
  159.3210  133.3774  189.2992 C   0  0  0  0  0  0  0  0  0  0  0  0
  159.8987  133.0716  187.8902 C   0  0  0  0  0  0  0  0  0  0  0  0
  159.6362  131.7804  187.5348 O   0  0  0  0  0  0  0  0  0  0  0  0
  158.2828  131.4814  187.4302 C   0  0  0  0  0  0  0  0  0  0  0  0
  157.6644  131.6494  188.8477 C   0  0  0  0  0  0  0  0  0  0  0  0
  156.2010  136.9220  191.4287 C   0  0  0  0  0  0  0  0  0  0  0  0
  156.8241  138.0769  190.9350 F   0  0  0  0  0  0  0  0  0  0  0  0
  156.9577  136.4065  192.4586 F   0  0  0  0  0  0  0  0  0  0  0  0
  154.9193  137.2241  191.7604 F   0  0  0  0  0  0  0  0  0  0  0  0
  1  2  1  0  0  0
  2  3  1  0  0  0
  3  4  1  0  0  0
  4  5  1  0  0  0
  5  6  1  0  0  0
  6  7  1  0  0  0
  7  8  1  0  0  0
  8  9  2  0  0  0
  9 10  1  0  0  0
 10 11  2  0  0  0
 11 12  1  0  0  0
 12 13  2  0  0  0
 12 20  1  0  0  0
 20 21  1  0  0  0
 20 22  1  0  0  0
 20 23  1  0  0  0
 10 14  1  0  0  0
 14 15  1  0  0  0
 15 16  1  0  0  0
 16 17  1  0  0  0
 17 18  1  0  0  0
 18 19  1  0  0  0
  4 24  1  0  0  0
 24 25  2  0  0  0
 25 26  1  0  0  0
 26 27  2  0  0  0
 27 28  1  0  0  0
 28 29  2  0  0  0
 28 36  1  0  0  0
 36 37  1  0  0  0
 36 38  1  0  0  0
 36 39  1  0  0  0
 26 30  1  0  0  0
 30 31  1  0  0  0
 31 32  1  0  0  0
 32 33  1  0  0  0
 33 34  1  0  0  0
 34 35  1  0  0  0
  7  2  1  0  0  0
 13  8  1  0  0  0
 19 14  1  0  0  0
 29 24  1  0  0  0
 35 30  1  0  0  0
M  END
> <minimizedAffinity>
-7.52685

> <CNNscore>
0.4168674648

> <CNNaffinity>
6.2702407837

> <CNN_VS>
2.6138594151

> <CNNaffinity_variance>
0.0937234759

$$$$
[H]c1c(N2C([H])([H])C([H])([H])OC([H])([H])C2([H])[H])nc(C(F)(F)F)nc1N1C([H])([H])C([H])([H])N(c2c([H])c(N3C([H])([H])C([H])([H])OC([H])([H])C3([H])[H])nc(C(F)(F)F)c2[H])C([H])([H])[C@@]1([H])C([H])([H])[H]


 39 43  0  0  0  0  0  0  0  0999 V2000
  154.4127  138.4305  188.9046 C   0  0  0  0  0  0  0  0  0  0  0  0
  154.1781  137.0660  188.2326 C   0  0  0  0  0  0  0  0  0  0  0  0
  154.9348  137.0262  186.9460 C   0  0  0  0  0  0  0  0  0  0  0  0
  154.1071  137.3226  185.7944 N   0  0  0  0  0  0  0  0  0  0  0  0
  152.8502  136.5750  185.7598 C   0  0  0  0  0  0  0  0  0  0  0  0
  152.0613  137.1915  186.9234 C   0  0  0  0  0  0  0  0  0  0  0  0
  152.7716  136.9124  188.1484 N   0  0  0  0  0  0  0  0  0  0  0  0
  151.9629  136.5091  189.2653 C   0  0  0  0  0  0  0  0  0  0  0  0
  150.7643  135.8389  189.1626 C   0  0  0  0  0  0  0  0  0  0  0  0
  150.0728  135.4430  190.3014 C   0  0  0  0  0  0  0  0  0  0  0  0
  150.6466  135.7563  191.5125 N   0  0  0  0  0  0  0  0  0  0  0  0
  151.8042  136.4076  191.6316 C   0  0  0  0  0  0  0  0  0  0  0  0
  152.4116  136.7563  190.4964 N   0  0  0  0  0  0  0  0  0  0  0  0
  148.8637  134.7297  190.3286 N   0  0  0  0  0  0  0  0  0  0  0  0
  147.9221  134.9156  189.2155 C   0  0  0  0  0  0  0  0  0  0  0  0
  147.6075  133.5530  188.6086 C   0  0  0  0  0  0  0  0  0  0  0  0
  147.3778  132.6031  189.5781 O   0  0  0  0  0  0  0  0  0  0  0  0
  148.3631  132.4384  190.5224 C   0  0  0  0  0  0  0  0  0  0  0  0
  148.4622  133.7744  191.3143 C   0  0  0  0  0  0  0  0  0  0  0  0
  152.3833  136.6797  192.9884 C   0  0  0  0  0  0  0  0  0  0  0  0
  152.4091  138.0170  193.2552 F   0  0  0  0  0  0  0  0  0  0  0  0
  153.6669  136.1594  193.0146 F   0  0  0  0  0  0  0  0  0  0  0  0
  151.6656  136.0255  193.9706 F   0  0  0  0  0  0  0  0  0  0  0  0
  154.3739  138.2748  184.8040 C   0  0  0  0  0  0  0  0  0  0  0  0
  155.5287  139.0164  184.7120 C   0  0  0  0  0  0  0  0  0  0  0  0
  155.7215  139.9357  183.6747 C   0  0  0  0  0  0  0  0  0  0  0  0
  154.6969  140.0352  182.7843 N   0  0  0  0  0  0  0  0  0  0  0  0
  153.5750  139.3530  182.8115 C   0  0  0  0  0  0  0  0  0  0  0  0
  153.3950  138.4544  183.8343 C   0  0  0  0  0  0  0  0  0  0  0  0
  156.8589  140.7125  183.4739 N   0  0  0  0  0  0  0  0  0  0  0  0
  157.1559  141.2307  182.1197 C   0  0  0  0  0  0  0  0  0  0  0  0
  158.4043  140.3932  181.7290 C   0  0  0  0  0  0  0  0  0  0  0  0
  159.3958  140.5516  182.6532 O   0  0  0  0  0  0  0  0  0  0  0  0
  159.0631  140.1091  183.9282 C   0  0  0  0  0  0  0  0  0  0  0  0
  157.8893  140.9976  184.4310 C   0  0  0  0  0  0  0  0  0  0  0  0
  152.5077  139.5108  181.7735 C   0  0  0  0  0  0  0  0  0  0  0  0
  151.2993  139.2616  182.4392 F   0  0  0  0  0  0  0  0  0  0  0  0
  152.6535  138.6017  180.7482 F   0  0  0  0  0  0  0  0  0  0  0  0
  152.5345  140.8125  181.3877 F   0  0  0  0  0  0  0  0  0  0  0  0
  1  2  1  0  0  0
  2  3  1  0  0  0
  3  4  1  0  0  0
  4  5  1  0  0  0
  5  6  1  0  0  0
  6  7  1  0  0  0
  7  8  1  0  0  0
  8  9  2  0  0  0
  9 10  1  0  0  0
 10 11  2  0  0  0
 11 12  1  0  0  0
 12 13  2  0  0  0
 12 20  1  0  0  0
 20 21  1  0  0  0
 20 22  1  0  0  0
 20 23  1  0  0  0
 10 14  1  0  0  0
 14 15  1  0  0  0
 15 16  1  0  0  0
 16 17  1  0  0  0
 17 18  1  0  0  0
 18 19  1  0  0  0
  4 24  1  0  0  0
 24 25  2  0  0  0
 25 26  1  0  0  0
 26 27  2  0  0  0
 27 28  1  0  0  0
 28 29  2  0  0  0
 28 36  1  0  0  0
 36 37  1  0  0  0
 36 38  1  0  0  0
 36 39  1  0  0  0
 26 30  1  0  0  0
 30 31  1  0  0  0
 31 32  1  0  0  0
 32 33  1  0  0  0
 33 34  1  0  0  0
 34 35  1  0  0  0
  7  2  1  0  0  0
 13  8  1  0  0  0
 19 14  1  0  0  0
 29 24  1  0  0  0
 35 30  1  0  0  0
M  END
> <minimizedAffinity>
-8.51927

> <CNNscore>
0.3934134245

> <CNNaffinity>
6.3328194618

> <CNN_VS>
2.4914162159

> <CNNaffinity_variance>
0.0561981425

$$$$
[H]c1c(N2C([H])([H])C([H])([H])OC([H])([H])C2([H])[H])nc(C(F)(F)F)nc1N1C([H])([H])C([H])([H])N(c2c([H])c(N3C([H])([H])C([H])([H])OC([H])([H])C3([H])[H])nc(C(F)(F)F)c2[H])C([H])([H])[C@@]1([H])C([H])([H])[H]


 39 43  0  0  0  0  0  0  0  0999 V2000
  153.7465  138.4423  188.4277 C   0  0  0  0  0  0  0  0  0  0  0  0
  153.6737  136.9815  187.9488 C   0  0  0  0  0  0  0  0  0  0  0  0
  154.2732  136.8913  186.5844 C   0  0  0  0  0  0  0  0  0  0  0  0
  153.2804  136.9009  185.5293 N   0  0  0  0  0  0  0  0  0  0  0  0
  152.1746  135.9685  185.7475 C   0  0  0  0  0  0  0  0  0  0  0  0
  151.4305  136.6020  186.9313 C   0  0  0  0  0  0  0  0  0  0  0  0
  152.3140  136.6006  188.0727 N   0  0  0  0  0  0  0  0  0  0  0  0
  151.7200  136.2266  189.3262 C   0  0  0  0  0  0  0  0  0  0  0  0
  150.5785  135.4672  189.4560 C   0  0  0  0  0  0  0  0  0  0  0  0
  150.1026  135.1105  190.7123 C   0  0  0  0  0  0  0  0  0  0  0  0
  150.8260  135.5544  191.7957 N   0  0  0  0  0  0  0  0  0  0  0  0
  151.9311  136.2934  191.6896 C   0  0  0  0  0  0  0  0  0  0  0  0
  152.3286  136.5975  190.4532 N   0  0  0  0  0  0  0  0  0  0  0  0
  148.9741  134.3172  190.9746 N   0  0  0  0  0  0  0  0  0  0  0  0
  148.1629  133.8648  189.8355 C   0  0  0  0  0  0  0  0  0  0  0  0
  148.0587  132.3446  189.8828 C   0  0  0  0  0  0  0  0  0  0  0  0
  147.8047  131.8897  191.1570 O   0  0  0  0  0  0  0  0  0  0  0  0
  148.6777  132.2937  192.1390 C   0  0  0  0  0  0  0  0  0  0  0  0
  148.5490  133.8403  192.2541 C   0  0  0  0  0  0  0  0  0  0  0  0
  152.6851  136.7078  192.9185 C   0  0  0  0  0  0  0  0  0  0  0  0
  152.8098  138.0642  192.9875 F   0  0  0  0  0  0  0  0  0  0  0  0
  153.9349  136.1120  192.8710 F   0  0  0  0  0  0  0  0  0  0  0  0
  152.0620  136.2414  194.0595 F   0  0  0  0  0  0  0  0  0  0  0  0
  153.2646  137.7444  184.4126 C   0  0  0  0  0  0  0  0  0  0  0  0
  152.4541  137.5838  183.3129 C   0  0  0  0  0  0  0  0  0  0  0  0
  152.4895  138.4882  182.2455 C   0  0  0  0  0  0  0  0  0  0  0  0
  153.3712  139.5163  182.3799 N   0  0  0  0  0  0  0  0  0  0  0  0
  154.1653  139.7299  183.4038 C   0  0  0  0  0  0  0  0  0  0  0  0
  154.1239  138.8359  184.4455 C   0  0  0  0  0  0  0  0  0  0  0  0
  151.6952  138.4340  181.1037 N   0  0  0  0  0  0  0  0  0  0  0  0
  152.0631  139.2467  179.9228 C   0  0  0  0  0  0  0  0  0  0  0  0
  150.9365  140.3159  179.9131 C   0  0  0  0  0  0  0  0  0  0  0  0
  149.7103  139.7192  179.8614 O   0  0  0  0  0  0  0  0  0  0  0  0
  149.4202  138.9156  180.9579 C   0  0  0  0  0  0  0  0  0  0  0  0
  150.4452  137.7454  180.9537 C   0  0  0  0  0  0  0  0  0  0  0  0
  155.0907  140.9044  183.4777 C   0  0  0  0  0  0  0  0  0  0  0  0
  154.3181  141.9573  183.9879 F   0  0  0  0  0  0  0  0  0  0  0  0
  155.5690  141.2572  182.2345 F   0  0  0  0  0  0  0  0  0  0  0  0
  156.0482  140.5844  184.3858 F   0  0  0  0  0  0  0  0  0  0  0  0
  1  2  1  0  0  0
  2  3  1  0  0  0
  3  4  1  0  0  0
  4  5  1  0  0  0
  5  6  1  0  0  0
  6  7  1  0  0  0
  7  8  1  0  0  0
  8  9  2  0  0  0
  9 10  1  0  0  0
 10 11  2  0  0  0
 11 12  1  0  0  0
 12 13  2  0  0  0
 12 20  1  0  0  0
 20 21  1  0  0  0
 20 22  1  0  0  0
 20 23  1  0  0  0
 10 14  1  0  0  0
 14 15  1  0  0  0
 15 16  1  0  0  0
 16 17  1  0  0  0
 17 18  1  0  0  0
 18 19  1  0  0  0
  4 24  1  0  0  0
 24 25  2  0  0  0
 25 26  1  0  0  0
 26 27  2  0  0  0
 27 28  1  0  0  0
 28 29  2  0  0  0
 28 36  1  0  0  0
 36 37  1  0  0  0
 36 38  1  0  0  0
 36 39  1  0  0  0
 26 30  1  0  0  0
 30 31  1  0  0  0
 31 32  1  0  0  0
 32 33  1  0  0  0
 33 34  1  0  0  0
 34 35  1  0  0  0
  7  2  1  0  0  0
 13  8  1  0  0  0
 19 14  1  0  0  0
 29 24  1  0  0  0
 35 30  1  0  0  0
M  END
> <minimizedAffinity>
-7.49717

> <CNNscore>
0.3655048311

> <CNNaffinity>
6.1306285858

> <CNN_VS>
2.2407743931

> <CNNaffinity_variance>
0.1518831253

$$$$
[H]c1c(N2C([H])([H])C([H])([H])OC([H])([H])C2([H])[H])nc(C(F)(F)F)nc1N1C([H])([H])C([H])([H])N(c2c([H])c(N3C([H])([H])C([H])([H])OC([H])([H])C3([H])[H])nc(C(F)(F)F)c2[H])C([H])([H])[C@@]1([H])C([H])([H])[H]


 39 43  0  0  0  0  0  0  0  0999 V2000
  154.9083  137.2442  187.5147 C   0  0  0  0  0  0  0  0  0  0  0  0
  153.8534  136.3286  186.8688 C   0  0  0  0  0  0  0  0  0  0  0  0
  153.9887  136.4104  185.3840 C   0  0  0  0  0  0  0  0  0  0  0  0
  153.0362  137.3190  184.7792 N   0  0  0  0  0  0  0  0  0  0  0  0
  151.6595  137.1232  185.2334 C   0  0  0  0  0  0  0  0  0  0  0  0
  151.7167  137.5991  186.6917 C   0  0  0  0  0  0  0  0  0  0  0  0
  152.6080  136.7256  187.4169 N   0  0  0  0  0  0  0  0  0  0  0  0
  152.1672  136.3231  188.7237 C   0  0  0  0  0  0  0  0  0  0  0  0
  151.1902  135.3832  188.9653 C   0  0  0  0  0  0  0  0  0  0  0  0
  150.8624  135.0186  190.2659 C   0  0  0  0  0  0  0  0  0  0  0  0
  151.5586  135.6422  191.2762 N   0  0  0  0  0  0  0  0  0  0  0  0
  152.5050  136.5570  191.0616 C   0  0  0  0  0  0  0  0  0  0  0  0
  152.7663  136.8572  189.7885 N   0  0  0  0  0  0  0  0  0  0  0  0
  149.9122  134.0550  190.6402 N   0  0  0  0  0  0  0  0  0  0  0  0
  150.2303  132.6390  190.4087 C   0  0  0  0  0  0  0  0  0  0  0  0
  150.1064  131.8878  191.7296 C   0  0  0  0  0  0  0  0  0  0  0  0
  148.9739  132.2544  192.4209 O   0  0  0  0  0  0  0  0  0  0  0  0
  148.8140  133.5968  192.6706 C   0  0  0  0  0  0  0  0  0  0  0  0
  148.6628  134.3013  191.2912 C   0  0  0  0  0  0  0  0  0  0  0  0
  153.2452  137.1651  192.2160 C   0  0  0  0  0  0  0  0  0  0  0  0
  152.4078  137.8876  193.0141 F   0  0  0  0  0  0  0  0  0  0  0  0
  154.2401  137.9799  191.7008 F   0  0  0  0  0  0  0  0  0  0  0  0
  153.8739  136.1907  192.9664 F   0  0  0  0  0  0  0  0  0  0  0  0
  153.3316  138.3629  183.8949 C   0  0  0  0  0  0  0  0  0  0  0  0
  154.3318  139.2902  184.0737 C   0  0  0  0  0  0  0  0  0  0  0  0
  154.5716  140.2923  183.1269 C   0  0  0  0  0  0  0  0  0  0  0  0
  153.7534  140.2764  182.0393 N   0  0  0  0  0  0  0  0  0  0  0  0
  152.7880  139.4172  181.8059 C   0  0  0  0  0  0  0  0  0  0  0  0
  152.5599  138.4384  182.7419 C   0  0  0  0  0  0  0  0  0  0  0  0
  155.5715  141.2582  183.1967 N   0  0  0  0  0  0  0  0  0  0  0  0
  155.2247  142.6350  183.6145 C   0  0  0  0  0  0  0  0  0  0  0  0
  155.4055  143.4217  182.2875 C   0  0  0  0  0  0  0  0  0  0  0  0
  156.6683  143.2526  181.7987 O   0  0  0  0  0  0  0  0  0  0  0  0
  156.9822  141.9386  181.4716 C   0  0  0  0  0  0  0  0  0  0  0  0
  156.9402  141.1145  182.7904 C   0  0  0  0  0  0  0  0  0  0  0  0
  151.9493  139.4609  180.5666 C   0  0  0  0  0  0  0  0  0  0  0  0
  151.2865  140.6957  180.6074 F   0  0  0  0  0  0  0  0  0  0  0  0
  151.0150  138.4481  180.5458 F   0  0  0  0  0  0  0  0  0  0  0  0
  152.8113  139.4614  179.5174 F   0  0  0  0  0  0  0  0  0  0  0  0
  1  2  1  0  0  0
  2  3  1  0  0  0
  3  4  1  0  0  0
  4  5  1  0  0  0
  5  6  1  0  0  0
  6  7  1  0  0  0
  7  8  1  0  0  0
  8  9  2  0  0  0
  9 10  1  0  0  0
 10 11  2  0  0  0
 11 12  1  0  0  0
 12 13  2  0  0  0
 12 20  1  0  0  0
 20 21  1  0  0  0
 20 22  1  0  0  0
 20 23  1  0  0  0
 10 14  1  0  0  0
 14 15  1  0  0  0
 15 16  1  0  0  0
 16 17  1  0  0  0
 17 18  1  0  0  0
 18 19  1  0  0  0
  4 24  1  0  0  0
 24 25  2  0  0  0
 25 26  1  0  0  0
 26 27  2  0  0  0
 27 28  1  0  0  0
 28 29  2  0  0  0
 28 36  1  0  0  0
 36 37  1  0  0  0
 36 38  1  0  0  0
 36 39  1  0  0  0
 26 30  1  0  0  0
 30 31  1  0  0  0
 31 32  1  0  0  0
 32 33  1  0  0  0
 33 34  1  0  0  0
 34 35  1  0  0  0
  7  2  1  0  0  0
 13  8  1  0  0  0
 19 14  1  0  0  0
 29 24  1  0  0  0
 35 30  1  0  0  0
M  END
> <minimizedAffinity>
-7.85951

> <CNNscore>
0.3511110246

> <CNNaffinity>
6.3358125687

> <CNN_VS>
2.2245736122

> <CNNaffinity_variance>
0.0842700377

$$$$
[H]c1c(N2C([H])([H])C([H])([H])OC([H])([H])C2([H])[H])nc(C(F)(F)F)nc1N1C([H])([H])C([H])([H])N(c2c([H])c(N3C([H])([H])C([H])([H])OC([H])([H])C3([H])[H])nc(C(F)(F)F)c2[H])C([H])([H])[C@@]1([H])C([H])([H])[H]


 39 43  0  0  0  0  0  0  0  0999 V2000
  151.7062  137.8927  186.9556 C   0  0  0  0  0  0  0  0  0  0  0  0
  152.4408  136.7795  186.1878 C   0  0  0  0  0  0  0  0  0  0  0  0
  152.6569  135.6224  187.1064 C   0  0  0  0  0  0  0  0  0  0  0  0
  153.9868  135.5977  187.6806 N   0  0  0  0  0  0  0  0  0  0  0  0
  155.0586  135.7783  186.7016 C   0  0  0  0  0  0  0  0  0  0  0  0
  154.8872  137.2453  186.2837 C   0  0  0  0  0  0  0  0  0  0  0  0
  153.6011  137.3851  185.6437 N   0  0  0  0  0  0  0  0  0  0  0  0
  153.5746  138.1953  184.4575 C   0  0  0  0  0  0  0  0  0  0  0  0
  152.8082  137.9295  183.3447 C   0  0  0  0  0  0  0  0  0  0  0  0
  152.8076  138.7980  182.2595 C   0  0  0  0  0  0  0  0  0  0  0  0
  153.6040  139.9157  182.3626 N   0  0  0  0  0  0  0  0  0  0  0  0
  154.3555  140.1877  183.4302 C   0  0  0  0  0  0  0  0  0  0  0  0
  154.3063  139.3099  184.4332 N   0  0  0  0  0  0  0  0  0  0  0  0
  152.0492  138.6553  181.0865 N   0  0  0  0  0  0  0  0  0  0  0  0
  150.9102  137.7267  181.1042 C   0  0  0  0  0  0  0  0  0  0  0  0
  149.6554  138.4840  180.6845 C   0  0  0  0  0  0  0  0  0  0  0  0
  149.8889  139.2962  179.5979 O   0  0  0  0  0  0  0  0  0  0  0  0
  150.9192  140.1987  179.7155 C   0  0  0  0  0  0  0  0  0  0  0  0
  152.2310  139.3748  179.8639 C   0  0  0  0  0  0  0  0  0  0  0  0
  155.1692  141.4469  183.4818 C   0  0  0  0  0  0  0  0  0  0  0  0
  154.4237  142.4988  183.9268 F   0  0  0  0  0  0  0  0  0  0  0  0
  155.6425  141.6994  182.2045 F   0  0  0  0  0  0  0  0  0  0  0  0
  156.2746  141.2862  184.2942 F   0  0  0  0  0  0  0  0  0  0  0  0
  154.3015  135.4930  189.0404 C   0  0  0  0  0  0  0  0  0  0  0  0
  153.4830  135.8875  190.0731 C   0  0  0  0  0  0  0  0  0  0  0  0
  153.8697  135.7282  191.4086 C   0  0  0  0  0  0  0  0  0  0  0  0
  155.0938  135.1644  191.5991 N   0  0  0  0  0  0  0  0  0  0  0  0
  155.9178  134.7605  190.6596 C   0  0  0  0  0  0  0  0  0  0  0  0
  155.5296  134.9226  189.3523 C   0  0  0  0  0  0  0  0  0  0  0  0
  153.1088  136.0661  192.5241 N   0  0  0  0  0  0  0  0  0  0  0  0
  152.8508  135.0458  193.5647 C   0  0  0  0  0  0  0  0  0  0  0  0
  151.3335  134.7759  193.3716 C   0  0  0  0  0  0  0  0  0  0  0  0
  150.6220  135.9344  193.4902 O   0  0  0  0  0  0  0  0  0  0  0  0
  150.9309  136.8941  192.5333 C   0  0  0  0  0  0  0  0  0  0  0  0
  152.4159  137.3015  192.7542 C   0  0  0  0  0  0  0  0  0  0  0  0
  157.2404  134.1276  190.9620 C   0  0  0  0  0  0  0  0  0  0  0  0
  157.6735  134.7196  192.1569 F   0  0  0  0  0  0  0  0  0  0  0  0
  158.1658  134.3798  189.9725 F   0  0  0  0  0  0  0  0  0  0  0  0
  156.9951  132.8116  191.1895 F   0  0  0  0  0  0  0  0  0  0  0  0
  1  2  1  0  0  0
  2  3  1  0  0  0
  3  4  1  0  0  0
  4  5  1  0  0  0
  5  6  1  0  0  0
  6  7  1  0  0  0
  7  8  1  0  0  0
  8  9  2  0  0  0
  9 10  1  0  0  0
 10 11  2  0  0  0
 11 12  1  0  0  0
 12 13  2  0  0  0
 12 20  1  0  0  0
 20 21  1  0  0  0
 20 22  1  0  0  0
 20 23  1  0  0  0
 10 14  1  0  0  0
 14 15  1  0  0  0
 15 16  1  0  0  0
 16 17  1  0  0  0
 17 18  1  0  0  0
 18 19  1  0  0  0
  4 24  1  0  0  0
 24 25  2  0  0  0
 25 26  1  0  0  0
 26 27  2  0  0  0
 27 28  1  0  0  0
 28 29  2  0  0  0
 28 36  1  0  0  0
 36 37  1  0  0  0
 36 38  1  0  0  0
 36 39  1  0  0  0
 26 30  1  0  0  0
 30 31  1  0  0  0
 31 32  1  0  0  0
 32 33  1  0  0  0
 33 34  1  0  0  0
 34 35  1  0  0  0
  7  2  1  0  0  0
 13  8  1  0  0  0
 19 14  1  0  0  0
 29 24  1  0  0  0
 35 30  1  0  0  0
M  END
> <minimizedAffinity>
-7.74310

> <CNNscore>
0.3168278039

> <CNNaffinity>
6.0902433395

> <CNN_VS>
1.9295583963

> <CNNaffinity_variance>
0.0671163276

$$$$
[H]c1c(N2C([H])([H])C([H])([H])OC([H])([H])C2([H])[H])nc(C(F)(F)F)nc1N1C([H])([H])C([H])([H])N(c2c([H])c(N3C([H])([H])C([H])([H])OC([H])([H])C3([H])[H])nc(C(F)(F)F)c2[H])C([H])([H])[C@@]1([H])C([H])([H])[H]


 39 43  0  0  0  0  0  0  0  0999 V2000
  151.7684  136.8019  187.1388 C   0  0  0  0  0  0  0  0  0  0  0  0
  152.9899  137.5194  187.7401 C   0  0  0  0  0  0  0  0  0  0  0  0
  153.1854  138.8169  187.0278 C   0  0  0  0  0  0  0  0  0  0  0  0
  154.1973  138.7466  185.9933 N   0  0  0  0  0  0  0  0  0  0  0  0
  155.4463  138.1211  186.4275 C   0  0  0  0  0  0  0  0  0  0  0  0
  155.0385  136.6533  186.6158 C   0  0  0  0  0  0  0  0  0  0  0  0
  154.0574  136.5894  187.6725 N   0  0  0  0  0  0  0  0  0  0  0  0
  154.2166  135.5151  188.6131 C   0  0  0  0  0  0  0  0  0  0  0  0
  153.2951  134.5131  188.8206 C   0  0  0  0  0  0  0  0  0  0  0  0
  153.5560  133.4836  189.7173 C   0  0  0  0  0  0  0  0  0  0  0  0
  154.7656  133.5269  190.3723 N   0  0  0  0  0  0  0  0  0  0  0  0
  155.6685  134.4908  190.1871 C   0  0  0  0  0  0  0  0  0  0  0  0
  155.3502  135.4457  189.3120 N   0  0  0  0  0  0  0  0  0  0  0  0
  152.7153  132.3931  189.9919 N   0  0  0  0  0  0  0  0  0  0  0  0
  153.1713  131.3926  190.9671 C   0  0  0  0  0  0  0  0  0  0  0  0
  152.1151  131.2565  192.0580 C   0  0  0  0  0  0  0  0  0  0  0  0
  150.8434  131.2046  191.5336 O   0  0  0  0  0  0  0  0  0  0  0  0
  150.4779  132.2388  190.7050 C   0  0  0  0  0  0  0  0  0  0  0  0
  151.4068  132.1729  189.4582 C   0  0  0  0  0  0  0  0  0  0  0  0
  156.9810  134.4477  190.9123 C   0  0  0  0  0  0  0  0  0  0  0  0
  157.0443  135.4102  191.8766 F   0  0  0  0  0  0  0  0  0  0  0  0
  157.9880  134.6348  189.9795 F   0  0  0  0  0  0  0  0  0  0  0  0
  157.1884  133.2068  191.4824 F   0  0  0  0  0  0  0  0  0  0  0  0
  154.0495  139.1452  184.6598 C   0  0  0  0  0  0  0  0  0  0  0  0
  153.1527  138.6038  183.7684 C   0  0  0  0  0  0  0  0  0  0  0  0
  153.0578  139.0769  182.4549 C   0  0  0  0  0  0  0  0  0  0  0  0
  153.9058  140.0930  182.1372 N   0  0  0  0  0  0  0  0  0  0  0  0
  154.7775  140.6575  182.9411 C   0  0  0  0  0  0  0  0  0  0  0  0
  154.8638  140.1850  184.2277 C   0  0  0  0  0  0  0  0  0  0  0  0
  152.1691  138.6205  181.4855 N   0  0  0  0  0  0  0  0  0  0  0  0
  152.2241  139.1925  180.1216 C   0  0  0  0  0  0  0  0  0  0  0  0
  150.9053  140.0114  180.0702 C   0  0  0  0  0  0  0  0  0  0  0  0
  149.8329  139.2091  180.3321 O   0  0  0  0  0  0  0  0  0  0  0  0
  149.8421  138.6405  181.6005 C   0  0  0  0  0  0  0  0  0  0  0  0
  151.0817  137.7036  181.6748 C   0  0  0  0  0  0  0  0  0  0  0  0
  155.6578  141.7898  182.5119 C   0  0  0  0  0  0  0  0  0  0  0  0
  154.7844  142.8112  182.1122 F   0  0  0  0  0  0  0  0  0  0  0  0
  156.4589  141.4391  181.4469 F   0  0  0  0  0  0  0  0  0  0  0  0
  156.3297  142.1971  183.6194 F   0  0  0  0  0  0  0  0  0  0  0  0
  1  2  1  0  0  0
  2  3  1  0  0  0
  3  4  1  0  0  0
  4  5  1  0  0  0
  5  6  1  0  0  0
  6  7  1  0  0  0
  7  8  1  0  0  0
  8  9  2  0  0  0
  9 10  1  0  0  0
 10 11  2  0  0  0
 11 12  1  0  0  0
 12 13  2  0  0  0
 12 20  1  0  0  0
 20 21  1  0  0  0
 20 22  1  0  0  0
 20 23  1  0  0  0
 10 14  1  0  0  0
 14 15  1  0  0  0
 15 16  1  0  0  0
 16 17  1  0  0  0
 17 18  1  0  0  0
 18 19  1  0  0  0
  4 24  1  0  0  0
 24 25  2  0  0  0
 25 26  1  0  0  0
 26 27  2  0  0  0
 27 28  1  0  0  0
 28 29  2  0  0  0
 28 36  1  0  0  0
 36 37  1  0  0  0
 36 38  1  0  0  0
 36 39  1  0  0  0
 26 30  1  0  0  0
 30 31  1  0  0  0
 31 32  1  0  0  0
 32 33  1  0  0  0
 33 34  1  0  0  0
 34 35  1  0  0  0
  7  2  1  0  0  0
 13  8  1  0  0  0
 19 14  1  0  0  0
 29 24  1  0  0  0
 35 30  1  0  0  0
M  END
> <minimizedAffinity>
-6.75778

> <CNNscore>
0.3111181259

> <CNNaffinity>
6.0408778191

> <CNN_VS>
1.8794265985

> <CNNaffinity_variance>
0.1292916238

$$$$
[H]c1nc(N2C([H])([H])C([H])([H])N(c3nc(C(F)(F)F)nc(N([H])C(=O)c4c([H])c([H])c(N5C([H])([H])C([H])([H])N(C([H])([H])[H])C([H])([H])C5([H])[H])c([H])c4[H])c3[H])C([H])([H])C2([H])[H])sc1C(F)(F)F


 42 46  0  0  0  0  0  0  0  0999 V2000
  154.2704  135.5151  186.7965 C   0  0  0  0  0  0  0  0  0  0  0  0
  155.2183  134.6177  187.1931 C   0  0  0  0  0  0  0  0  0  0  0  0
  156.0034  134.8236  188.2965 C   0  0  0  0  0  0  0  0  0  0  0  0
  155.7915  135.9911  188.9900 N   0  0  0  0  0  0  0  0  0  0  0  0
  154.8714  136.8716  188.6089 C   0  0  0  0  0  0  0  0  0  0  0  0
  154.1354  136.6532  187.5596 N   0  0  0  0  0  0  0  0  0  0  0  0
  156.9732  133.9234  188.8029 N   0  0  0  0  0  0  0  0  0  0  0  0
  157.9409  133.2784  188.0237 C   0  0  0  0  0  0  0  0  0  0  0  0
  158.9269  132.3904  188.7851 C   0  0  0  0  0  0  0  0  0  0  0  0
  158.4604  131.9619  190.0513 N   0  0  0  0  0  0  0  0  0  0  0  0
  157.0310  132.1487  190.3355 C   0  0  0  0  0  0  0  0  0  0  0  0
  156.8883  133.6762  190.2551 C   0  0  0  0  0  0  0  0  0  0  0  0
  159.2891  131.4025  191.0491 C   0  0  0  0  0  0  0  0  0  0  0  0
  158.9315  131.2275  192.3319 N   0  0  0  0  0  0  0  0  0  0  0  0
  159.7523  130.7016  193.1597 C   0  0  0  0  0  0  0  0  0  0  0  0
  160.9980  130.3244  192.7035 C   0  0  0  0  0  0  0  0  0  0  0  0
  160.8725  130.7821  191.0441 S   0  0  0  0  0  0  0  0  0  0  0  0
  162.1151  129.7036  193.4835 C   0  0  0  0  0  0  0  0  0  0  0  0
  163.3487  130.0840  193.0429 F   0  0  0  0  0  0  0  0  0  0  0  0
  161.9728  128.3412  193.4169 F   0  0  0  0  0  0  0  0  0  0  0  0
  161.8968  130.0624  194.8026 F   0  0  0  0  0  0  0  0  0  0  0  0
  153.4849  135.9769  184.4517 C   0  0  0  0  0  0  0  0  0  0  0  0
  154.2967  136.8718  184.1354 O   0  0  0  0  0  0  0  0  0  0  0  0
  153.4180  135.3694  185.6871 N   0  0  0  0  0  0  0  0  0  0  0  0
  152.6458  134.6191  185.7956 H   0  0  0  0  0  0  0  0  0  0  0  0
  150.8243  134.6570  181.3544 C   0  0  0  0  0  0  0  0  0  0  0  0
  152.1074  134.1641  181.4593 C   0  0  0  0  0  0  0  0  0  0  0  0
  152.9504  134.6090  182.4588 C   0  0  0  0  0  0  0  0  0  0  0  0
  152.5221  135.5634  183.3756 C   0  0  0  0  0  0  0  0  0  0  0  0
  151.2666  136.0685  183.2990 C   0  0  0  0  0  0  0  0  0  0  0  0
  150.4172  135.6034  182.2725 C   0  0  0  0  0  0  0  0  0  0  0  0
  147.3401  132.1864  177.9228 C   0  0  0  0  0  0  0  0  0  0  0  0
  148.2887  133.2334  178.2189 N   0  0  0  0  0  0  0  0  0  0  0  0
  147.8231  134.0158  179.3192 C   0  0  0  0  0  0  0  0  0  0  0  0
  148.8906  134.9408  179.8401 C   0  0  0  0  0  0  0  0  0  0  0  0
  150.0121  134.1541  180.3031 N   0  0  0  0  0  0  0  0  0  0  0  0
  150.2594  132.8868  179.6829 C   0  0  0  0  0  0  0  0  0  0  0  0
  149.6027  132.7088  178.3437 C   0  0  0  0  0  0  0  0  0  0  0  0
  154.7658  138.0909  189.4807 C   0  0  0  0  0  0  0  0  0  0  0  0
  156.0057  138.4800  189.9716 F   0  0  0  0  0  0  0  0  0  0  0  0
  154.0413  137.6576  190.6064 F   0  0  0  0  0  0  0  0  0  0  0  0
  154.0858  139.0606  188.8317 F   0  0  0  0  0  0  0  0  0  0  0  0
 32 33  1  0  0  0
 33 34  1  0  0  0
 34 35  1  0  0  0
 35 36  1  0  0  0
 36 37  1  0  0  0
 37 38  1  0  0  0
 36 26  1  0  0  0
 26 27  2  0  0  0
 27 28  1  0  0  0
 28 29  2  0  0  0
 29 30  1  0  0  0
 30 31  2  0  0  0
 29 22  1  0  0  0
 22 23  2  0  0  0
 22 24  1  0  0  0
 24  1  1  0  0  0
  1  2  2  0  0  0
  2  3  1  0  0  0
  3  4  2  0  0  0
  4  5  1  0  0  0
  5  6  2  0  0  0
  5 39  1  0  0  0
 39 40  1  0  0  0
 39 41  1  0  0  0
 39 42  1  0  0  0
  3  7  1  0  0  0
  7  8  1  0  0  0
  8  9  1  0  0  0
  9 10  1  0  0  0
 10 11  1  0  0  0
 11 12  1  0  0  0
 10 13  1  0  0  0
 13 14  2  0  0  0
 14 15  1  0  0  0
 15 16  2  0  0  0
 16 17  1  0  0  0
 16 18  1  0  0  0
 18 19  1  0  0  0
 18 20  1  0  0  0
 18 21  1  0  0  0
 38 33  1  0  0  0
 31 26  1  0  0  0
  6  1  1  0  0  0
 12  7  1  0  0  0
 17 13  1  0  0  0
 24 25  1  0  0  0
M  END
> <minimizedAffinity>
-5.59807

> <CNNscore>
0.5793988109

> <CNNaffinity>
6.0895166397

> <CNN_VS>
3.5282588005

> <CNNaffinity_variance>
0.4066945612

$$$$
[H]c1nc(N2C([H])([H])C([H])([H])N(c3nc(C(F)(F)F)nc(N([H])C(=O)c4c([H])c([H])c(N5C([H])([H])C([H])([H])N(C([H])([H])[H])C([H])([H])C5([H])[H])c([H])c4[H])c3[H])C([H])([H])C2([H])[H])sc1C(F)(F)F


 42 46  0  0  0  0  0  0  0  0999 V2000
  154.0084  135.7576  188.2455 C   0  0  0  0  0  0  0  0  0  0  0  0
  155.0437  134.8884  188.4287 C   0  0  0  0  0  0  0  0  0  0  0  0
  155.9824  135.0662  189.4103 C   0  0  0  0  0  0  0  0  0  0  0  0
  155.8325  136.1757  190.2076 N   0  0  0  0  0  0  0  0  0  0  0  0
  154.8277  137.0287  190.0341 C   0  0  0  0  0  0  0  0  0  0  0  0
  153.9465  136.8375  189.0975 N   0  0  0  0  0  0  0  0  0  0  0  0
  157.0566  134.1885  189.6983 N   0  0  0  0  0  0  0  0  0  0  0  0
  158.2283  134.0921  188.9384 C   0  0  0  0  0  0  0  0  0  0  0  0
  159.2848  133.1176  189.4624 C   0  0  0  0  0  0  0  0  0  0  0  0
  158.7736  132.1217  190.3292 N   0  0  0  0  0  0  0  0  0  0  0  0
  157.3142  131.9559  190.3702 C   0  0  0  0  0  0  0  0  0  0  0  0
  156.8530  133.3296  190.8806 C   0  0  0  0  0  0  0  0  0  0  0  0
  159.5776  131.3147  191.1644 C   0  0  0  0  0  0  0  0  0  0  0  0
  160.7011  130.6903  190.7747 N   0  0  0  0  0  0  0  0  0  0  0  0
  161.3667  129.9879  191.6107 C   0  0  0  0  0  0  0  0  0  0  0  0
  160.9039  129.8913  192.9064 C   0  0  0  0  0  0  0  0  0  0  0  0
  159.4836  130.8664  192.8022 S   0  0  0  0  0  0  0  0  0  0  0  0
  161.5053  129.1264  194.0444 C   0  0  0  0  0  0  0  0  0  0  0  0
  160.6588  128.1923  194.5653 F   0  0  0  0  0  0  0  0  0  0  0  0
  161.8879  130.0269  195.0054 F   0  0  0  0  0  0  0  0  0  0  0  0
  162.6658  128.5606  193.5448 F   0  0  0  0  0  0  0  0  0  0  0  0
  152.5236  136.5818  186.3896 C   0  0  0  0  0  0  0  0  0  0  0  0
  152.8596  137.7847  186.3762 O   0  0  0  0  0  0  0  0  0  0  0  0
  152.9999  135.6366  187.2725 N   0  0  0  0  0  0  0  0  0  0  0  0
  152.5945  134.6406  187.1515 H   0  0  0  0  0  0  0  0  0  0  0  0
  149.5818  135.5768  183.4316 C   0  0  0  0  0  0  0  0  0  0  0  0
  149.3907  136.6212  184.3109 C   0  0  0  0  0  0  0  0  0  0  0  0
  150.3466  136.9223  185.2610 C   0  0  0  0  0  0  0  0  0  0  0  0
  151.5176  136.1768  185.3504 C   0  0  0  0  0  0  0  0  0  0  0  0
  151.7353  135.1430  184.5011 C   0  0  0  0  0  0  0  0  0  0  0  0
  150.7491  134.8484  183.5356 C   0  0  0  0  0  0  0  0  0  0  0  0
  146.1618  133.9475  179.4731 C   0  0  0  0  0  0  0  0  0  0  0  0
  146.4440  134.7321  180.6516 N   0  0  0  0  0  0  0  0  0  0  0  0
  146.7916  133.8722  181.7377 C   0  0  0  0  0  0  0  0  0  0  0  0
  147.3551  134.6413  182.9027 C   0  0  0  0  0  0  0  0  0  0  0  0
  148.5576  135.3244  182.4802 N   0  0  0  0  0  0  0  0  0  0  0  0
  148.6726  135.7181  181.1077 C   0  0  0  0  0  0  0  0  0  0  0  0
  147.3696  135.7697  180.3621 C   0  0  0  0  0  0  0  0  0  0  0  0
  154.8084  138.1842  190.9944 C   0  0  0  0  0  0  0  0  0  0  0  0
  154.6388  139.3959  190.3364 F   0  0  0  0  0  0  0  0  0  0  0  0
  156.1130  138.2277  191.5199 F   0  0  0  0  0  0  0  0  0  0  0  0
  153.9153  137.9466  191.9792 F   0  0  0  0  0  0  0  0  0  0  0  0
 32 33  1  0  0  0
 33 34  1  0  0  0
 34 35  1  0  0  0
 35 36  1  0  0  0
 36 37  1  0  0  0
 37 38  1  0  0  0
 36 26  1  0  0  0
 26 27  2  0  0  0
 27 28  1  0  0  0
 28 29  2  0  0  0
 29 30  1  0  0  0
 30 31  2  0  0  0
 29 22  1  0  0  0
 22 23  2  0  0  0
 22 24  1  0  0  0
 24  1  1  0  0  0
  1  2  2  0  0  0
  2  3  1  0  0  0
  3  4  2  0  0  0
  4  5  1  0  0  0
  5  6  2  0  0  0
  5 39  1  0  0  0
 39 40  1  0  0  0
 39 41  1  0  0  0
 39 42  1  0  0  0
  3  7  1  0  0  0
  7  8  1  0  0  0
  8  9  1  0  0  0
  9 10  1  0  0  0
 10 11  1  0  0  0
 11 12  1  0  0  0
 10 13  1  0  0  0
 13 14  2  0  0  0
 14 15  1  0  0  0
 15 16  2  0  0  0
 16 17  1  0  0  0
 16 18  1  0  0  0
 18 19  1  0  0  0
 18 20  1  0  0  0
 18 21  1  0  0  0
 38 33  1  0  0  0
 31 26  1  0  0  0
  6  1  1  0  0  0
 12  7  1  0  0  0
 17 13  1  0  0  0
 24 25  1  0  0  0
M  END
> <minimizedAffinity>
-5.61219

> <CNNscore>
0.5500755906

> <CNNaffinity>
6.0776052475

> <CNN_VS>
3.3431422710

> <CNNaffinity_variance>
0.1962576658

$$$$
[H]c1nc(N2C([H])([H])C([H])([H])N(c3nc(C(F)(F)F)nc(N([H])C(=O)c4c([H])c([H])c(N5C([H])([H])C([H])([H])N(C([H])([H])[H])C([H])([H])C5([H])[H])c([H])c4[H])c3[H])C([H])([H])C2([H])[H])sc1C(F)(F)F


 42 46  0  0  0  0  0  0  0  0999 V2000
  154.3042  134.8805  184.6179 C   0  0  0  0  0  0  0  0  0  0  0  0
  154.9029  134.0926  185.5569 C   0  0  0  0  0  0  0  0  0  0  0  0
  155.3274  134.5861  186.7621 C   0  0  0  0  0  0  0  0  0  0  0  0
  155.1231  135.9275  186.9812 N   0  0  0  0  0  0  0  0  0  0  0  0
  154.5424  136.7025  186.0705 C   0  0  0  0  0  0  0  0  0  0  0  0
  154.1446  136.2111  184.9344 N   0  0  0  0  0  0  0  0  0  0  0  0
  155.9117  133.8294  187.8078 N   0  0  0  0  0  0  0  0  0  0  0  0
  155.1920  133.0515  188.7225 C   0  0  0  0  0  0  0  0  0  0  0  0
  156.0290  132.2697  189.7367 C   0  0  0  0  0  0  0  0  0  0  0  0
  157.3324  132.7867  189.9320 N   0  0  0  0  0  0  0  0  0  0  0  0
  157.6050  134.1301  189.4029 C   0  0  0  0  0  0  0  0  0  0  0  0
  157.3811  133.9293  187.8963 C   0  0  0  0  0  0  0  0  0  0  0  0
  158.3745  132.0783  190.5705 C   0  0  0  0  0  0  0  0  0  0  0  0
  159.5227  131.7083  189.9800 N   0  0  0  0  0  0  0  0  0  0  0  0
  160.4117  131.0764  190.6476 C   0  0  0  0  0  0  0  0  0  0  0  0
  160.1610  130.7899  191.9733 C   0  0  0  0  0  0  0  0  0  0  0  0
  158.5926  131.4883  192.1505 S   0  0  0  0  0  0  0  0  0  0  0  0
  161.0412  130.0603  192.9401 C   0  0  0  0  0  0  0  0  0  0  0  0
  161.2400  128.7546  192.5993 F   0  0  0  0  0  0  0  0  0  0  0  0
  160.4753  130.1579  194.1855 F   0  0  0  0  0  0  0  0  0  0  0  0
  162.2252  130.7761  192.9839 F   0  0  0  0  0  0  0  0  0  0  0  0
  154.4990  133.7751  182.3667 C   0  0  0  0  0  0  0  0  0  0  0  0
  155.7207  133.5160  182.3697 O   0  0  0  0  0  0  0  0  0  0  0  0
  153.8296  134.4469  183.3669 N   0  0  0  0  0  0  0  0  0  0  0  0
  152.7712  134.5970  183.1991 H   0  0  0  0  0  0  0  0  0  0  0  0
  152.1844  132.4735  178.9958 C   0  0  0  0  0  0  0  0  0  0  0  0
  151.6251  132.5921  180.2502 C   0  0  0  0  0  0  0  0  0  0  0  0
  152.3903  133.0046  181.3234 C   0  0  0  0  0  0  0  0  0  0  0  0
  153.7385  133.3052  181.1597 C   0  0  0  0  0  0  0  0  0  0  0  0
  154.3186  133.1978  179.9392 C   0  0  0  0  0  0  0  0  0  0  0  0
  153.5232  132.7756  178.8527 C   0  0  0  0  0  0  0  0  0  0  0  0
  148.9406  130.0266  175.3201 C   0  0  0  0  0  0  0  0  0  0  0  0
  149.5336  131.2155  175.8849 N   0  0  0  0  0  0  0  0  0  0  0  0
  149.1409  131.3539  177.2510 C   0  0  0  0  0  0  0  0  0  0  0  0
  149.9406  132.4149  177.9588 C   0  0  0  0  0  0  0  0  0  0  0  0
  151.3385  132.0450  177.9381 N   0  0  0  0  0  0  0  0  0  0  0  0
  151.8183  131.2508  176.8469 C   0  0  0  0  0  0  0  0  0  0  0  0
  150.9311  131.2548  175.6348 C   0  0  0  0  0  0  0  0  0  0  0  0
  154.3909  138.1425  186.4719 C   0  0  0  0  0  0  0  0  0  0  0  0
  155.4206  138.5532  187.3092 F   0  0  0  0  0  0  0  0  0  0  0  0
  153.2327  138.1658  187.2705 F   0  0  0  0  0  0  0  0  0  0  0  0
  154.2171  138.9084  185.3733 F   0  0  0  0  0  0  0  0  0  0  0  0
 32 33  1  0  0  0
 33 34  1  0  0  0
 34 35  1  0  0  0
 35 36  1  0  0  0
 36 37  1  0  0  0
 37 38  1  0  0  0
 36 26  1  0  0  0
 26 27  2  0  0  0
 27 28  1  0  0  0
 28 29  2  0  0  0
 29 30  1  0  0  0
 30 31  2  0  0  0
 29 22  1  0  0  0
 22 23  2  0  0  0
 22 24  1  0  0  0
 24  1  1  0  0  0
  1  2  2  0  0  0
  2  3  1  0  0  0
  3  4  2  0  0  0
  4  5  1  0  0  0
  5  6  2  0  0  0
  5 39  1  0  0  0
 39 40  1  0  0  0
 39 41  1  0  0  0
 39 42  1  0  0  0
  3  7  1  0  0  0
  7  8  1  0  0  0
  8  9  1  0  0  0
  9 10  1  0  0  0
 10 11  1  0  0  0
 11 12  1  0  0  0
 10 13  1  0  0  0
 13 14  2  0  0  0
 14 15  1  0  0  0
 15 16  2  0  0  0
 16 17  1  0  0  0
 16 18  1  0  0  0
 18 19  1  0  0  0
 18 20  1  0  0  0
 18 21  1  0  0  0
 38 33  1  0  0  0
 31 26  1  0  0  0
  6  1  1  0  0  0
 12  7  1  0  0  0
 17 13  1  0  0  0
 24 25  1  0  0  0
M  END
> <minimizedAffinity>
-4.72302

> <CNNscore>
0.5318818092

> <CNNaffinity>
5.7423357964

> <CNN_VS>
3.0542440414

> <CNNaffinity_variance>
0.1252969503

$$$$
[H]c1nc(N2C([H])([H])C([H])([H])N(c3nc(C(F)(F)F)nc(N([H])C(=O)c4c([H])c([H])c(N5C([H])([H])C([H])([H])N(C([H])([H])[H])C([H])([H])C5([H])[H])c([H])c4[H])c3[H])C([H])([H])C2([H])[H])sc1C(F)(F)F


 42 46  0  0  0  0  0  0  0  0999 V2000
  154.1354  137.8483  190.2994 C   0  0  0  0  0  0  0  0  0  0  0  0
  155.1649  137.0165  190.6300 C   0  0  0  0  0  0  0  0  0  0  0  0
  155.2472  135.7327  190.1594 C   0  0  0  0  0  0  0  0  0  0  0  0
  154.2307  135.3166  189.3332 N   0  0  0  0  0  0  0  0  0  0  0  0
  153.2229  136.1203  189.0081 C   0  0  0  0  0  0  0  0  0  0  0  0
  153.1676  137.3365  189.4643 N   0  0  0  0  0  0  0  0  0  0  0  0
  156.3033  134.8232  190.4139 N   0  0  0  0  0  0  0  0  0  0  0  0
  157.3772  134.5911  189.5464 C   0  0  0  0  0  0  0  0  0  0  0  0
  158.4373  133.6076  190.0456 C   0  0  0  0  0  0  0  0  0  0  0  0
  157.9784  132.7247  191.0527 N   0  0  0  0  0  0  0  0  0  0  0  0
  156.5264  132.6485  191.2642 C   0  0  0  0  0  0  0  0  0  0  0  0
  156.1915  134.0868  191.6876 C   0  0  0  0  0  0  0  0  0  0  0  0
  158.8306  131.9502  191.8708 C   0  0  0  0  0  0  0  0  0  0  0  0
  158.6791  131.7861  193.1953 N   0  0  0  0  0  0  0  0  0  0  0  0
  159.5005  131.0551  193.8482 C   0  0  0  0  0  0  0  0  0  0  0  0
  160.5321  130.4483  193.1627 C   0  0  0  0  0  0  0  0  0  0  0  0
  160.2140  131.0105  191.5621 S   0  0  0  0  0  0  0  0  0  0  0  0
  161.6086  129.5647  193.7121 C   0  0  0  0  0  0  0  0  0  0  0  0
  161.7877  128.4260  192.9829 F   0  0  0  0  0  0  0  0  0  0  0  0
  161.2894  129.2656  195.0119 F   0  0  0  0  0  0  0  0  0  0  0  0
  162.7510  130.3455  193.7527 F   0  0  0  0  0  0  0  0  0  0  0  0
  153.6230  139.6594  191.9684 C   0  0  0  0  0  0  0  0  0  0  0  0
  153.2522  138.9540  192.9300 O   0  0  0  0  0  0  0  0  0  0  0  0
  153.9879  139.1795  190.7289 N   0  0  0  0  0  0  0  0  0  0  0  0
  154.2733  139.9310  190.0044 H   0  0  0  0  0  0  0  0  0  0  0  0
  153.5738  143.9024  192.6079 C   0  0  0  0  0  0  0  0  0  0  0  0
  152.8677  143.3219  191.5760 C   0  0  0  0  0  0  0  0  0  0  0  0
  152.9043  141.9549  191.3828 C   0  0  0  0  0  0  0  0  0  0  0  0
  153.6552  141.1394  192.2228 C   0  0  0  0  0  0  0  0  0  0  0  0
  154.3614  141.6794  193.2462 C   0  0  0  0  0  0  0  0  0  0  0  0
  154.3134  143.0777  193.4307 C   0  0  0  0  0  0  0  0  0  0  0  0
  154.1279  149.3095  193.2981 C   0  0  0  0  0  0  0  0  0  0  0  0
  153.3460  148.1626  192.9014 N   0  0  0  0  0  0  0  0  0  0  0  0
  153.9958  147.4770  191.8302 C   0  0  0  0  0  0  0  0  0  0  0  0
  153.3698  146.1341  191.5634 C   0  0  0  0  0  0  0  0  0  0  0  0
  153.4899  145.3135  192.7480 N   0  0  0  0  0  0  0  0  0  0  0  0
  153.5250  145.9602  194.0257 C   0  0  0  0  0  0  0  0  0  0  0  0
  153.0014  147.3681  194.0271 C   0  0  0  0  0  0  0  0  0  0  0  0
  152.2002  135.5102  188.0918 C   0  0  0  0  0  0  0  0  0  0  0  0
  150.9557  136.1096  188.2398 F   0  0  0  0  0  0  0  0  0  0  0  0
  152.0377  134.1968  188.5695 F   0  0  0  0  0  0  0  0  0  0  0  0
  152.6714  135.4926  186.8263 F   0  0  0  0  0  0  0  0  0  0  0  0
 32 33  1  0  0  0
 33 34  1  0  0  0
 34 35  1  0  0  0
 35 36  1  0  0  0
 36 37  1  0  0  0
 37 38  1  0  0  0
 36 26  1  0  0  0
 26 27  2  0  0  0
 27 28  1  0  0  0
 28 29  2  0  0  0
 29 30  1  0  0  0
 30 31  2  0  0  0
 29 22  1  0  0  0
 22 23  2  0  0  0
 22 24  1  0  0  0
 24  1  1  0  0  0
  1  2  2  0  0  0
  2  3  1  0  0  0
  3  4  2  0  0  0
  4  5  1  0  0  0
  5  6  2  0  0  0
  5 39  1  0  0  0
 39 40  1  0  0  0
 39 41  1  0  0  0
 39 42  1  0  0  0
  3  7  1  0  0  0
  7  8  1  0  0  0
  8  9  1  0  0  0
  9 10  1  0  0  0
 10 11  1  0  0  0
 11 12  1  0  0  0
 10 13  1  0  0  0
 13 14  2  0  0  0
 14 15  1  0  0  0
 15 16  2  0  0  0
 16 17  1  0  0  0
 16 18  1  0  0  0
 18 19  1  0  0  0
 18 20  1  0  0  0
 18 21  1  0  0  0
 38 33  1  0  0  0
 31 26  1  0  0  0
  6  1  1  0  0  0
 12  7  1  0  0  0
 17 13  1  0  0  0
 24 25  1  0  0  0
M  END
> <minimizedAffinity>
16.03854

> <CNNscore>
0.5119114518

> <CNNaffinity>
6.6794037819

> <CNN_VS>
3.4192633629

> <CNNaffinity_variance>
0.9299051166

$$$$
[H]c1nc(N2C([H])([H])C([H])([H])N(c3nc(C(F)(F)F)nc(N([H])C(=O)c4c([H])c([H])c(N5C([H])([H])C([H])([H])N(C([H])([H])[H])C([H])([H])C5([H])[H])c([H])c4[H])c3[H])C([H])([H])C2([H])[H])sc1C(F)(F)F


 42 46  0  0  0  0  0  0  0  0999 V2000
  154.6601  135.5291  187.5282 C   0  0  0  0  0  0  0  0  0  0  0  0
  155.5066  134.4823  187.7489 C   0  0  0  0  0  0  0  0  0  0  0  0
  156.4550  134.5050  188.7369 C   0  0  0  0  0  0  0  0  0  0  0  0
  156.5168  135.6459  189.5008 N   0  0  0  0  0  0  0  0  0  0  0  0
  155.6971  136.6712  189.2907 C   0  0  0  0  0  0  0  0  0  0  0  0
  154.8022  136.6257  188.3487 N   0  0  0  0  0  0  0  0  0  0  0  0
  157.3372  133.4454  189.0630 N   0  0  0  0  0  0  0  0  0  0  0  0
  157.4779  132.2709  188.3145 C   0  0  0  0  0  0  0  0  0  0  0  0
  158.5313  131.2819  188.8171 C   0  0  0  0  0  0  0  0  0  0  0  0
  158.8687  131.4409  190.1829 N   0  0  0  0  0  0  0  0  0  0  0  0
  157.9830  132.2850  190.9965 C   0  0  0  0  0  0  0  0  0  0  0  0
  158.1156  133.6478  190.3000 C   0  0  0  0  0  0  0  0  0  0  0  0
  160.0092  130.8653  190.7857 C   0  0  0  0  0  0  0  0  0  0  0  0
  160.2840  130.9072  192.0998 N   0  0  0  0  0  0  0  0  0  0  0  0
  161.3406  130.3459  192.5514 C   0  0  0  0  0  0  0  0  0  0  0  0
  162.1781  129.7051  191.6626 C   0  0  0  0  0  0  0  0  0  0  0  0
  161.3309  129.9803  190.1842 S   0  0  0  0  0  0  0  0  0  0  0  0
  163.4622  128.9934  191.9567 C   0  0  0  0  0  0  0  0  0  0  0  0
  163.9613  128.3259  190.8770 F   0  0  0  0  0  0  0  0  0  0  0  0
  163.2404  128.1330  193.0015 F   0  0  0  0  0  0  0  0  0  0  0  0
  164.3326  129.9653  192.4196 F   0  0  0  0  0  0  0  0  0  0  0  0
  152.6476  136.5016  186.3741 C   0  0  0  0  0  0  0  0  0  0  0  0
  152.3948  137.4407  187.1577 O   0  0  0  0  0  0  0  0  0  0  0  0
  153.6541  135.5759  186.5463 N   0  0  0  0  0  0  0  0  0  0  0  0
  153.7278  134.8197  185.7757 H   0  0  0  0  0  0  0  0  0  0  0  0
  150.1988  136.0981  182.8734 C   0  0  0  0  0  0  0  0  0  0  0  0
  151.4568  135.5382  182.9402 C   0  0  0  0  0  0  0  0  0  0  0  0
  152.2318  135.6875  184.0734 C   0  0  0  0  0  0  0  0  0  0  0  0
  151.7597  136.4068  185.1663 C   0  0  0  0  0  0  0  0  0  0  0  0
  150.5274  136.9705  185.1318 C   0  0  0  0  0  0  0  0  0  0  0  0
  149.7475  136.8085  183.9669 C   0  0  0  0  0  0  0  0  0  0  0  0
  146.7001  135.0272  178.7951 C   0  0  0  0  0  0  0  0  0  0  0  0
  147.9136  135.6336  179.2887 N   0  0  0  0  0  0  0  0  0  0  0  0
  147.6033  136.5856  180.3071 C   0  0  0  0  0  0  0  0  0  0  0  0
  148.8359  137.0437  181.0399 C   0  0  0  0  0  0  0  0  0  0  0  0
  149.4569  135.9040  181.6777 N   0  0  0  0  0  0  0  0  0  0  0  0
  149.2943  134.6135  181.0776 C   0  0  0  0  0  0  0  0  0  0  0  0
  148.8714  134.6443  179.6366 C   0  0  0  0  0  0  0  0  0  0  0  0
  155.8948  137.8370  190.2179 C   0  0  0  0  0  0  0  0  0  0  0  0
  155.0826  138.9102  189.8738 F   0  0  0  0  0  0  0  0  0  0  0  0
  157.2090  138.2708  189.9635 F   0  0  0  0  0  0  0  0  0  0  0  0
  155.7771  137.4281  191.4996 F   0  0  0  0  0  0  0  0  0  0  0  0
 32 33  1  0  0  0
 33 34  1  0  0  0
 34 35  1  0  0  0
 35 36  1  0  0  0
 36 37  1  0  0  0
 37 38  1  0  0  0
 36 26  1  0  0  0
 26 27  2  0  0  0
 27 28  1  0  0  0
 28 29  2  0  0  0
 29 30  1  0  0  0
 30 31  2  0  0  0
 29 22  1  0  0  0
 22 23  2  0  0  0
 22 24  1  0  0  0
 24  1  1  0  0  0
  1  2  2  0  0  0
  2  3  1  0  0  0
  3  4  2  0  0  0
  4  5  1  0  0  0
  5  6  2  0  0  0
  5 39  1  0  0  0
 39 40  1  0  0  0
 39 41  1  0  0  0
 39 42  1  0  0  0
  3  7  1  0  0  0
  7  8  1  0  0  0
  8  9  1  0  0  0
  9 10  1  0  0  0
 10 11  1  0  0  0
 11 12  1  0  0  0
 10 13  1  0  0  0
 13 14  2  0  0  0
 14 15  1  0  0  0
 15 16  2  0  0  0
 16 17  1  0  0  0
 16 18  1  0  0  0
 18 19  1  0  0  0
 18 20  1  0  0  0
 18 21  1  0  0  0
 38 33  1  0  0  0
 31 26  1  0  0  0
  6  1  1  0  0  0
 12  7  1  0  0  0
 17 13  1  0  0  0
 24 25  1  0  0  0
M  END
> <minimizedAffinity>
-5.86905

> <CNNscore>
0.4803816080

> <CNNaffinity>
5.9264249802

> <CNN_VS>
2.8469455242

> <CNNaffinity_variance>
0.1563649923

$$$$
[H]c1nc(N2C([H])([H])C([H])([H])N(c3nc(C(F)(F)F)nc(N([H])C(=O)c4c([H])c([H])c(N5C([H])([H])C([H])([H])N(C([H])([H])[H])C([H])([H])C5([H])[H])c([H])c4[H])c3[H])C([H])([H])C2([H])[H])sc1C(F)(F)F


 42 46  0  0  0  0  0  0  0  0999 V2000
  154.9727  134.8083  186.3736 C   0  0  0  0  0  0  0  0  0  0  0  0
  155.4589  133.9367  187.3036 C   0  0  0  0  0  0  0  0  0  0  0  0
  156.0157  134.3600  188.4813 C   0  0  0  0  0  0  0  0  0  0  0  0
  156.0657  135.7188  188.6819 N   0  0  0  0  0  0  0  0  0  0  0  0
  155.5961  136.5747  187.7797 C   0  0  0  0  0  0  0  0  0  0  0  0
  155.0688  136.1495  186.6700 N   0  0  0  0  0  0  0  0  0  0  0  0
  156.4979  133.5229  189.5178 N   0  0  0  0  0  0  0  0  0  0  0  0
  155.7420  132.5305  190.1529 C   0  0  0  0  0  0  0  0  0  0  0  0
  156.4791  131.7039  191.2083 C   0  0  0  0  0  0  0  0  0  0  0  0
  157.6309  132.3351  191.7366 N   0  0  0  0  0  0  0  0  0  0  0  0
  157.7962  133.7679  191.4559 C   0  0  0  0  0  0  0  0  0  0  0  0
  157.8929  133.7819  189.9227 C   0  0  0  0  0  0  0  0  0  0  0  0
  158.6271  131.6642  192.4801 C   0  0  0  0  0  0  0  0  0  0  0  0
  158.7627  131.7324  193.8146 N   0  0  0  0  0  0  0  0  0  0  0  0
  159.6938  131.0782  194.3981 C   0  0  0  0  0  0  0  0  0  0  0  0
  160.5429  130.3111  193.6282 C   0  0  0  0  0  0  0  0  0  0  0  0
  159.8957  130.6136  192.0570 S   0  0  0  0  0  0  0  0  0  0  0  0
  161.6983  129.4757  194.0853 C   0  0  0  0  0  0  0  0  0  0  0  0
  161.6371  128.1894  193.6356 F   0  0  0  0  0  0  0  0  0  0  0  0
  161.7315  129.5115  195.4559 F   0  0  0  0  0  0  0  0  0  0  0  0
  162.8342  130.1316  193.6426 F   0  0  0  0  0  0  0  0  0  0  0  0
  154.1051  135.2392  184.0520 C   0  0  0  0  0  0  0  0  0  0  0  0
  154.2660  136.4766  183.9986 O   0  0  0  0  0  0  0  0  0  0  0  0
  154.3755  134.4523  185.1508 N   0  0  0  0  0  0  0  0  0  0  0  0
  154.1681  133.3972  185.0301 H   0  0  0  0  0  0  0  0  0  0  0  0
  152.7108  133.3145  180.4791 C   0  0  0  0  0  0  0  0  0  0  0  0
  154.0414  133.2882  180.8383 C   0  0  0  0  0  0  0  0  0  0  0  0
  154.4704  133.9216  181.9881 C   0  0  0  0  0  0  0  0  0  0  0  0
  153.5696  134.5994  182.8030 C   0  0  0  0  0  0  0  0  0  0  0  0
  152.2546  134.6446  182.4771 C   0  0  0  0  0  0  0  0  0  0  0  0
  151.8320  133.9920  181.2993 C   0  0  0  0  0  0  0  0  0  0  0  0
  150.9576  131.5066  175.6131 C   0  0  0  0  0  0  0  0  0  0  0  0
  151.7111  131.3208  176.8303 N   0  0  0  0  0  0  0  0  0  0  0  0
  152.7251  132.3213  176.9331 C   0  0  0  0  0  0  0  0  0  0  0  0
  153.3560  132.3409  178.2999 C   0  0  0  0  0  0  0  0  0  0  0  0
  152.3403  132.6412  179.2844 N   0  0  0  0  0  0  0  0  0  0  0  0
  150.9893  132.2500  179.0126 C   0  0  0  0  0  0  0  0  0  0  0  0
  150.8462  131.1979  177.9501 C   0  0  0  0  0  0  0  0  0  0  0  0
  155.7234  138.0232  188.1585 C   0  0  0  0  0  0  0  0  0  0  0  0
  154.4821  138.6085  188.3741 F   0  0  0  0  0  0  0  0  0  0  0  0
  156.2308  138.6464  187.0034 F   0  0  0  0  0  0  0  0  0  0  0  0
  156.5948  138.1543  189.1818 F   0  0  0  0  0  0  0  0  0  0  0  0
 32 33  1  0  0  0
 33 34  1  0  0  0
 34 35  1  0  0  0
 35 36  1  0  0  0
 36 37  1  0  0  0
 37 38  1  0  0  0
 36 26  1  0  0  0
 26 27  2  0  0  0
 27 28  1  0  0  0
 28 29  2  0  0  0
 29 30  1  0  0  0
 30 31  2  0  0  0
 29 22  1  0  0  0
 22 23  2  0  0  0
 22 24  1  0  0  0
 24  1  1  0  0  0
  1  2  2  0  0  0
  2  3  1  0  0  0
  3  4  2  0  0  0
  4  5  1  0  0  0
  5  6  2  0  0  0
  5 39  1  0  0  0
 39 40  1  0  0  0
 39 41  1  0  0  0
 39 42  1  0  0  0
  3  7  1  0  0  0
  7  8  1  0  0  0
  8  9  1  0  0  0
  9 10  1  0  0  0
 10 11  1  0  0  0
 11 12  1  0  0  0
 10 13  1  0  0  0
 13 14  2  0  0  0
 14 15  1  0  0  0
 15 16  2  0  0  0
 16 17  1  0  0  0
 16 18  1  0  0  0
 18 19  1  0  0  0
 18 20  1  0  0  0
 18 21  1  0  0  0
 38 33  1  0  0  0
 31 26  1  0  0  0
  6  1  1  0  0  0
 12  7  1  0  0  0
 17 13  1  0  0  0
 24 25  1  0  0  0
M  END
> <minimizedAffinity>
-6.07546

> <CNNscore>
0.4212788343

> <CNNaffinity>
5.7393302917

> <CNN_VS>
2.4178583622

> <CNNaffinity_variance>
0.1149902120

$$$$
[H]c1nc(N2C([H])([H])C([H])([H])N(c3nc(C(F)(F)F)nc(N([H])C(=O)c4c([H])c([H])c(N5C([H])([H])C([H])([H])N(C([H])([H])[H])C([H])([H])C5([H])[H])c([H])c4[H])c3[H])C([H])([H])C2([H])[H])sc1C(F)(F)F


 42 46  0  0  0  0  0  0  0  0999 V2000
  154.0102  137.7146  190.2653 C   0  0  0  0  0  0  0  0  0  0  0  0
  155.0465  136.8779  190.5605 C   0  0  0  0  0  0  0  0  0  0  0  0
  155.0950  135.5863  190.1068 C   0  0  0  0  0  0  0  0  0  0  0  0
  154.0373  135.1677  189.3354 N   0  0  0  0  0  0  0  0  0  0  0  0
  153.0227  135.9761  189.0452 C   0  0  0  0  0  0  0  0  0  0  0  0
  152.9997  137.1995  189.4844 N   0  0  0  0  0  0  0  0  0  0  0  0
  156.1537  134.6705  190.3258 N   0  0  0  0  0  0  0  0  0  0  0  0
  156.5212  134.1673  191.5793 C   0  0  0  0  0  0  0  0  0  0  0  0
  157.6588  133.1444  191.5799 C   0  0  0  0  0  0  0  0  0  0  0  0
  158.4864  133.1993  190.4326 N   0  0  0  0  0  0  0  0  0  0  0  0
  158.3550  134.3809  189.5692 C   0  0  0  0  0  0  0  0  0  0  0  0
  156.8924  134.2777  189.1105 C   0  0  0  0  0  0  0  0  0  0  0  0
  159.3936  132.1808  190.0650 C   0  0  0  0  0  0  0  0  0  0  0  0
  159.5415  131.7000  188.8196 N   0  0  0  0  0  0  0  0  0  0  0  0
  160.3996  130.7812  188.5854 C   0  0  0  0  0  0  0  0  0  0  0  0
  161.1584  130.3049  189.6339 C   0  0  0  0  0  0  0  0  0  0  0  0
  160.5403  131.2671  190.9267 S   0  0  0  0  0  0  0  0  0  0  0  0
  162.2072  129.2368  189.6009 C   0  0  0  0  0  0  0  0  0  0  0  0
  163.3743  129.6171  190.1958 F   0  0  0  0  0  0  0  0  0  0  0  0
  162.4185  128.8904  188.2909 F   0  0  0  0  0  0  0  0  0  0  0  0
  161.6402  128.1346  190.2174 F   0  0  0  0  0  0  0  0  0  0  0  0
  153.6012  139.5558  191.9298 C   0  0  0  0  0  0  0  0  0  0  0  0
  153.2786  138.8687  192.9215 O   0  0  0  0  0  0  0  0  0  0  0  0
  153.8950  139.0535  190.6803 N   0  0  0  0  0  0  0  0  0  0  0  0
  154.1455  139.7912  189.9293 H   0  0  0  0  0  0  0  0  0  0  0  0
  153.5992  143.8035  192.5396 C   0  0  0  0  0  0  0  0  0  0  0  0
  152.6402  143.1872  191.7644 C   0  0  0  0  0  0  0  0  0  0  0  0
  152.6643  141.8196  191.5741 C   0  0  0  0  0  0  0  0  0  0  0  0
  153.6569  141.0394  192.1579 C   0  0  0  0  0  0  0  0  0  0  0  0
  154.6149  141.6151  192.9250 C   0  0  0  0  0  0  0  0  0  0  0  0
  154.5761  143.0135  193.1102 C   0  0  0  0  0  0  0  0  0  0  0  0
  154.1364  149.2007  193.3149 C   0  0  0  0  0  0  0  0  0  0  0  0
  153.3685  148.0605  192.8743 N   0  0  0  0  0  0  0  0  0  0  0  0
  154.0584  147.3859  191.8214 C   0  0  0  0  0  0  0  0  0  0  0  0
  153.4408  146.0478  191.5143 C   0  0  0  0  0  0  0  0  0  0  0  0
  153.5126  145.2130  192.6930 N   0  0  0  0  0  0  0  0  0  0  0  0
  153.4988  145.8446  193.9786 C   0  0  0  0  0  0  0  0  0  0  0  0
  152.9783  147.2536  193.9761 C   0  0  0  0  0  0  0  0  0  0  0  0
  151.9527  135.3622  188.1872 C   0  0  0  0  0  0  0  0  0  0  0  0
  152.4933  134.6224  187.1430 F   0  0  0  0  0  0  0  0  0  0  0  0
  151.3194  136.4593  187.5746 F   0  0  0  0  0  0  0  0  0  0  0  0
  151.0752  134.6882  188.9616 F   0  0  0  0  0  0  0  0  0  0  0  0
 32 33  1  0  0  0
 33 34  1  0  0  0
 34 35  1  0  0  0
 35 36  1  0  0  0
 36 37  1  0  0  0
 37 38  1  0  0  0
 36 26  1  0  0  0
 26 27  2  0  0  0
 27 28  1  0  0  0
 28 29  2  0  0  0
 29 30  1  0  0  0
 30 31  2  0  0  0
 29 22  1  0  0  0
 22 23  2  0  0  0
 22 24  1  0  0  0
 24  1  1  0  0  0
  1  2  2  0  0  0
  2  3  1  0  0  0
  3  4  2  0  0  0
  4  5  1  0  0  0
  5  6  2  0  0  0
  5 39  1  0  0  0
 39 40  1  0  0  0
 39 41  1  0  0  0
 39 42  1  0  0  0
  3  7  1  0  0  0
  7  8  1  0  0  0
  8  9  1  0  0  0
  9 10  1  0  0  0
 10 11  1  0  0  0
 11 12  1  0  0  0
 10 13  1  0  0  0
 13 14  2  0  0  0
 14 15  1  0  0  0
 15 16  2  0  0  0
 16 17  1  0  0  0
 16 18  1  0  0  0
 18 19  1  0  0  0
 18 20  1  0  0  0
 18 21  1  0  0  0
 38 33  1  0  0  0
 31 26  1  0  0  0
  6  1  1  0  0  0
 12  7  1  0  0  0
 17 13  1  0  0  0
 24 25  1  0  0  0
M  END
> <minimizedAffinity>
16.36129

> <CNNscore>
0.4168170989

> <CNNaffinity>
6.4790849686

> <CNN_VS>
2.7005934715

> <CNNaffinity_variance>
0.8379833102

$$$$
[H]c1nc(N2C([H])([H])C([H])([H])N(c3nc(C(F)(F)F)nc(N([H])C(=O)c4c([H])c([H])c(N5C([H])([H])C([H])([H])N(C([H])([H])[H])C([H])([H])C5([H])[H])c([H])c4[H])c3[H])C([H])([H])C2([H])[H])sc1C(F)(F)F


 42 46  0  0  0  0  0  0  0  0999 V2000
  154.4711  134.7421  190.6745 C   0  0  0  0  0  0  0  0  0  0  0  0
  154.0404  135.0795  189.4248 C   0  0  0  0  0  0  0  0  0  0  0  0
  152.9824  135.9250  189.2199 C   0  0  0  0  0  0  0  0  0  0  0  0
  152.3663  136.4193  190.3447 N   0  0  0  0  0  0  0  0  0  0  0  0
  152.7785  136.0938  191.5658 C   0  0  0  0  0  0  0  0  0  0  0  0
  153.7874  135.2916  191.7360 N   0  0  0  0  0  0  0  0  0  0  0  0
  152.5040  136.3633  187.9603 N   0  0  0  0  0  0  0  0  0  0  0  0
  153.0413  137.4339  187.2359 C   0  0  0  0  0  0  0  0  0  0  0  0
  152.4064  137.7001  185.8698 C   0  0  0  0  0  0  0  0  0  0  0  0
  151.0997  137.1744  185.7270 N   0  0  0  0  0  0  0  0  0  0  0  0
  150.4187  136.7338  186.9522 C   0  0  0  0  0  0  0  0  0  0  0  0
  151.3447  135.6108  187.4437 C   0  0  0  0  0  0  0  0  0  0  0  0
  150.4405  137.0257  184.4866 C   0  0  0  0  0  0  0  0  0  0  0  0
  149.1072  137.0117  184.3248 N   0  0  0  0  0  0  0  0  0  0  0  0
  148.6051  136.8811  183.1560 C   0  0  0  0  0  0  0  0  0  0  0  0
  149.4603  136.7567  182.0811 C   0  0  0  0  0  0  0  0  0  0  0  0
  150.9848  136.8425  182.8858 S   0  0  0  0  0  0  0  0  0  0  0  0
  149.1050  136.5854  180.6368 C   0  0  0  0  0  0  0  0  0  0  0  0
  147.7628  136.6593  180.4055 F   0  0  0  0  0  0  0  0  0  0  0  0
  149.6059  135.3797  180.2170 F   0  0  0  0  0  0  0  0  0  0  0  0
  149.8079  137.5661  179.9583 F   0  0  0  0  0  0  0  0  0  0  0  0
  155.5455  132.5893  191.4086 C   0  0  0  0  0  0  0  0  0  0  0  0
  154.5230  131.9485  191.7307 O   0  0  0  0  0  0  0  0  0  0  0  0
  155.5551  133.8946  190.9661 N   0  0  0  0  0  0  0  0  0  0  0  0
  156.5316  134.3021  190.7396 H   0  0  0  0  0  0  0  0  0  0  0  0
  159.3304  130.5850  191.6760 C   0  0  0  0  0  0  0  0  0  0  0  0
  159.0902  131.5440  190.7153 C   0  0  0  0  0  0  0  0  0  0  0  0
  157.8618  132.1708  190.6415 C   0  0  0  0  0  0  0  0  0  0  0  0
  156.8442  131.8448  191.5320 C   0  0  0  0  0  0  0  0  0  0  0  0
  157.0483  130.9054  192.4877 C   0  0  0  0  0  0  0  0  0  0  0  0
  158.3091  130.2745  192.5504 C   0  0  0  0  0  0  0  0  0  0  0  0
  164.3160  128.5096  192.6016 C   0  0  0  0  0  0  0  0  0  0  0  0
  163.1467  128.6575  191.7681 N   0  0  0  0  0  0  0  0  0  0  0  0
  161.9946  128.1644  192.4531 C   0  0  0  0  0  0  0  0  0  0  0  0
  160.7194  128.5408  191.7469 C   0  0  0  0  0  0  0  0  0  0  0  0
  160.6166  129.9822  191.6943 N   0  0  0  0  0  0  0  0  0  0  0  0
  161.8242  130.7522  191.6677 C   0  0  0  0  0  0  0  0  0  0  0  0
  163.0473  129.9807  191.2616 C   0  0  0  0  0  0  0  0  0  0  0  0
  151.9989  136.7258  192.6841 C   0  0  0  0  0  0  0  0  0  0  0  0
  150.7311  137.1149  192.2702 F   0  0  0  0  0  0  0  0  0  0  0  0
  152.6832  137.9245  192.9574 F   0  0  0  0  0  0  0  0  0  0  0  0
  152.0164  135.9197  193.7675 F   0  0  0  0  0  0  0  0  0  0  0  0
 32 33  1  0  0  0
 33 34  1  0  0  0
 34 35  1  0  0  0
 35 36  1  0  0  0
 36 37  1  0  0  0
 37 38  1  0  0  0
 36 26  1  0  0  0
 26 27  2  0  0  0
 27 28  1  0  0  0
 28 29  2  0  0  0
 29 30  1  0  0  0
 30 31  2  0  0  0
 29 22  1  0  0  0
 22 23  2  0  0  0
 22 24  1  0  0  0
 24  1  1  0  0  0
  1  2  2  0  0  0
  2  3  1  0  0  0
  3  4  2  0  0  0
  4  5  1  0  0  0
  5  6  2  0  0  0
  5 39  1  0  0  0
 39 40  1  0  0  0
 39 41  1  0  0  0
 39 42  1  0  0  0
  3  7  1  0  0  0
  7  8  1  0  0  0
  8  9  1  0  0  0
  9 10  1  0  0  0
 10 11  1  0  0  0
 11 12  1  0  0  0
 10 13  1  0  0  0
 13 14  2  0  0  0
 14 15  1  0  0  0
 15 16  2  0  0  0
 16 17  1  0  0  0
 16 18  1  0  0  0
 18 19  1  0  0  0
 18 20  1  0  0  0
 18 21  1  0  0  0
 38 33  1  0  0  0
 31 26  1  0  0  0
  6  1  1  0  0  0
 12  7  1  0  0  0
 17 13  1  0  0  0
 24 25  1  0  0  0
M  END
> <minimizedAffinity>
-5.70446

> <CNNscore>
0.4098177552

> <CNNaffinity>
5.8951692581

> <CNN_VS>
2.4159450531

> <CNNaffinity_variance>
0.1722525358

$$$$
[H]c1nc(N2C([H])([H])C([H])([H])N(c3nc(C(F)(F)F)nc(N([H])C(=O)c4c([H])c([H])c(N5C([H])([H])C([H])([H])N(C([H])([H])[H])C([H])([H])C5([H])[H])c([H])c4[H])c3[H])C([H])([H])C2([H])[H])sc1C(F)(F)F


 42 46  0  0  0  0  0  0  0  0999 V2000
  154.1609  134.7641  190.1952 C   0  0  0  0  0  0  0  0  0  0  0  0
  153.5814  135.0428  188.9921 C   0  0  0  0  0  0  0  0  0  0  0  0
  152.5130  135.8919  188.8747 C   0  0  0  0  0  0  0  0  0  0  0  0
  152.0449  136.4523  190.0391 N   0  0  0  0  0  0  0  0  0  0  0  0
  152.6026  136.1842  191.2156 C   0  0  0  0  0  0  0  0  0  0  0  0
  153.6183  135.3773  191.3023 N   0  0  0  0  0  0  0  0  0  0  0  0
  151.8857  136.2715  187.6623 N   0  0  0  0  0  0  0  0  0  0  0  0
  150.5004  136.3439  187.4742 C   0  0  0  0  0  0  0  0  0  0  0  0
  150.0387  136.8321  186.0998 C   0  0  0  0  0  0  0  0  0  0  0  0
  151.0083  136.6864  185.0786 N   0  0  0  0  0  0  0  0  0  0  0  0
  152.1689  135.8355  185.3750 C   0  0  0  0  0  0  0  0  0  0  0  0
  152.8129  136.5774  186.5561 C   0  0  0  0  0  0  0  0  0  0  0  0
  150.9344  137.3297  183.8232 C   0  0  0  0  0  0  0  0  0  0  0  0
  149.7932  137.6920  183.2145 N   0  0  0  0  0  0  0  0  0  0  0  0
  149.8313  138.2800  182.0795 C   0  0  0  0  0  0  0  0  0  0  0  0
  151.0611  138.5282  181.5064 C   0  0  0  0  0  0  0  0  0  0  0  0
  152.1042  137.8611  182.7090 S   0  0  0  0  0  0  0  0  0  0  0  0
  151.3490  139.1883  180.1938 C   0  0  0  0  0  0  0  0  0  0  0  0
  152.6117  138.9439  179.7396 F   0  0  0  0  0  0  0  0  0  0  0  0
  151.1365  140.5352  180.3410 F   0  0  0  0  0  0  0  0  0  0  0  0
  150.3797  138.7258  179.3203 F   0  0  0  0  0  0  0  0  0  0  0  0
  156.6088  134.1864  190.2414 C   0  0  0  0  0  0  0  0  0  0  0  0
  157.0795  135.2487  189.7835 O   0  0  0  0  0  0  0  0  0  0  0  0
  155.2658  133.9170  190.3954 N   0  0  0  0  0  0  0  0  0  0  0  0
  155.0301  132.9407  190.7980 H   0  0  0  0  0  0  0  0  0  0  0  0
  159.6009  131.2884  191.2728 C   0  0  0  0  0  0  0  0  0  0  0  0
  159.6801  132.0214  190.1080 C   0  0  0  0  0  0  0  0  0  0  0  0
  158.7016  132.9430  189.7910 C   0  0  0  0  0  0  0  0  0  0  0  0
  157.6177  133.1469  190.6385 C   0  0  0  0  0  0  0  0  0  0  0  0
  157.5100  132.4414  191.7910 C   0  0  0  0  0  0  0  0  0  0  0  0
  158.5183  131.5039  192.1009 C   0  0  0  0  0  0  0  0  0  0  0  0
  164.1227  128.4233  192.4410 C   0  0  0  0  0  0  0  0  0  0  0  0
  162.7026  128.4911  192.1903 N   0  0  0  0  0  0  0  0  0  0  0  0
  162.0750  129.3246  193.1656 C   0  0  0  0  0  0  0  0  0  0  0  0
  160.6522  129.6474  192.7942 C   0  0  0  0  0  0  0  0  0  0  0  0
  160.6427  130.3592  191.5355 N   0  0  0  0  0  0  0  0  0  0  0  0
  161.6946  130.1019  190.5978 C   0  0  0  0  0  0  0  0  0  0  0  0
  162.4408  128.8197  190.8336 C   0  0  0  0  0  0  0  0  0  0  0  0
  151.9725  136.8842  192.3864 C   0  0  0  0  0  0  0  0  0  0  0  0
  152.7578  137.9373  192.8383 F   0  0  0  0  0  0  0  0  0  0  0  0
  151.9985  135.9321  193.4221 F   0  0  0  0  0  0  0  0  0  0  0  0
  150.6980  137.2174  192.0892 F   0  0  0  0  0  0  0  0  0  0  0  0
 32 33  1  0  0  0
 33 34  1  0  0  0
 34 35  1  0  0  0
 35 36  1  0  0  0
 36 37  1  0  0  0
 37 38  1  0  0  0
 36 26  1  0  0  0
 26 27  2  0  0  0
 27 28  1  0  0  0
 28 29  2  0  0  0
 29 30  1  0  0  0
 30 31  2  0  0  0
 29 22  1  0  0  0
 22 23  2  0  0  0
 22 24  1  0  0  0
 24  1  1  0  0  0
  1  2  2  0  0  0
  2  3  1  0  0  0
  3  4  2  0  0  0
  4  5  1  0  0  0
  5  6  2  0  0  0
  5 39  1  0  0  0
 39 40  1  0  0  0
 39 41  1  0  0  0
 39 42  1  0  0  0
  3  7  1  0  0  0
  7  8  1  0  0  0
  8  9  1  0  0  0
  9 10  1  0  0  0
 10 11  1  0  0  0
 11 12  1  0  0  0
 10 13  1  0  0  0
 13 14  2  0  0  0
 14 15  1  0  0  0
 15 16  2  0  0  0
 16 17  1  0  0  0
 16 18  1  0  0  0
 18 19  1  0  0  0
 18 20  1  0  0  0
 18 21  1  0  0  0
 38 33  1  0  0  0
 31 26  1  0  0  0
  6  1  1  0  0  0
 12  7  1  0  0  0
 17 13  1  0  0  0
 24 25  1  0  0  0
M  END
> <minimizedAffinity>
-7.22185

> <CNNscore>
0.4083544016

> <CNNaffinity>
5.8932390213

> <CNN_VS>
2.4065301418

> <CNNaffinity_variance>
0.1025255471

$$$$
[H]c1c(C(=O)N([H])c2c([H])c([H])c(S(=O)(=O)N([H])[H])c([H])c2[H])nc(C(F)(F)F)nc1N1C([H])([H])C([H])([H])N(C(C([H])([H])[H])(C([H])([H])[H])C([H])([H])[H])C([H])([H])[C@@]1([H])C([H])([H])[H]


 37 39  0  0  0  0  0  0  0  0999 V2000
  153.1662  139.4315  182.4964 C   0  0  0  0  0  0  0  0  0  0  0  0
  153.8104  138.8218  183.5413 C   0  0  0  0  0  0  0  0  0  0  0  0
  154.6494  139.5618  184.3459 C   0  0  0  0  0  0  0  0  0  0  0  0
  154.8029  140.8721  184.0643 N   0  0  0  0  0  0  0  0  0  0  0  0
  154.1747  141.4738  183.0430 C   0  0  0  0  0  0  0  0  0  0  0  0
  153.3641  140.7346  182.2765 N   0  0  0  0  0  0  0  0  0  0  0  0
  151.8824  136.3518  181.2147 C   0  0  0  0  0  0  0  0  0  0  0  0
  151.5989  137.5350  182.0942 C   0  0  0  0  0  0  0  0  0  0  0  0
  150.0971  137.8746  182.0326 C   0  0  0  0  0  0  0  0  0  0  0  0
  149.8081  138.2882  180.6783 N   0  0  0  0  0  0  0  0  0  0  0  0
  150.5304  139.4037  180.2019 C   0  0  0  0  0  0  0  0  0  0  0  0
  152.0215  139.1817  180.3089 C   0  0  0  0  0  0  0  0  0  0  0  0
  152.3036  138.7357  181.6562 N   0  0  0  0  0  0  0  0  0  0  0  0
  148.4136  138.2777  180.3981 C   0  0  0  0  0  0  0  0  0  0  0  0
  148.1825  138.3757  178.9137 C   0  0  0  0  0  0  0  0  0  0  0  0
  147.7174  137.0972  180.9536 C   0  0  0  0  0  0  0  0  0  0  0  0
  147.7667  139.5195  181.0090 C   0  0  0  0  0  0  0  0  0  0  0  0
  154.3554  142.9196  182.7977 C   0  0  0  0  0  0  0  0  0  0  0  0
  153.1290  143.5327  182.5156 F   0  0  0  0  0  0  0  0  0  0  0  0
  154.8640  143.5212  183.9669 F   0  0  0  0  0  0  0  0  0  0  0  0
  155.2483  143.1641  181.7783 F   0  0  0  0  0  0  0  0  0  0  0  0
  155.3628  138.9574  185.5020 C   0  0  0  0  0  0  0  0  0  0  0  0
  156.5821  139.1520  185.5922 O   0  0  0  0  0  0  0  0  0  0  0  0
  154.5666  138.2237  186.3801 N   0  0  0  0  0  0  0  0  0  0  0  0
  153.5246  138.1420  186.1969 H   0  0  0  0  0  0  0  0  0  0  0  0
  155.0275  137.5574  187.5254 C   0  0  0  0  0  0  0  0  0  0  0  0
  154.8395  138.1243  188.7905 C   0  0  0  0  0  0  0  0  0  0  0  0
  155.2306  137.5016  189.9576 C   0  0  0  0  0  0  0  0  0  0  0  0
  155.8425  136.2591  189.9440 C   0  0  0  0  0  0  0  0  0  0  0  0
  156.0373  135.6945  188.7039 C   0  0  0  0  0  0  0  0  0  0  0  0
  155.6486  136.3065  187.5320 C   0  0  0  0  0  0  0  0  0  0  0  0
  156.3338  135.4811  191.4280 S   0  0  0  0  0  0  0  0  0  0  0  0
  154.9220  134.7221  192.0886 N   0  0  0  0  0  0  0  0  0  0  0  0
  156.8475  136.4516  192.4561 O   0  0  0  0  0  0  0  0  0  0  0  0
  157.4218  134.4671  191.1994 O   0  0  0  0  0  0  0  0  0  0  0  0
  155.1572  134.0257  192.8246 H   0  0  0  0  0  0  0  0  0  0  0  0
  154.2783  134.3707  191.3527 H   0  0  0  0  0  0  0  0  0  0  0  0
  7  8  1  0  0  0
  8  9  1  0  0  0
  9 10  1  0  0  0
 10 11  1  0  0  0
 11 12  1  0  0  0
 12 13  1  0  0  0
 13  1  1  0  0  0
  1  2  2  0  0  0
  2  3  1  0  0  0
  3  4  2  0  0  0
  4  5  1  0  0  0
  5  6  2  0  0  0
  5 18  1  0  0  0
 18 19  1  0  0  0
 18 20  1  0  0  0
 18 21  1  0  0  0
  3 22  1  0  0  0
 22 23  2  0  0  0
 22 24  1  0  0  0
 24 26  1  0  0  0
 26 27  2  0  0  0
 27 28  1  0  0  0
 28 29  2  0  0  0
 29 30  1  0  0  0
 30 31  2  0  0  0
 29 32  1  0  0  0
 32 33  1  0  0  0
 32 34  2  0  0  0
 32 35  2  0  0  0
 10 14  1  0  0  0
 14 15  1  0  0  0
 14 16  1  0  0  0
 14 17  1  0  0  0
 13  8  1  0  0  0
  6  1  1  0  0  0
 31 26  1  0  0  0
 24 25  1  0  0  0
 33 36  1  0  0  0
 33 37  1  0  0  0
M  END
> <minimizedAffinity>
-7.63766

> <CNNscore>
0.5057494044

> <CNNaffinity>
6.0911378860

> <CNN_VS>
3.0805892944

> <CNNaffinity_variance>
0.1507936418

$$$$
[H]c1c(C(=O)N([H])c2c([H])c([H])c(S(=O)(=O)N([H])[H])c([H])c2[H])nc(C(F)(F)F)nc1N1C([H])([H])C([H])([H])N(C(C([H])([H])[H])(C([H])([H])[H])C([H])([H])[H])C([H])([H])[C@@]1([H])C([H])([H])[H]


 37 39  0  0  0  0  0  0  0  0999 V2000
  152.5350  136.2765  182.4811 C   0  0  0  0  0  0  0  0  0  0  0  0
  152.9855  136.0301  183.7519 C   0  0  0  0  0  0  0  0  0  0  0  0
  153.9330  135.0510  183.9580 C   0  0  0  0  0  0  0  0  0  0  0  0
  154.3805  134.3676  182.8844 N   0  0  0  0  0  0  0  0  0  0  0  0
  153.9430  134.6048  181.6386 C   0  0  0  0  0  0  0  0  0  0  0  0
  153.0235  135.5614  181.4635 N   0  0  0  0  0  0  0  0  0  0  0  0
  151.4777  139.1755  180.6772 C   0  0  0  0  0  0  0  0  0  0  0  0
  151.2898  137.6965  180.8537 C   0  0  0  0  0  0  0  0  0  0  0  0
  149.8153  137.3302  180.5965 C   0  0  0  0  0  0  0  0  0  0  0  0
  149.0300  137.9720  181.6262 N   0  0  0  0  0  0  0  0  0  0  0  0
  149.3441  137.6202  182.9569 C   0  0  0  0  0  0  0  0  0  0  0  0
  150.8024  137.8713  183.2640 C   0  0  0  0  0  0  0  0  0  0  0  0
  151.5848  137.2563  182.2136 N   0  0  0  0  0  0  0  0  0  0  0  0
  147.6465  138.0164  181.2991 C   0  0  0  0  0  0  0  0  0  0  0  0
  146.8203  137.5835  182.4810 C   0  0  0  0  0  0  0  0  0  0  0  0
  147.2050  139.3428  180.8168 C   0  0  0  0  0  0  0  0  0  0  0  0
  147.3575  137.0069  180.1896 C   0  0  0  0  0  0  0  0  0  0  0  0
  154.4895  133.8468  180.4941 C   0  0  0  0  0  0  0  0  0  0  0  0
  153.5546  132.9184  180.0212 F   0  0  0  0  0  0  0  0  0  0  0  0
  154.7587  134.7428  179.4395 F   0  0  0  0  0  0  0  0  0  0  0  0
  155.6671  133.2075  180.8116 F   0  0  0  0  0  0  0  0  0  0  0  0
  154.4690  134.7502  185.3118 C   0  0  0  0  0  0  0  0  0  0  0  0
  153.9871  135.3654  186.2720 O   0  0  0  0  0  0  0  0  0  0  0  0
  155.4753  133.7865  185.3571 N   0  0  0  0  0  0  0  0  0  0  0  0
  155.7935  133.3204  184.4586 H   0  0  0  0  0  0  0  0  0  0  0  0
  156.1328  133.3576  186.5199 C   0  0  0  0  0  0  0  0  0  0  0  0
  157.1094  134.1654  187.1122 C   0  0  0  0  0  0  0  0  0  0  0  0
  157.7618  133.8216  188.2780 C   0  0  0  0  0  0  0  0  0  0  0  0
  157.4834  132.6372  188.9398 C   0  0  0  0  0  0  0  0  0  0  0  0
  156.5277  131.8322  188.3627 C   0  0  0  0  0  0  0  0  0  0  0  0
  155.8683  132.1668  187.1998 C   0  0  0  0  0  0  0  0  0  0  0  0
  158.3164  132.2125  190.4144 S   0  0  0  0  0  0  0  0  0  0  0  0
  158.0626  133.5166  191.5282 N   0  0  0  0  0  0  0  0  0  0  0  0
  159.8012  132.0620  190.2262 O   0  0  0  0  0  0  0  0  0  0  0  0
  157.8138  130.9173  190.9927 O   0  0  0  0  0  0  0  0  0  0  0  0
  158.2955  133.2501  192.5063 H   0  0  0  0  0  0  0  0  0  0  0  0
  157.1312  133.9623  191.4130 H   0  0  0  0  0  0  0  0  0  0  0  0
  7  8  1  0  0  0
  8  9  1  0  0  0
  9 10  1  0  0  0
 10 11  1  0  0  0
 11 12  1  0  0  0
 12 13  1  0  0  0
 13  1  1  0  0  0
  1  2  2  0  0  0
  2  3  1  0  0  0
  3  4  2  0  0  0
  4  5  1  0  0  0
  5  6  2  0  0  0
  5 18  1  0  0  0
 18 19  1  0  0  0
 18 20  1  0  0  0
 18 21  1  0  0  0
  3 22  1  0  0  0
 22 23  2  0  0  0
 22 24  1  0  0  0
 24 26  1  0  0  0
 26 27  2  0  0  0
 27 28  1  0  0  0
 28 29  2  0  0  0
 29 30  1  0  0  0
 30 31  2  0  0  0
 29 32  1  0  0  0
 32 33  1  0  0  0
 32 34  2  0  0  0
 32 35  2  0  0  0
 10 14  1  0  0  0
 14 15  1  0  0  0
 14 16  1  0  0  0
 14 17  1  0  0  0
 13  8  1  0  0  0
  6  1  1  0  0  0
 31 26  1  0  0  0
 24 25  1  0  0  0
 33 36  1  0  0  0
 33 37  1  0  0  0
M  END
> <minimizedAffinity>
-4.37758

> <CNNscore>
0.3506026566

> <CNNaffinity>
5.5553269386

> <CNN_VS>
1.9477124214

> <CNNaffinity_variance>
0.2114427835

$$$$
[H]c1c(C(=O)N([H])c2c([H])c([H])c(S(=O)(=O)N([H])[H])c([H])c2[H])nc(C(F)(F)F)nc1N1C([H])([H])C([H])([H])N(C(C([H])([H])[H])(C([H])([H])[H])C([H])([H])[H])C([H])([H])[C@@]1([H])C([H])([H])[H]


 37 39  0  0  0  0  0  0  0  0999 V2000
  154.3369  139.8437  183.1568 C   0  0  0  0  0  0  0  0  0  0  0  0
  153.9592  138.9520  184.1267 C   0  0  0  0  0  0  0  0  0  0  0  0
  152.8399  138.1720  183.9326 C   0  0  0  0  0  0  0  0  0  0  0  0
  152.1548  138.3242  182.7804 N   0  0  0  0  0  0  0  0  0  0  0  0
  152.5202  139.1954  181.8280 C   0  0  0  0  0  0  0  0  0  0  0  0
  153.6114  139.9408  182.0388 N   0  0  0  0  0  0  0  0  0  0  0  0
  157.4559  140.5900  184.7351 C   0  0  0  0  0  0  0  0  0  0  0  0
  156.7961  140.0927  183.4816 C   0  0  0  0  0  0  0  0  0  0  0  0
  157.6184  140.5358  182.2561 C   0  0  0  0  0  0  0  0  0  0  0  0
  157.5657  141.9792  182.2056 N   0  0  0  0  0  0  0  0  0  0  0  0
  156.2789  142.5505  182.1009 C   0  0  0  0  0  0  0  0  0  0  0  0
  155.3798  142.0944  183.2267 C   0  0  0  0  0  0  0  0  0  0  0  0
  155.4606  140.6514  183.2963 N   0  0  0  0  0  0  0  0  0  0  0  0
  158.5655  142.5252  181.3539 C   0  0  0  0  0  0  0  0  0  0  0  0
  159.9292  142.0615  181.7921 C   0  0  0  0  0  0  0  0  0  0  0  0
  158.3467  142.2126  179.9252 C   0  0  0  0  0  0  0  0  0  0  0  0
  158.5718  144.0464  181.4936 C   0  0  0  0  0  0  0  0  0  0  0  0
  151.7503  139.2999  180.5711 C   0  0  0  0  0  0  0  0  0  0  0  0
  151.0089  138.1345  180.3443 F   0  0  0  0  0  0  0  0  0  0  0  0
  150.8322  140.3636  180.6851 F   0  0  0  0  0  0  0  0  0  0  0  0
  152.5602  139.5596  179.4881 F   0  0  0  0  0  0  0  0  0  0  0  0
  152.3913  137.1778  184.9429 C   0  0  0  0  0  0  0  0  0  0  0  0
  152.2929  135.9968  184.5848 O   0  0  0  0  0  0  0  0  0  0  0  0
  152.1265  137.6909  186.2118 N   0  0  0  0  0  0  0  0  0  0  0  0
  152.2627  138.7271  186.3955 H   0  0  0  0  0  0  0  0  0  0  0  0
  151.6800  136.9413  187.3104 C   0  0  0  0  0  0  0  0  0  0  0  0
  150.3789  136.4274  187.3271 C   0  0  0  0  0  0  0  0  0  0  0  0
  149.8930  135.6479  188.3563 C   0  0  0  0  0  0  0  0  0  0  0  0
  150.6779  135.3244  189.4507 C   0  0  0  0  0  0  0  0  0  0  0  0
  151.9583  135.8295  189.4471 C   0  0  0  0  0  0  0  0  0  0  0  0
  152.4547  136.6072  188.4233 C   0  0  0  0  0  0  0  0  0  0  0  0
  150.0514  134.3376  190.7478 S   0  0  0  0  0  0  0  0  0  0  0  0
  149.8124  135.3869  192.1070 N   0  0  0  0  0  0  0  0  0  0  0  0
  151.0056  133.2560  191.1746 O   0  0  0  0  0  0  0  0  0  0  0  0
  148.7619  133.6607  190.3687 O   0  0  0  0  0  0  0  0  0  0  0  0
  149.2089  134.9556  192.8361 H   0  0  0  0  0  0  0  0  0  0  0  0
  149.5287  136.3455  191.8242 H   0  0  0  0  0  0  0  0  0  0  0  0
  7  8  1  0  0  0
  8  9  1  0  0  0
  9 10  1  0  0  0
 10 11  1  0  0  0
 11 12  1  0  0  0
 12 13  1  0  0  0
 13  1  1  0  0  0
  1  2  2  0  0  0
  2  3  1  0  0  0
  3  4  2  0  0  0
  4  5  1  0  0  0
  5  6  2  0  0  0
  5 18  1  0  0  0
 18 19  1  0  0  0
 18 20  1  0  0  0
 18 21  1  0  0  0
  3 22  1  0  0  0
 22 23  2  0  0  0
 22 24  1  0  0  0
 24 26  1  0  0  0
 26 27  2  0  0  0
 27 28  1  0  0  0
 28 29  2  0  0  0
 29 30  1  0  0  0
 30 31  2  0  0  0
 29 32  1  0  0  0
 32 33  1  0  0  0
 32 34  2  0  0  0
 32 35  2  0  0  0
 10 14  1  0  0  0
 14 15  1  0  0  0
 14 16  1  0  0  0
 14 17  1  0  0  0
 13  8  1  0  0  0
  6  1  1  0  0  0
 31 26  1  0  0  0
 24 25  1  0  0  0
 33 36  1  0  0  0
 33 37  1  0  0  0
M  END
> <minimizedAffinity>
-7.57324

> <CNNscore>
0.3307290077

> <CNNaffinity>
6.2181830406

> <CNN_VS>
2.0565335751

> <CNNaffinity_variance>
0.0268296357

$$$$
[H]c1c(C(=O)N([H])c2c([H])c([H])c(S(=O)(=O)N([H])[H])c([H])c2[H])nc(C(F)(F)F)nc1N1C([H])([H])C([H])([H])N(C(C([H])([H])[H])(C([H])([H])[H])C([H])([H])[H])C([H])([H])[C@@]1([H])C([H])([H])[H]


 37 39  0  0  0  0  0  0  0  0999 V2000
  153.0252  138.4965  183.0622 C   0  0  0  0  0  0  0  0  0  0  0  0
  153.3826  137.8326  184.2067 C   0  0  0  0  0  0  0  0  0  0  0  0
  154.2518  138.4294  185.0940 C   0  0  0  0  0  0  0  0  0  0  0  0
  154.7203  139.6577  184.7915 N   0  0  0  0  0  0  0  0  0  0  0  0
  154.3737  140.3119  183.6727 C   0  0  0  0  0  0  0  0  0  0  0  0
  153.5273  139.7123  182.8271 N   0  0  0  0  0  0  0  0  0  0  0  0
  151.2844  135.6790  181.7178 C   0  0  0  0  0  0  0  0  0  0  0  0
  151.1518  136.9467  182.5111 C   0  0  0  0  0  0  0  0  0  0  0  0
  149.7780  137.5870  182.2332 C   0  0  0  0  0  0  0  0  0  0  0  0
  149.7587  137.9682  180.8393 N   0  0  0  0  0  0  0  0  0  0  0  0
  150.7579  138.8779  180.4302 C   0  0  0  0  0  0  0  0  0  0  0  0
  152.1408  138.3574  180.7477 C   0  0  0  0  0  0  0  0  0  0  0  0
  152.1473  137.9454  182.1348 N   0  0  0  0  0  0  0  0  0  0  0  0
  148.4416  138.2311  180.3712 C   0  0  0  0  0  0  0  0  0  0  0  0
  147.8938  139.4679  181.0321 C   0  0  0  0  0  0  0  0  0  0  0  0
  148.3604  138.3513  178.8995 C   0  0  0  0  0  0  0  0  0  0  0  0
  147.5200  137.0863  180.7880 C   0  0  0  0  0  0  0  0  0  0  0  0
  154.8932  141.6690  183.4052 C   0  0  0  0  0  0  0  0  0  0  0  0
  154.7654  141.9915  182.0491 F   0  0  0  0  0  0  0  0  0  0  0  0
  154.1261  142.6030  184.1308 F   0  0  0  0  0  0  0  0  0  0  0  0
  156.2053  141.8079  183.7994 F   0  0  0  0  0  0  0  0  0  0  0  0
  154.6631  137.7632  186.3580 C   0  0  0  0  0  0  0  0  0  0  0  0
  154.5774  138.4151  187.4070 O   0  0  0  0  0  0  0  0  0  0  0  0
  155.1077  136.4486  186.2252 N   0  0  0  0  0  0  0  0  0  0  0  0
  155.1215  135.9959  185.2656 H   0  0  0  0  0  0  0  0  0  0  0  0
  155.5561  135.6362  187.2774 C   0  0  0  0  0  0  0  0  0  0  0  0
  156.8429  135.8093  187.7983 C   0  0  0  0  0  0  0  0  0  0  0  0
  157.3284  135.0730  188.8590 C   0  0  0  0  0  0  0  0  0  0  0  0
  156.5575  134.1038  189.4792 C   0  0  0  0  0  0  0  0  0  0  0  0
  155.2914  133.9215  188.9710 C   0  0  0  0  0  0  0  0  0  0  0  0
  154.7955  134.6528  187.9135 C   0  0  0  0  0  0  0  0  0  0  0  0
  157.1834  133.1777  190.8206 S   0  0  0  0  0  0  0  0  0  0  0  0
  158.3224  132.0480  190.1632 N   0  0  0  0  0  0  0  0  0  0  0  0
  156.1210  132.3853  191.5321 O   0  0  0  0  0  0  0  0  0  0  0  0
  157.8420  134.0537  191.8518 O   0  0  0  0  0  0  0  0  0  0  0  0
  158.9329  131.6328  190.8959 H   0  0  0  0  0  0  0  0  0  0  0  0
  158.8326  132.4298  189.3426 H   0  0  0  0  0  0  0  0  0  0  0  0
  7  8  1  0  0  0
  8  9  1  0  0  0
  9 10  1  0  0  0
 10 11  1  0  0  0
 11 12  1  0  0  0
 12 13  1  0  0  0
 13  1  1  0  0  0
  1  2  2  0  0  0
  2  3  1  0  0  0
  3  4  2  0  0  0
  4  5  1  0  0  0
  5  6  2  0  0  0
  5 18  1  0  0  0
 18 19  1  0  0  0
 18 20  1  0  0  0
 18 21  1  0  0  0
  3 22  1  0  0  0
 22 23  2  0  0  0
 22 24  1  0  0  0
 24 26  1  0  0  0
 26 27  2  0  0  0
 27 28  1  0  0  0
 28 29  2  0  0  0
 29 30  1  0  0  0
 30 31  2  0  0  0
 29 32  1  0  0  0
 32 33  1  0  0  0
 32 34  2  0  0  0
 32 35  2  0  0  0
 10 14  1  0  0  0
 14 15  1  0  0  0
 14 16  1  0  0  0
 14 17  1  0  0  0
 13  8  1  0  0  0
  6  1  1  0  0  0
 31 26  1  0  0  0
 24 25  1  0  0  0
 33 36  1  0  0  0
 33 37  1  0  0  0
M  END
> <minimizedAffinity>
-6.39560

> <CNNscore>
0.2935047150

> <CNNaffinity>
5.7459821701

> <CNN_VS>
1.6864728928

> <CNNaffinity_variance>
0.1610167325

$$$$
[H]c1c(C(=O)N([H])c2c([H])c([H])c(S(=O)(=O)N([H])[H])c([H])c2[H])nc(C(F)(F)F)nc1N1C([H])([H])C([H])([H])N(C(C([H])([H])[H])(C([H])([H])[H])C([H])([H])[H])C([H])([H])[C@@]1([H])C([H])([H])[H]


 37 39  0  0  0  0  0  0  0  0999 V2000
  153.0232  138.9767  182.4513 C   0  0  0  0  0  0  0  0  0  0  0  0
  153.2608  138.4443  183.6917 C   0  0  0  0  0  0  0  0  0  0  0  0
  154.0817  139.1151  184.5721 C   0  0  0  0  0  0  0  0  0  0  0  0
  154.6240  140.2822  184.1675 N   0  0  0  0  0  0  0  0  0  0  0  0
  154.3946  140.8077  182.9547 C   0  0  0  0  0  0  0  0  0  0  0  0
  153.5929  140.1384  182.1177 N   0  0  0  0  0  0  0  0  0  0  0  0
  151.6752  135.9995  181.0038 C   0  0  0  0  0  0  0  0  0  0  0  0
  151.3862  137.1863  181.8766 C   0  0  0  0  0  0  0  0  0  0  0  0
  149.9193  137.6191  181.6886 C   0  0  0  0  0  0  0  0  0  0  0  0
  149.7783  138.0675  180.3219 N   0  0  0  0  0  0  0  0  0  0  0  0
  150.6065  139.1423  179.9323 C   0  0  0  0  0  0  0  0  0  0  0  0
  152.0658  138.8271  180.1667 C   0  0  0  0  0  0  0  0  0  0  0  0
  152.1987  138.3467  181.5252 N   0  0  0  0  0  0  0  0  0  0  0  0
  148.4164  138.1471  179.9192 C   0  0  0  0  0  0  0  0  0  0  0  0
  147.7404  136.8158  180.1117 C   0  0  0  0  0  0  0  0  0  0  0  0
  147.6655  139.2145  180.6147 C   0  0  0  0  0  0  0  0  0  0  0  0
  148.3493  138.4420  178.4218 C   0  0  0  0  0  0  0  0  0  0  0  0
  154.9903  142.1051  182.5739 C   0  0  0  0  0  0  0  0  0  0  0  0
  155.8097  142.5950  183.5976 F   0  0  0  0  0  0  0  0  0  0  0  0
  155.8059  141.9178  181.4395 F   0  0  0  0  0  0  0  0  0  0  0  0
  154.0320  143.0399  182.2513 F   0  0  0  0  0  0  0  0  0  0  0  0
  154.3636  138.5931  185.9354 C   0  0  0  0  0  0  0  0  0  0  0  0
  155.5475  138.4165  186.2513 O   0  0  0  0  0  0  0  0  0  0  0  0
  153.2426  138.3560  186.7296 N   0  0  0  0  0  0  0  0  0  0  0  0
  152.2758  138.5616  186.3439 H   0  0  0  0  0  0  0  0  0  0  0  0
  153.2708  137.8523  188.0387 C   0  0  0  0  0  0  0  0  0  0  0  0
  152.4635  136.7649  188.3897 C   0  0  0  0  0  0  0  0  0  0  0  0
  152.4756  136.1960  189.6463 C   0  0  0  0  0  0  0  0  0  0  0  0
  153.3006  136.6768  190.6496 C   0  0  0  0  0  0  0  0  0  0  0  0
  154.0953  137.7502  190.3166 C   0  0  0  0  0  0  0  0  0  0  0  0
  154.0930  138.3248  189.0639 C   0  0  0  0  0  0  0  0  0  0  0  0
  153.3065  135.9488  192.2366 S   0  0  0  0  0  0  0  0  0  0  0  0
  152.4047  137.0031  193.2763 N   0  0  0  0  0  0  0  0  0  0  0  0
  154.6884  135.8172  192.8158 O   0  0  0  0  0  0  0  0  0  0  0  0
  152.7016  134.5709  192.2269 O   0  0  0  0  0  0  0  0  0  0  0  0
  152.1332  136.5399  194.1672 H   0  0  0  0  0  0  0  0  0  0  0  0
  151.6238  137.4770  192.7814 H   0  0  0  0  0  0  0  0  0  0  0  0
  7  8  1  0  0  0
  8  9  1  0  0  0
  9 10  1  0  0  0
 10 11  1  0  0  0
 11 12  1  0  0  0
 12 13  1  0  0  0
 13  1  1  0  0  0
  1  2  2  0  0  0
  2  3  1  0  0  0
  3  4  2  0  0  0
  4  5  1  0  0  0
  5  6  2  0  0  0
  5 18  1  0  0  0
 18 19  1  0  0  0
 18 20  1  0  0  0
 18 21  1  0  0  0
  3 22  1  0  0  0
 22 23  2  0  0  0
 22 24  1  0  0  0
 24 26  1  0  0  0
 26 27  2  0  0  0
 27 28  1  0  0  0
 28 29  2  0  0  0
 29 30  1  0  0  0
 30 31  2  0  0  0
 29 32  1  0  0  0
 32 33  1  0  0  0
 32 34  2  0  0  0
 32 35  2  0  0  0
 10 14  1  0  0  0
 14 15  1  0  0  0
 14 16  1  0  0  0
 14 17  1  0  0  0
 13  8  1  0  0  0
  6  1  1  0  0  0
 31 26  1  0  0  0
 24 25  1  0  0  0
 33 36  1  0  0  0
 33 37  1  0  0  0
M  END
> <minimizedAffinity>
-7.31387

> <CNNscore>
0.2815118134

> <CNNaffinity>
5.8714990616

> <CNN_VS>
1.6528964043

> <CNNaffinity_variance>
0.1166145653

$$$$
[H]c1c(C(=O)N([H])c2c([H])c([H])c(S(=O)(=O)N([H])[H])c([H])c2[H])nc(C(F)(F)F)nc1N1C([H])([H])C([H])([H])N(C(C([H])([H])[H])(C([H])([H])[H])C([H])([H])[H])C([H])([H])[C@@]1([H])C([H])([H])[H]


 37 39  0  0  0  0  0  0  0  0999 V2000
  151.8302  138.2754  182.7704 C   0  0  0  0  0  0  0  0  0  0  0  0
  152.3656  137.3004  183.5711 C   0  0  0  0  0  0  0  0  0  0  0  0
  153.6287  137.4704  184.0950 C   0  0  0  0  0  0  0  0  0  0  0  0
  154.2924  138.6049  183.7908 N   0  0  0  0  0  0  0  0  0  0  0  0
  153.7729  139.5623  183.0077 C   0  0  0  0  0  0  0  0  0  0  0  0
  152.5441  139.3750  182.5118 N   0  0  0  0  0  0  0  0  0  0  0  0
  149.2150  139.5391  180.6871 C   0  0  0  0  0  0  0  0  0  0  0  0
  150.2856  138.4958  180.8259 C   0  0  0  0  0  0  0  0  0  0  0  0
  149.8214  137.1888  180.1545 C   0  0  0  0  0  0  0  0  0  0  0  0
  148.6787  136.7092  180.8981 N   0  0  0  0  0  0  0  0  0  0  0  0
  148.8950  136.4462  182.2682 C   0  0  0  0  0  0  0  0  0  0  0  0
  149.4350  137.6624  182.9846 C   0  0  0  0  0  0  0  0  0  0  0  0
  150.5582  138.1600  182.2199 N   0  0  0  0  0  0  0  0  0  0  0  0
  147.9423  135.7271  180.1796 C   0  0  0  0  0  0  0  0  0  0  0  0
  148.8600  134.6271  179.7167 C   0  0  0  0  0  0  0  0  0  0  0  0
  146.8116  135.1677  180.9513 C   0  0  0  0  0  0  0  0  0  0  0  0
  147.3647  136.3560  178.9129 C   0  0  0  0  0  0  0  0  0  0  0  0
  154.5318  140.7995  182.7312 C   0  0  0  0  0  0  0  0  0  0  0  0
  154.3147  141.7504  183.7352 F   0  0  0  0  0  0  0  0  0  0  0  0
  155.9093  140.4999  182.7305 F   0  0  0  0  0  0  0  0  0  0  0  0
  154.2189  141.3348  181.5016 F   0  0  0  0  0  0  0  0  0  0  0  0
  154.2542  136.4536  184.9812 C   0  0  0  0  0  0  0  0  0  0  0  0
  154.4165  135.3140  184.5256 O   0  0  0  0  0  0  0  0  0  0  0  0
  154.6007  136.9012  186.2552 N   0  0  0  0  0  0  0  0  0  0  0  0
  154.4195  137.9123  186.5212 H   0  0  0  0  0  0  0  0  0  0  0  0
  155.1874  136.1140  187.2574 C   0  0  0  0  0  0  0  0  0  0  0  0
  154.4617  135.0735  187.8472 C   0  0  0  0  0  0  0  0  0  0  0  0
  154.9939  134.2369  188.8062 C   0  0  0  0  0  0  0  0  0  0  0  0
  156.2986  134.3815  189.2481 C   0  0  0  0  0  0  0  0  0  0  0  0
  157.0201  135.4058  188.6781 C   0  0  0  0  0  0  0  0  0  0  0  0
  156.4992  136.2459  187.7178 C   0  0  0  0  0  0  0  0  0  0  0  0
  156.9609  133.3168  190.4632 S   0  0  0  0  0  0  0  0  0  0  0  0
  155.6177  132.6522  191.3349 N   0  0  0  0  0  0  0  0  0  0  0  0
  157.8342  134.0329  191.4567 O   0  0  0  0  0  0  0  0  0  0  0  0
  157.7938  132.2195  189.8576 O   0  0  0  0  0  0  0  0  0  0  0  0
  155.8872  131.8215  191.8999 H   0  0  0  0  0  0  0  0  0  0  0  0
  154.7832  132.5114  190.7324 H   0  0  0  0  0  0  0  0  0  0  0  0
  7  8  1  0  0  0
  8  9  1  0  0  0
  9 10  1  0  0  0
 10 11  1  0  0  0
 11 12  1  0  0  0
 12 13  1  0  0  0
 13  1  1  0  0  0
  1  2  2  0  0  0
  2  3  1  0  0  0
  3  4  2  0  0  0
  4  5  1  0  0  0
  5  6  2  0  0  0
  5 18  1  0  0  0
 18 19  1  0  0  0
 18 20  1  0  0  0
 18 21  1  0  0  0
  3 22  1  0  0  0
 22 23  2  0  0  0
 22 24  1  0  0  0
 24 26  1  0  0  0
 26 27  2  0  0  0
 27 28  1  0  0  0
 28 29  2  0  0  0
 29 30  1  0  0  0
 30 31  2  0  0  0
 29 32  1  0  0  0
 32 33  1  0  0  0
 32 34  2  0  0  0
 32 35  2  0  0  0
 10 14  1  0  0  0
 14 15  1  0  0  0
 14 16  1  0  0  0
 14 17  1  0  0  0
 13  8  1  0  0  0
  6  1  1  0  0  0
 31 26  1  0  0  0
 24 25  1  0  0  0
 33 36  1  0  0  0
 33 37  1  0  0  0
M  END
> <minimizedAffinity>
-5.47928

> <CNNscore>
0.2796513736

> <CNNaffinity>
5.6118068695

> <CNN_VS>
1.5693495274

> <CNNaffinity_variance>
0.0926143527

$$$$
[H]c1c(C(=O)N([H])c2c([H])c([H])c(S(=O)(=O)N([H])[H])c([H])c2[H])nc(C(F)(F)F)nc1N1C([H])([H])C([H])([H])N(C(C([H])([H])[H])(C([H])([H])[H])C([H])([H])[H])C([H])([H])[C@@]1([H])C([H])([H])[H]


 37 39  0  0  0  0  0  0  0  0999 V2000
  152.5130  137.9321  183.2904 C   0  0  0  0  0  0  0  0  0  0  0  0
  153.5452  138.7406  183.6898 C   0  0  0  0  0  0  0  0  0  0  0  0
  153.8935  139.8276  182.9177 C   0  0  0  0  0  0  0  0  0  0  0  0
  153.1940  140.0499  181.7859 N   0  0  0  0  0  0  0  0  0  0  0  0
  152.1829  139.2618  181.3905 C   0  0  0  0  0  0  0  0  0  0  0  0
  151.8624  138.2130  182.1575 N   0  0  0  0  0  0  0  0  0  0  0  0
  151.5791  136.4476  186.4049 C   0  0  0  0  0  0  0  0  0  0  0  0
  151.0877  136.9173  185.0663 C   0  0  0  0  0  0  0  0  0  0  0  0
  149.9286  136.0165  184.5980 C   0  0  0  0  0  0  0  0  0  0  0  0
  150.4714  134.6922  184.3970 N   0  0  0  0  0  0  0  0  0  0  0  0
  151.5180  134.5861  183.4555 C   0  0  0  0  0  0  0  0  0  0  0  0
  152.6649  135.5081  183.7997 C   0  0  0  0  0  0  0  0  0  0  0  0
  152.1144  136.8258  184.0330 N   0  0  0  0  0  0  0  0  0  0  0  0
  149.4553  133.6998  184.3198 C   0  0  0  0  0  0  0  0  0  0  0  0
  149.8070  132.6784  183.2712 C   0  0  0  0  0  0  0  0  0  0  0  0
  149.1868  133.0400  185.6158 C   0  0  0  0  0  0  0  0  0  0  0  0
  148.1513  134.3476  183.8576 C   0  0  0  0  0  0  0  0  0  0  0  0
  151.4301  139.5689  180.1567 C   0  0  0  0  0  0  0  0  0  0  0  0
  150.5925  140.6741  180.3479 F   0  0  0  0  0  0  0  0  0  0  0  0
  152.3428  139.9080  179.1372 F   0  0  0  0  0  0  0  0  0  0  0  0
  150.6933  138.4914  179.7182 F   0  0  0  0  0  0  0  0  0  0  0  0
  154.9944  140.7474  183.3086 C   0  0  0  0  0  0  0  0  0  0  0  0
  154.7335  141.9546  183.3936 O   0  0  0  0  0  0  0  0  0  0  0  0
  156.2268  140.1402  183.5452 N   0  0  0  0  0  0  0  0  0  0  0  0
  156.3176  139.0873  183.4501 H   0  0  0  0  0  0  0  0  0  0  0  0
  157.4029  140.8124  183.9100 C   0  0  0  0  0  0  0  0  0  0  0  0
  157.8126  140.8343  185.2474 C   0  0  0  0  0  0  0  0  0  0  0  0
  158.9792  141.4404  185.6652 C   0  0  0  0  0  0  0  0  0  0  0  0
  159.8258  142.0731  184.7699 C   0  0  0  0  0  0  0  0  0  0  0  0
  159.4295  142.0621  183.4518 C   0  0  0  0  0  0  0  0  0  0  0  0
  158.2675  141.4578  183.0232 C   0  0  0  0  0  0  0  0  0  0  0  0
  161.2995  142.8375  185.3108 S   0  0  0  0  0  0  0  0  0  0  0  0
  161.2091  142.9364  187.0393 N   0  0  0  0  0  0  0  0  0  0  0  0
  161.4598  144.2381  184.7861 O   0  0  0  0  0  0  0  0  0  0  0  0
  162.5217  142.0680  184.8880 O   0  0  0  0  0  0  0  0  0  0  0  0
  162.1340  143.1364  187.4712 H   0  0  0  0  0  0  0  0  0  0  0  0
  160.7030  142.1313  187.4576 H   0  0  0  0  0  0  0  0  0  0  0  0
  7  8  1  0  0  0
  8  9  1  0  0  0
  9 10  1  0  0  0
 10 11  1  0  0  0
 11 12  1  0  0  0
 12 13  1  0  0  0
 13  1  1  0  0  0
  1  2  2  0  0  0
  2  3  1  0  0  0
  3  4  2  0  0  0
  4  5  1  0  0  0
  5  6  2  0  0  0
  5 18  1  0  0  0
 18 19  1  0  0  0
 18 20  1  0  0  0
 18 21  1  0  0  0
  3 22  1  0  0  0
 22 23  2  0  0  0
 22 24  1  0  0  0
 24 26  1  0  0  0
 26 27  2  0  0  0
 27 28  1  0  0  0
 28 29  2  0  0  0
 29 30  1  0  0  0
 30 31  2  0  0  0
 29 32  1  0  0  0
 32 33  1  0  0  0
 32 34  2  0  0  0
 32 35  2  0  0  0
 10 14  1  0  0  0
 14 15  1  0  0  0
 14 16  1  0  0  0
 14 17  1  0  0  0
 13  8  1  0  0  0
  6  1  1  0  0  0
 31 26  1  0  0  0
 24 25  1  0  0  0
 33 36  1  0  0  0
 33 37  1  0  0  0
M  END
> <minimizedAffinity>
-7.72520

> <CNNscore>
0.2464618385

> <CNNaffinity>
6.1924567223

> <CNN_VS>
1.5262042284

> <CNNaffinity_variance>
0.1480722725

$$$$
[H]c1c(C(=O)N([H])c2c([H])c([H])c(S(=O)(=O)N([H])[H])c([H])c2[H])nc(C(F)(F)F)nc1N1C([H])([H])C([H])([H])N(C(C([H])([H])[H])(C([H])([H])[H])C([H])([H])[H])C([H])([H])[C@@]1([H])C([H])([H])[H]


 37 39  0  0  0  0  0  0  0  0999 V2000
  154.7558  140.0980  183.5072 C   0  0  0  0  0  0  0  0  0  0  0  0
  154.5262  139.2413  184.5521 C   0  0  0  0  0  0  0  0  0  0  0  0
  153.4370  138.3981  184.5114 C   0  0  0  0  0  0  0  0  0  0  0  0
  152.6327  138.4552  183.4299 N   0  0  0  0  0  0  0  0  0  0  0  0
  152.8529  139.2917  182.4045 C   0  0  0  0  0  0  0  0  0  0  0  0
  153.9178  140.1001  182.4664 N   0  0  0  0  0  0  0  0  0  0  0  0
  157.9577  141.0976  184.7420 C   0  0  0  0  0  0  0  0  0  0  0  0
  157.2171  140.4860  183.5881 C   0  0  0  0  0  0  0  0  0  0  0  0
  157.9025  140.8844  182.2668 C   0  0  0  0  0  0  0  0  0  0  0  0
  157.7679  142.3170  182.1310 N   0  0  0  0  0  0  0  0  0  0  0  0
  156.4480  142.8175  182.1093 C   0  0  0  0  0  0  0  0  0  0  0  0
  155.6781  142.3957  183.3395 C   0  0  0  0  0  0  0  0  0  0  0  0
  155.8423  140.9662  183.4917 N   0  0  0  0  0  0  0  0  0  0  0  0
  158.6575  142.8516  181.1583 C   0  0  0  0  0  0  0  0  0  0  0  0
  158.7926  144.3397  181.3420 C   0  0  0  0  0  0  0  0  0  0  0  0
  159.9877  142.2056  181.1691 C   0  0  0  0  0  0  0  0  0  0  0  0
  158.0626  142.6504  179.7657 C   0  0  0  0  0  0  0  0  0  0  0  0
  151.9565  139.2917  181.2299 C   0  0  0  0  0  0  0  0  0  0  0  0
  152.4471  138.4431  180.2306 F   0  0  0  0  0  0  0  0  0  0  0  0
  150.6955  138.7949  181.6178 F   0  0  0  0  0  0  0  0  0  0  0  0
  151.7697  140.5577  180.7213 F   0  0  0  0  0  0  0  0  0  0  0  0
  153.1465  137.4379  185.6088 C   0  0  0  0  0  0  0  0  0  0  0  0
  152.3275  136.5371  185.3842 O   0  0  0  0  0  0  0  0  0  0  0  0
  153.8430  137.6568  186.7964 N   0  0  0  0  0  0  0  0  0  0  0  0
  154.5316  138.4619  186.8578 H   0  0  0  0  0  0  0  0  0  0  0  0
  153.7162  136.8868  187.9622 C   0  0  0  0  0  0  0  0  0  0  0  0
  152.8115  137.2669  188.9593 C   0  0  0  0  0  0  0  0  0  0  0  0
  152.6085  136.5315  190.1086 C   0  0  0  0  0  0  0  0  0  0  0  0
  153.3005  135.3553  190.3457 C   0  0  0  0  0  0  0  0  0  0  0  0
  154.1974  134.9748  189.3734 C   0  0  0  0  0  0  0  0  0  0  0  0
  154.4063  135.7005  188.2207 C   0  0  0  0  0  0  0  0  0  0  0  0
  153.0355  134.4333  191.8047 S   0  0  0  0  0  0  0  0  0  0  0  0
  153.5262  135.4378  193.1298 N   0  0  0  0  0  0  0  0  0  0  0  0
  153.8600  133.1764  191.8614 O   0  0  0  0  0  0  0  0  0  0  0  0
  151.5963  134.0213  191.9575 O   0  0  0  0  0  0  0  0  0  0  0  0
  153.1722  135.0863  194.0425 H   0  0  0  0  0  0  0  0  0  0  0  0
  153.3414  136.4450  192.9549 H   0  0  0  0  0  0  0  0  0  0  0  0
  7  8  1  0  0  0
  8  9  1  0  0  0
  9 10  1  0  0  0
 10 11  1  0  0  0
 11 12  1  0  0  0
 12 13  1  0  0  0
 13  1  1  0  0  0
  1  2  2  0  0  0
  2  3  1  0  0  0
  3  4  2  0  0  0
  4  5  1  0  0  0
  5  6  2  0  0  0
  5 18  1  0  0  0
 18 19  1  0  0  0
 18 20  1  0  0  0
 18 21  1  0  0  0
  3 22  1  0  0  0
 22 23  2  0  0  0
 22 24  1  0  0  0
 24 26  1  0  0  0
 26 27  2  0  0  0
 27 28  1  0  0  0
 28 29  2  0  0  0
 29 30  1  0  0  0
 30 31  2  0  0  0
 29 32  1  0  0  0
 32 33  1  0  0  0
 32 34  2  0  0  0
 32 35  2  0  0  0
 10 14  1  0  0  0
 14 15  1  0  0  0
 14 16  1  0  0  0
 14 17  1  0  0  0
 13  8  1  0  0  0
  6  1  1  0  0  0
 31 26  1  0  0  0
 24 25  1  0  0  0
 33 36  1  0  0  0
 33 37  1  0  0  0
M  END
> <minimizedAffinity>
-7.33526

> <CNNscore>
0.2417005599

> <CNNaffinity>
6.2813119888

> <CNN_VS>
1.5181965828

> <CNNaffinity_variance>
0.0367963910

$$$$
[H]c1c(C(=O)N([H])c2c([H])c([H])c(S(=O)(=O)N([H])[H])c([H])c2[H])nc(C(F)(F)F)nc1N1C([H])([H])C([H])([H])N(C(C([H])([H])[H])(C([H])([H])[H])C([H])([H])[H])C([H])([H])[C@@]1([H])C([H])([H])[H]


 37 39  0  0  0  0  0  0  0  0999 V2000
  154.4853  137.8055  185.7311 C   0  0  0  0  0  0  0  0  0  0  0  0
  153.4762  137.4556  184.8721 C   0  0  0  0  0  0  0  0  0  0  0  0
  153.3211  138.1470  183.6902 C   0  0  0  0  0  0  0  0  0  0  0  0
  154.1809  139.1530  183.4281 N   0  0  0  0  0  0  0  0  0  0  0  0
  155.1702  139.4994  184.2654 C   0  0  0  0  0  0  0  0  0  0  0  0
  155.3015  138.8125  185.4064 N   0  0  0  0  0  0  0  0  0  0  0  0
  156.3984  135.5695  187.7600 C   0  0  0  0  0  0  0  0  0  0  0  0
  156.0205  137.0032  187.5240 C   0  0  0  0  0  0  0  0  0  0  0  0
  155.9683  137.7505  188.8706 C   0  0  0  0  0  0  0  0  0  0  0  0
  154.8976  137.1633  189.6436 N   0  0  0  0  0  0  0  0  0  0  0  0
  153.6118  137.2144  189.0629 C   0  0  0  0  0  0  0  0  0  0  0  0
  153.5990  136.5733  187.6944 C   0  0  0  0  0  0  0  0  0  0  0  0
  154.6925  137.1389  186.9341 N   0  0  0  0  0  0  0  0  0  0  0  0
  154.9775  137.5064  191.0217 C   0  0  0  0  0  0  0  0  0  0  0  0
  155.0360  139.0023  191.1808 C   0  0  0  0  0  0  0  0  0  0  0  0
  153.8723  136.9429  191.8266 C   0  0  0  0  0  0  0  0  0  0  0  0
  156.2851  136.9689  191.6006 C   0  0  0  0  0  0  0  0  0  0  0  0
  156.1028  140.5904  183.9146 C   0  0  0  0  0  0  0  0  0  0  0  0
  156.9930  140.8401  184.9656 F   0  0  0  0  0  0  0  0  0  0  0  0
  156.8715  140.1939  182.8014 F   0  0  0  0  0  0  0  0  0  0  0  0
  155.4401  141.7487  183.5751 F   0  0  0  0  0  0  0  0  0  0  0  0
  152.2542  137.8024  182.7136 C   0  0  0  0  0  0  0  0  0  0  0  0
  151.6993  138.7329  182.1144 O   0  0  0  0  0  0  0  0  0  0  0  0
  151.9887  136.4412  182.5719 N   0  0  0  0  0  0  0  0  0  0  0  0
  152.5468  135.7381  183.1377 H   0  0  0  0  0  0  0  0  0  0  0  0
  151.0180  135.8907  181.7217 C   0  0  0  0  0  0  0  0  0  0  0  0
  151.1703  134.5888  181.2329 C   0  0  0  0  0  0  0  0  0  0  0  0
  150.2328  133.9746  180.4286 C   0  0  0  0  0  0  0  0  0  0  0  0
  149.0679  134.6223  180.0521 C   0  0  0  0  0  0  0  0  0  0  0  0
  148.9103  135.9060  180.5232 C   0  0  0  0  0  0  0  0  0  0  0  0
  149.8392  136.5282  181.3289 C   0  0  0  0  0  0  0  0  0  0  0  0
  147.8889  133.8347  179.0330 S   0  0  0  0  0  0  0  0  0  0  0  0
  148.7523  132.6911  178.0572 N   0  0  0  0  0  0  0  0  0  0  0  0
  147.1904  134.7869  178.1012 O   0  0  0  0  0  0  0  0  0  0  0  0
  146.8205  133.1443  179.8369 O   0  0  0  0  0  0  0  0  0  0  0  0
  148.1189  131.9989  177.6082 H   0  0  0  0  0  0  0  0  0  0  0  0
  149.5622  132.2738  178.5565 H   0  0  0  0  0  0  0  0  0  0  0  0
  7  8  1  0  0  0
  8  9  1  0  0  0
  9 10  1  0  0  0
 10 11  1  0  0  0
 11 12  1  0  0  0
 12 13  1  0  0  0
 13  1  1  0  0  0
  1  2  2  0  0  0
  2  3  1  0  0  0
  3  4  2  0  0  0
  4  5  1  0  0  0
  5  6  2  0  0  0
  5 18  1  0  0  0
 18 19  1  0  0  0
 18 20  1  0  0  0
 18 21  1  0  0  0
  3 22  1  0  0  0
 22 23  2  0  0  0
 22 24  1  0  0  0
 24 26  1  0  0  0
 26 27  2  0  0  0
 27 28  1  0  0  0
 28 29  2  0  0  0
 29 30  1  0  0  0
 30 31  2  0  0  0
 29 32  1  0  0  0
 32 33  1  0  0  0
 32 34  2  0  0  0
 32 35  2  0  0  0
 10 14  1  0  0  0
 14 15  1  0  0  0
 14 16  1  0  0  0
 14 17  1  0  0  0
 13  8  1  0  0  0
  6  1  1  0  0  0
 31 26  1  0  0  0
 24 25  1  0  0  0
 33 36  1  0  0  0
 33 37  1  0  0  0
M  END
> <minimizedAffinity>
-6.41697

> <CNNscore>
0.2245519608

> <CNNaffinity>
5.6614789963

> <CNN_VS>
1.2712962627

> <CNNaffinity_variance>
0.0412909314

$$$$
[H]c1c(N2C([H])([H])C([H])([H])OC([H])([H])C2([H])[H])nc(C(F)(F)F)nc1N1C([H])([H])C([H])([H])N(c2c([H])c(N3C([H])([H])C([H])([H])C(F)(F)C([H])([H])C3([H])[H])nc(C(F)(F)F)c2[H])C([H])([H])[C@@]1([H])C([H])([H])[H]


 41 45  0  0  0  0  0  0  0  0999 V2000
  154.4586  134.7905  187.1884 C   0  0  0  0  0  0  0  0  0  0  0  0
  153.6027  136.0227  186.8840 C   0  0  0  0  0  0  0  0  0  0  0  0
  153.7591  136.4477  185.4541 C   0  0  0  0  0  0  0  0  0  0  0  0
  154.1531  137.8016  185.2538 N   0  0  0  0  0  0  0  0  0  0  0  0
  154.9339  138.4518  186.2894 C   0  0  0  0  0  0  0  0  0  0  0  0
  154.0978  138.4191  187.5418 C   0  0  0  0  0  0  0  0  0  0  0  0
  153.8811  137.0243  187.8576 N   0  0  0  0  0  0  0  0  0  0  0  0
  153.9113  136.6404  189.2300 C   0  0  0  0  0  0  0  0  0  0  0  0
  152.7347  136.3014  189.8948 C   0  0  0  0  0  0  0  0  0  0  0  0
  152.8056  135.9069  191.2115 C   0  0  0  0  0  0  0  0  0  0  0  0
  154.0026  135.8488  191.8462 N   0  0  0  0  0  0  0  0  0  0  0  0
  155.1508  136.1745  191.2083 C   0  0  0  0  0  0  0  0  0  0  0  0
  155.0528  136.5543  189.9339 N   0  0  0  0  0  0  0  0  0  0  0  0
  151.6297  135.5564  191.9187 N   0  0  0  0  0  0  0  0  0  0  0  0
  151.6797  134.9463  193.2374 C   0  0  0  0  0  0  0  0  0  0  0  0
  150.4022  135.4292  193.9463 C   0  0  0  0  0  0  0  0  0  0  0  0
  149.2968  134.8462  193.3863 O   0  0  0  0  0  0  0  0  0  0  0  0
  149.4122  134.6898  192.0097 C   0  0  0  0  0  0  0  0  0  0  0  0
  150.2971  135.7631  191.3803 C   0  0  0  0  0  0  0  0  0  0  0  0
  156.4884  136.1107  191.8513 C   0  0  0  0  0  0  0  0  0  0  0  0
  156.2825  136.2664  193.2056 F   0  0  0  0  0  0  0  0  0  0  0  0
  157.1820  134.9538  191.5521 F   0  0  0  0  0  0  0  0  0  0  0  0
  157.1859  137.2349  191.4418 F   0  0  0  0  0  0  0  0  0  0  0  0
  153.8605  138.5513  184.0904 C   0  0  0  0  0  0  0  0  0  0  0  0
  152.9429  138.1431  183.1464 C   0  0  0  0  0  0  0  0  0  0  0  0
  152.6677  138.8908  182.0226 C   0  0  0  0  0  0  0  0  0  0  0  0
  153.3530  140.0520  181.9045 N   0  0  0  0  0  0  0  0  0  0  0  0
  154.2523  140.4919  182.7999 C   0  0  0  0  0  0  0  0  0  0  0  0
  154.5431  139.7635  183.9283 C   0  0  0  0  0  0  0  0  0  0  0  0
  151.7086  138.5083  181.0527 N   0  0  0  0  0  0  0  0  0  0  0  0
  150.8083  137.3982  181.3371 C   0  0  0  0  0  0  0  0  0  0  0  0
  149.4243  138.0890  181.2835 C   0  0  0  0  0  0  0  0  0  0  0  0
  149.2048  138.4469  179.8345 C   0  0  0  0  0  0  0  0  0  0  0  0
  149.1986  137.2966  179.0666 F   0  0  0  0  0  0  0  0  0  0  0  0
  147.9385  139.0082  179.7277 F   0  0  0  0  0  0  0  0  0  0  0  0
  150.1902  139.4745  179.4038 C   0  0  0  0  0  0  0  0  0  0  0  0
  151.6219  139.2116  179.8014 C   0  0  0  0  0  0  0  0  0  0  0  0
  154.9304  141.7957  182.5936 C   0  0  0  0  0  0  0  0  0  0  0  0
  155.5601  142.1711  183.7532 F   0  0  0  0  0  0  0  0  0  0  0  0
  155.8779  141.7750  181.6044 F   0  0  0  0  0  0  0  0  0  0  0  0
  153.9116  142.7151  182.2971 F   0  0  0  0  0  0  0  0  0  0  0  0
  1  2  1  0  0  0
  2  3  1  0  0  0
  3  4  1  0  0  0
  4  5  1  0  0  0
  5  6  1  0  0  0
  6  7  1  0  0  0
  7  8  1  0  0  0
  8  9  2  0  0  0
  9 10  1  0  0  0
 10 11  2  0  0  0
 11 12  1  0  0  0
 12 13  2  0  0  0
 12 20  1  0  0  0
 20 21  1  0  0  0
 20 22  1  0  0  0
 20 23  1  0  0  0
 10 14  1  0  0  0
 14 15  1  0  0  0
 15 16  1  0  0  0
 16 17  1  0  0  0
 17 18  1  0  0  0
 18 19  1  0  0  0
  4 24  1  0  0  0
 24 25  2  0  0  0
 25 26  1  0  0  0
 26 27  2  0  0  0
 27 28  1  0  0  0
 28 29  2  0  0  0
 28 38  1  0  0  0
 38 39  1  0  0  0
 38 40  1  0  0  0
 38 41  1  0  0  0
 26 30  1  0  0  0
 30 31  1  0  0  0
 31 32  1  0  0  0
 32 33  1  0  0  0
 33 34  1  0  0  0
 33 35  1  0  0  0
 33 36  1  0  0  0
 36 37  1  0  0  0
  7  2  1  0  0  0
 13  8  1  0  0  0
 19 14  1  0  0  0
 29 24  1  0  0  0
 37 30  1  0  0  0
M  END
> <minimizedAffinity>
-8.79940

> <CNNscore>
0.4406737089

> <CNNaffinity>
6.5851845741

> <CNN_VS>
2.9019176960

> <CNNaffinity_variance>
0.0409364216

$$$$
[H]c1c(N2C([H])([H])C([H])([H])OC([H])([H])C2([H])[H])nc(C(F)(F)F)nc1N1C([H])([H])C([H])([H])N(c2c([H])c(N3C([H])([H])C([H])([H])C(F)(F)C([H])([H])C3([H])[H])nc(C(F)(F)F)c2[H])C([H])([H])[C@@]1([H])C([H])([H])[H]


 41 45  0  0  0  0  0  0  0  0999 V2000
  153.3605  134.7918  186.9182 C   0  0  0  0  0  0  0  0  0  0  0  0
  153.2668  136.3196  186.8888 C   0  0  0  0  0  0  0  0  0  0  0  0
  153.4069  136.8413  185.4896 C   0  0  0  0  0  0  0  0  0  0  0  0
  154.4311  137.8115  185.2939 N   0  0  0  0  0  0  0  0  0  0  0  0
  155.5861  137.7799  186.1714 C   0  0  0  0  0  0  0  0  0  0  0  0
  155.0662  137.9675  187.5725 C   0  0  0  0  0  0  0  0  0  0  0  0
  154.1846  136.8520  187.8388 N   0  0  0  0  0  0  0  0  0  0  0  0
  154.2125  136.2788  189.1436 C   0  0  0  0  0  0  0  0  0  0  0  0
  155.0748  135.2234  189.4333 C   0  0  0  0  0  0  0  0  0  0  0  0
  155.0959  134.7147  190.7121 C   0  0  0  0  0  0  0  0  0  0  0  0
  154.2908  135.2362  191.6707 N   0  0  0  0  0  0  0  0  0  0  0  0
  153.4514  136.2622  191.3991 C   0  0  0  0  0  0  0  0  0  0  0  0
  153.4505  136.7347  190.1522 N   0  0  0  0  0  0  0  0  0  0  0  0
  155.9589  133.6413  191.0418 N   0  0  0  0  0  0  0  0  0  0  0  0
  155.4503  132.3663  191.5208 C   0  0  0  0  0  0  0  0  0  0  0  0
  156.4671  131.3227  191.0257 C   0  0  0  0  0  0  0  0  0  0  0  0
  157.6495  131.4497  191.7047 O   0  0  0  0  0  0  0  0  0  0  0  0
  157.9666  132.7735  191.9868 C   0  0  0  0  0  0  0  0  0  0  0  0
  157.4045  133.7355  190.9427 C   0  0  0  0  0  0  0  0  0  0  0  0
  152.5628  136.8811  192.4161 C   0  0  0  0  0  0  0  0  0  0  0  0
  152.5099  136.0047  193.4790 F   0  0  0  0  0  0  0  0  0  0  0  0
  152.9674  138.1469  192.7948 F   0  0  0  0  0  0  0  0  0  0  0  0
  151.2872  136.9017  191.8771 F   0  0  0  0  0  0  0  0  0  0  0  0
  154.4142  138.7912  184.2736 C   0  0  0  0  0  0  0  0  0  0  0  0
  155.4057  139.7373  184.1261 C   0  0  0  0  0  0  0  0  0  0  0  0
  155.3739  140.6797  183.1218 C   0  0  0  0  0  0  0  0  0  0  0  0
  154.3095  140.6173  182.2881 N   0  0  0  0  0  0  0  0  0  0  0  0
  153.3229  139.7118  182.3905 C   0  0  0  0  0  0  0  0  0  0  0  0
  153.3331  138.7621  183.3836 C   0  0  0  0  0  0  0  0  0  0  0  0
  156.3942  141.6437  182.9308 N   0  0  0  0  0  0  0  0  0  0  0  0
  157.7679  141.2002  182.7305 C   0  0  0  0  0  0  0  0  0  0  0  0
  158.0770  141.7495  181.3170 C   0  0  0  0  0  0  0  0  0  0  0  0
  158.1380  143.2493  181.4685 C   0  0  0  0  0  0  0  0  0  0  0  0
  159.1501  143.5876  182.3482 F   0  0  0  0  0  0  0  0  0  0  0  0
  158.4843  143.7824  180.2331 F   0  0  0  0  0  0  0  0  0  0  0  0
  156.7980  143.7844  181.8296 C   0  0  0  0  0  0  0  0  0  0  0  0
  156.0765  143.0461  182.9302 C   0  0  0  0  0  0  0  0  0  0  0  0
  152.2118  139.7083  181.4066 C   0  0  0  0  0  0  0  0  0  0  0  0
  151.0524  139.3205  182.0290 F   0  0  0  0  0  0  0  0  0  0  0  0
  151.9772  140.9306  180.8342 F   0  0  0  0  0  0  0  0  0  0  0  0
  152.5618  138.7557  180.4364 F   0  0  0  0  0  0  0  0  0  0  0  0
  1  2  1  0  0  0
  2  3  1  0  0  0
  3  4  1  0  0  0
  4  5  1  0  0  0
  5  6  1  0  0  0
  6  7  1  0  0  0
  7  8  1  0  0  0
  8  9  2  0  0  0
  9 10  1  0  0  0
 10 11  2  0  0  0
 11 12  1  0  0  0
 12 13  2  0  0  0
 12 20  1  0  0  0
 20 21  1  0  0  0
 20 22  1  0  0  0
 20 23  1  0  0  0
 10 14  1  0  0  0
 14 15  1  0  0  0
 15 16  1  0  0  0
 16 17  1  0  0  0
 17 18  1  0  0  0
 18 19  1  0  0  0
  4 24  1  0  0  0
 24 25  2  0  0  0
 25 26  1  0  0  0
 26 27  2  0  0  0
 27 28  1  0  0  0
 28 29  2  0  0  0
 28 38  1  0  0  0
 38 39  1  0  0  0
 38 40  1  0  0  0
 38 41  1  0  0  0
 26 30  1  0  0  0
 30 31  1  0  0  0
 31 32  1  0  0  0
 32 33  1  0  0  0
 33 34  1  0  0  0
 33 35  1  0  0  0
 33 36  1  0  0  0
 36 37  1  0  0  0
  7  2  1  0  0  0
 13  8  1  0  0  0
 19 14  1  0  0  0
 29 24  1  0  0  0
 37 30  1  0  0  0
M  END
> <minimizedAffinity>
-8.90418

> <CNNscore>
0.4300006926

> <CNNaffinity>
6.7309775352

> <CNN_VS>
2.8943250179

> <CNNaffinity_variance>
0.0343561582

$$$$
[H]c1c(N2C([H])([H])C([H])([H])OC([H])([H])C2([H])[H])nc(C(F)(F)F)nc1N1C([H])([H])C([H])([H])N(c2c([H])c(N3C([H])([H])C([H])([H])C(F)(F)C([H])([H])C3([H])[H])nc(C(F)(F)F)c2[H])C([H])([H])[C@@]1([H])C([H])([H])[H]


 41 45  0  0  0  0  0  0  0  0999 V2000
  154.2711  134.6587  186.9276 C   0  0  0  0  0  0  0  0  0  0  0  0
  153.8964  136.1428  186.9029 C   0  0  0  0  0  0  0  0  0  0  0  0
  154.0597  136.7171  185.5271 C   0  0  0  0  0  0  0  0  0  0  0  0
  154.8976  137.8651  185.4346 N   0  0  0  0  0  0  0  0  0  0  0  0
  155.9559  138.0258  186.4139 C   0  0  0  0  0  0  0  0  0  0  0  0
  155.2882  138.0777  187.7630 C   0  0  0  0  0  0  0  0  0  0  0  0
  154.6108  136.8117  187.9377 N   0  0  0  0  0  0  0  0  0  0  0  0
  154.6298  136.2204  189.2346 C   0  0  0  0  0  0  0  0  0  0  0  0
  153.5007  136.2684  190.0496 C   0  0  0  0  0  0  0  0  0  0  0  0
  153.5460  135.6609  191.2838 C   0  0  0  0  0  0  0  0  0  0  0  0
  154.6717  135.0259  191.6944 N   0  0  0  0  0  0  0  0  0  0  0  0
  155.7725  134.9726  190.9092 C   0  0  0  0  0  0  0  0  0  0  0  0
  155.7014  135.5705  189.7195 N   0  0  0  0  0  0  0  0  0  0  0  0
  152.4174  135.6911  192.1389 N   0  0  0  0  0  0  0  0  0  0  0  0
  152.3712  134.9298  193.3766 C   0  0  0  0  0  0  0  0  0  0  0  0
  151.4825  135.7598  194.3196 C   0  0  0  0  0  0  0  0  0  0  0  0
  150.1800  135.7283  193.8977 O   0  0  0  0  0  0  0  0  0  0  0  0
  150.0647  135.7344  192.5122 C   0  0  0  0  0  0  0  0  0  0  0  0
  151.2254  136.4647  191.8409 C   0  0  0  0  0  0  0  0  0  0  0  0
  157.0236  134.2753  191.3034 C   0  0  0  0  0  0  0  0  0  0  0  0
  157.5433  134.9729  192.3730 F   0  0  0  0  0  0  0  0  0  0  0  0
  156.8345  132.9365  191.5878 F   0  0  0  0  0  0  0  0  0  0  0  0
  157.9240  134.4462  190.2651 F   0  0  0  0  0  0  0  0  0  0  0  0
  154.7881  138.8505  184.4255 C   0  0  0  0  0  0  0  0  0  0  0  0
  155.7211  139.8498  184.2490 C   0  0  0  0  0  0  0  0  0  0  0  0
  155.5993  140.7970  183.2562 C   0  0  0  0  0  0  0  0  0  0  0  0
  154.5078  140.6840  182.4640 N   0  0  0  0  0  0  0  0  0  0  0  0
  153.5758  139.7258  182.5956 C   0  0  0  0  0  0  0  0  0  0  0  0
  153.6759  138.7703  183.5781 C   0  0  0  0  0  0  0  0  0  0  0  0
  156.5583  141.8160  183.0352 N   0  0  0  0  0  0  0  0  0  0  0  0
  157.9769  141.4890  183.1023 C   0  0  0  0  0  0  0  0  0  0  0  0
  158.4497  141.8271  181.6679 C   0  0  0  0  0  0  0  0  0  0  0  0
  158.3701  143.3295  181.5576 C   0  0  0  0  0  0  0  0  0  0  0  0
  159.2100  143.9100  182.4906 F   0  0  0  0  0  0  0  0  0  0  0  0
  158.8544  143.6849  180.3048 F   0  0  0  0  0  0  0  0  0  0  0  0
  156.9536  143.7764  181.6356 C   0  0  0  0  0  0  0  0  0  0  0  0
  156.1356  143.1591  182.7433 C   0  0  0  0  0  0  0  0  0  0  0  0
  152.4286  139.6703  181.6557 C   0  0  0  0  0  0  0  0  0  0  0  0
  152.7102  138.7878  180.6437 F   0  0  0  0  0  0  0  0  0  0  0  0
  151.2574  139.2621  182.2374 F   0  0  0  0  0  0  0  0  0  0  0  0
  152.3044  140.9643  181.1254 F   0  0  0  0  0  0  0  0  0  0  0  0
  1  2  1  0  0  0
  2  3  1  0  0  0
  3  4  1  0  0  0
  4  5  1  0  0  0
  5  6  1  0  0  0
  6  7  1  0  0  0
  7  8  1  0  0  0
  8  9  2  0  0  0
  9 10  1  0  0  0
 10 11  2  0  0  0
 11 12  1  0  0  0
 12 13  2  0  0  0
 12 20  1  0  0  0
 20 21  1  0  0  0
 20 22  1  0  0  0
 20 23  1  0  0  0
 10 14  1  0  0  0
 14 15  1  0  0  0
 15 16  1  0  0  0
 16 17  1  0  0  0
 17 18  1  0  0  0
 18 19  1  0  0  0
  4 24  1  0  0  0
 24 25  2  0  0  0
 25 26  1  0  0  0
 26 27  2  0  0  0
 27 28  1  0  0  0
 28 29  2  0  0  0
 28 38  1  0  0  0
 38 39  1  0  0  0
 38 40  1  0  0  0
 38 41  1  0  0  0
 26 30  1  0  0  0
 30 31  1  0  0  0
 31 32  1  0  0  0
 32 33  1  0  0  0
 33 34  1  0  0  0
 33 35  1  0  0  0
 33 36  1  0  0  0
 36 37  1  0  0  0
  7  2  1  0  0  0
 13  8  1  0  0  0
 19 14  1  0  0  0
 29 24  1  0  0  0
 37 30  1  0  0  0
M  END
> <minimizedAffinity>
-9.41279

> <CNNscore>
0.3880395889

> <CNNaffinity>
6.6841559410

> <CNN_VS>
2.5937170982

> <CNNaffinity_variance>
0.0207310468

$$$$
[H]c1c(N2C([H])([H])C([H])([H])OC([H])([H])C2([H])[H])nc(C(F)(F)F)nc1N1C([H])([H])C([H])([H])N(c2c([H])c(N3C([H])([H])C([H])([H])C(F)(F)C([H])([H])C3([H])[H])nc(C(F)(F)F)c2[H])C([H])([H])[C@@]1([H])C([H])([H])[H]


 41 45  0  0  0  0  0  0  0  0999 V2000
  151.5060  136.8712  188.4107 C   0  0  0  0  0  0  0  0  0  0  0  0
  152.7335  137.6219  187.8881 C   0  0  0  0  0  0  0  0  0  0  0  0
  152.4582  138.2391  186.5491 C   0  0  0  0  0  0  0  0  0  0  0  0
  153.3658  137.8858  185.5100 N   0  0  0  0  0  0  0  0  0  0  0  0
  154.0362  136.6015  185.5885 C   0  0  0  0  0  0  0  0  0  0  0  0
  154.8210  136.6047  186.8740 C   0  0  0  0  0  0  0  0  0  0  0  0
  153.8596  136.7517  187.9447 N   0  0  0  0  0  0  0  0  0  0  0  0
  154.0771  136.0077  189.1409 C   0  0  0  0  0  0  0  0  0  0  0  0
  153.2287  134.9568  189.4834 C   0  0  0  0  0  0  0  0  0  0  0  0
  153.4869  134.2415  190.6306 C   0  0  0  0  0  0  0  0  0  0  0  0
  154.5509  134.5566  191.4101 N   0  0  0  0  0  0  0  0  0  0  0  0
  155.3813  135.5744  191.0847 C   0  0  0  0  0  0  0  0  0  0  0  0
  155.1070  136.2511  189.9690 N   0  0  0  0  0  0  0  0  0  0  0  0
  152.6449  133.1679  191.0101 N   0  0  0  0  0  0  0  0  0  0  0  0
  151.4196  133.3819  191.7628 C   0  0  0  0  0  0  0  0  0  0  0  0
  150.4746  132.2547  191.3107 C   0  0  0  0  0  0  0  0  0  0  0  0
  150.9124  131.0468  191.7848 O   0  0  0  0  0  0  0  0  0  0  0  0
  152.2989  130.9445  191.7935 C   0  0  0  0  0  0  0  0  0  0  0  0
  152.9451  131.7831  190.6932 C   0  0  0  0  0  0  0  0  0  0  0  0
  156.5697  135.9489  191.8935 C   0  0  0  0  0  0  0  0  0  0  0  0
  157.5335  134.9954  191.6426 F   0  0  0  0  0  0  0  0  0  0  0  0
  157.0177  137.2315  191.6418 F   0  0  0  0  0  0  0  0  0  0  0  0
  156.2174  135.7917  193.2235 F   0  0  0  0  0  0  0  0  0  0  0  0
  153.6359  138.6941  184.3809 C   0  0  0  0  0  0  0  0  0  0  0  0
  154.7185  139.5444  184.3091 C   0  0  0  0  0  0  0  0  0  0  0  0
  154.9675  140.3192  183.1977 C   0  0  0  0  0  0  0  0  0  0  0  0
  154.0841  140.1920  182.1801 N   0  0  0  0  0  0  0  0  0  0  0  0
  153.0188  139.3743  182.2035 C   0  0  0  0  0  0  0  0  0  0  0  0
  152.7502  138.5919  183.3007 C   0  0  0  0  0  0  0  0  0  0  0  0
  156.0882  141.1787  183.0872 N   0  0  0  0  0  0  0  0  0  0  0  0
  157.2677  140.9235  183.9041 C   0  0  0  0  0  0  0  0  0  0  0  0
  158.3512  140.6697  182.8283 C   0  0  0  0  0  0  0  0  0  0  0  0
  158.5825  142.0034  182.1623 C   0  0  0  0  0  0  0  0  0  0  0  0
  159.0359  142.9176  183.0957 F   0  0  0  0  0  0  0  0  0  0  0  0
  159.6024  141.8377  181.2336 F   0  0  0  0  0  0  0  0  0  0  0  0
  157.3639  142.4263  181.4215 C   0  0  0  0  0  0  0  0  0  0  0  0
  156.0633  142.2896  182.1745 C   0  0  0  0  0  0  0  0  0  0  0  0
  152.1244  139.2846  181.0226 C   0  0  0  0  0  0  0  0  0  0  0  0
  151.8491  140.5471  180.5618 F   0  0  0  0  0  0  0  0  0  0  0  0
  152.6585  138.5776  179.9778 F   0  0  0  0  0  0  0  0  0  0  0  0
  150.9402  138.6873  181.4830 F   0  0  0  0  0  0  0  0  0  0  0  0
  1  2  1  0  0  0
  2  3  1  0  0  0
  3  4  1  0  0  0
  4  5  1  0  0  0
  5  6  1  0  0  0
  6  7  1  0  0  0
  7  8  1  0  0  0
  8  9  2  0  0  0
  9 10  1  0  0  0
 10 11  2  0  0  0
 11 12  1  0  0  0
 12 13  2  0  0  0
 12 20  1  0  0  0
 20 21  1  0  0  0
 20 22  1  0  0  0
 20 23  1  0  0  0
 10 14  1  0  0  0
 14 15  1  0  0  0
 15 16  1  0  0  0
 16 17  1  0  0  0
 17 18  1  0  0  0
 18 19  1  0  0  0
  4 24  1  0  0  0
 24 25  2  0  0  0
 25 26  1  0  0  0
 26 27  2  0  0  0
 27 28  1  0  0  0
 28 29  2  0  0  0
 28 38  1  0  0  0
 38 39  1  0  0  0
 38 40  1  0  0  0
 38 41  1  0  0  0
 26 30  1  0  0  0
 30 31  1  0  0  0
 31 32  1  0  0  0
 32 33  1  0  0  0
 33 34  1  0  0  0
 33 35  1  0  0  0
 33 36  1  0  0  0
 36 37  1  0  0  0
  7  2  1  0  0  0
 13  8  1  0  0  0
 19 14  1  0  0  0
 29 24  1  0  0  0
 37 30  1  0  0  0
M  END
> <minimizedAffinity>
-7.52747

> <CNNscore>
0.3744306564

> <CNNaffinity>
6.7325043678

> <CNN_VS>
2.5208561420

> <CNNaffinity_variance>
0.2448123395

$$$$
[H]c1c(N2C([H])([H])C([H])([H])OC([H])([H])C2([H])[H])nc(C(F)(F)F)nc1N1C([H])([H])C([H])([H])N(c2c([H])c(N3C([H])([H])C([H])([H])C(F)(F)C([H])([H])C3([H])[H])nc(C(F)(F)F)c2[H])C([H])([H])[C@@]1([H])C([H])([H])[H]


 41 45  0  0  0  0  0  0  0  0999 V2000
  153.3861  134.7132  187.1113 C   0  0  0  0  0  0  0  0  0  0  0  0
  152.7276  135.9943  186.5928 C   0  0  0  0  0  0  0  0  0  0  0  0
  153.4375  136.5112  185.3770 C   0  0  0  0  0  0  0  0  0  0  0  0
  153.8876  137.8603  185.4538 N   0  0  0  0  0  0  0  0  0  0  0  0
  154.2015  138.4080  186.7602 C   0  0  0  0  0  0  0  0  0  0  0  0
  152.9394  138.3195  187.5774 C   0  0  0  0  0  0  0  0  0  0  0  0
  152.6066  136.9151  187.6727 N   0  0  0  0  0  0  0  0  0  0  0  0
  152.0910  136.4361  188.9123 C   0  0  0  0  0  0  0  0  0  0  0  0
  150.9041  135.7073  188.9495 C   0  0  0  0  0  0  0  0  0  0  0  0
  150.4520  135.2353  190.1607 C   0  0  0  0  0  0  0  0  0  0  0  0
  151.1541  135.4763  191.2956 N   0  0  0  0  0  0  0  0  0  0  0  0
  152.3086  136.1817  191.2692 C   0  0  0  0  0  0  0  0  0  0  0  0
  152.7226  136.6280  190.0828 N   0  0  0  0  0  0  0  0  0  0  0  0
  149.2489  134.4920  190.2360 N   0  0  0  0  0  0  0  0  0  0  0  0
  148.0512  134.8944  189.5168 C   0  0  0  0  0  0  0  0  0  0  0  0
  147.3194  133.5789  189.1978 C   0  0  0  0  0  0  0  0  0  0  0  0
  146.8115  133.0262  190.3432 O   0  0  0  0  0  0  0  0  0  0  0  0
  147.6442  133.2081  191.4416 C   0  0  0  0  0  0  0  0  0  0  0  0
  149.1154  133.2912  191.0414 C   0  0  0  0  0  0  0  0  0  0  0  0
  153.1245  136.4580  192.4795 C   0  0  0  0  0  0  0  0  0  0  0  0
  152.7369  135.5416  193.4337 F   0  0  0  0  0  0  0  0  0  0  0  0
  154.4846  136.4262  192.2384 F   0  0  0  0  0  0  0  0  0  0  0  0
  152.7279  137.6955  192.9583 F   0  0  0  0  0  0  0  0  0  0  0  0
  154.0820  138.6991  184.3315 C   0  0  0  0  0  0  0  0  0  0  0  0
  155.2334  139.4305  184.1325 C   0  0  0  0  0  0  0  0  0  0  0  0
  155.4058  140.2374  183.0294 C   0  0  0  0  0  0  0  0  0  0  0  0
  154.3753  140.2655  182.1525 N   0  0  0  0  0  0  0  0  0  0  0  0
  153.2376  139.5675  182.3023 C   0  0  0  0  0  0  0  0  0  0  0  0
  153.0430  138.7560  183.3941 C   0  0  0  0  0  0  0  0  0  0  0  0
  156.5901  140.9760  182.7868 N   0  0  0  0  0  0  0  0  0  0  0  0
  157.8803  140.3026  182.8619 C   0  0  0  0  0  0  0  0  0  0  0  0
  158.4161  140.4796  181.4207 C   0  0  0  0  0  0  0  0  0  0  0  0
  158.7182  141.9507  181.2776 C   0  0  0  0  0  0  0  0  0  0  0  0
  159.6821  142.3198  182.1981 F   0  0  0  0  0  0  0  0  0  0  0  0
  159.2703  142.1454  180.0176 F   0  0  0  0  0  0  0  0  0  0  0  0
  157.4610  142.7427  181.3450 C   0  0  0  0  0  0  0  0  0  0  0  0
  156.5191  142.3758  182.4654 C   0  0  0  0  0  0  0  0  0  0  0  0
  152.1768  139.6436  181.2673 C   0  0  0  0  0  0  0  0  0  0  0  0
  152.0599  140.9380  180.8280 F   0  0  0  0  0  0  0  0  0  0  0  0
  152.4197  138.8616  180.1690 F   0  0  0  0  0  0  0  0  0  0  0  0
  150.9880  139.2590  181.9076 F   0  0  0  0  0  0  0  0  0  0  0  0
  1  2  1  0  0  0
  2  3  1  0  0  0
  3  4  1  0  0  0
  4  5  1  0  0  0
  5  6  1  0  0  0
  6  7  1  0  0  0
  7  8  1  0  0  0
  8  9  2  0  0  0
  9 10  1  0  0  0
 10 11  2  0  0  0
 11 12  1  0  0  0
 12 13  2  0  0  0
 12 20  1  0  0  0
 20 21  1  0  0  0
 20 22  1  0  0  0
 20 23  1  0  0  0
 10 14  1  0  0  0
 14 15  1  0  0  0
 15 16  1  0  0  0
 16 17  1  0  0  0
 17 18  1  0  0  0
 18 19  1  0  0  0
  4 24  1  0  0  0
 24 25  2  0  0  0
 25 26  1  0  0  0
 26 27  2  0  0  0
 27 28  1  0  0  0
 28 29  2  0  0  0
 28 38  1  0  0  0
 38 39  1  0  0  0
 38 40  1  0  0  0
 38 41  1  0  0  0
 26 30  1  0  0  0
 30 31  1  0  0  0
 31 32  1  0  0  0
 32 33  1  0  0  0
 33 34  1  0  0  0
 33 35  1  0  0  0
 33 36  1  0  0  0
 36 37  1  0  0  0
  7  2  1  0  0  0
 13  8  1  0  0  0
 19 14  1  0  0  0
 29 24  1  0  0  0
 37 30  1  0  0  0
M  END
> <minimizedAffinity>
-8.89240

> <CNNscore>
0.3688201606

> <CNNaffinity>
6.6861944199

> <CNN_VS>
2.4660034180

> <CNNaffinity_variance>
0.1092662811

$$$$
[H]c1c(N2C([H])([H])C([H])([H])OC([H])([H])C2([H])[H])nc(C(F)(F)F)nc1N1C([H])([H])C([H])([H])N(c2c([H])c(N3C([H])([H])C([H])([H])C(F)(F)C([H])([H])C3([H])[H])nc(C(F)(F)F)c2[H])C([H])([H])[C@@]1([H])C([H])([H])[H]


 41 45  0  0  0  0  0  0  0  0999 V2000
  155.0638  134.5987  186.3787 C   0  0  0  0  0  0  0  0  0  0  0  0
  154.1253  135.8077  186.3407 C   0  0  0  0  0  0  0  0  0  0  0  0
  154.0779  136.4102  184.9681 C   0  0  0  0  0  0  0  0  0  0  0  0
  154.3862  137.7987  184.8941 N   0  0  0  0  0  0  0  0  0  0  0  0
  155.2667  138.3629  185.8998 C   0  0  0  0  0  0  0  0  0  0  0  0
  154.6016  138.1317  187.2313 C   0  0  0  0  0  0  0  0  0  0  0  0
  154.4855  136.6989  187.3918 N   0  0  0  0  0  0  0  0  0  0  0  0
  154.7087  136.1546  188.6902 C   0  0  0  0  0  0  0  0  0  0  0  0
  155.7383  135.2409  188.9058 C   0  0  0  0  0  0  0  0  0  0  0  0
  155.9431  134.7591  190.1787 C   0  0  0  0  0  0  0  0  0  0  0  0
  155.1550  135.1708  191.2026 N   0  0  0  0  0  0  0  0  0  0  0  0
  154.1537  136.0591  191.0031 C   0  0  0  0  0  0  0  0  0  0  0  0
  153.9769  136.5085  189.7603 N   0  0  0  0  0  0  0  0  0  0  0  0
  156.9794  133.8283  190.4342 N   0  0  0  0  0  0  0  0  0  0  0  0
  157.8254  133.9252  191.6126 C   0  0  0  0  0  0  0  0  0  0  0  0
  158.2086  132.4727  191.9461 C   0  0  0  0  0  0  0  0  0  0  0  0
  159.0654  131.9765  191.0001 O   0  0  0  0  0  0  0  0  0  0  0  0
  158.7714  132.4302  189.7193 C   0  0  0  0  0  0  0  0  0  0  0  0
  157.2840  132.7254  189.5402 C   0  0  0  0  0  0  0  0  0  0  0  0
  153.2740  136.5558  192.0922 C   0  0  0  0  0  0  0  0  0  0  0  0
  153.5284  135.7680  193.1946 F   0  0  0  0  0  0  0  0  0  0  0  0
  153.4404  137.9021  192.3554 F   0  0  0  0  0  0  0  0  0  0  0  0
  151.9709  136.2745  191.7171 F   0  0  0  0  0  0  0  0  0  0  0  0
  153.9150  138.6653  183.8802 C   0  0  0  0  0  0  0  0  0  0  0  0
  153.0258  138.2655  182.9057 C   0  0  0  0  0  0  0  0  0  0  0  0
  152.5741  139.1267  181.9300 C   0  0  0  0  0  0  0  0  0  0  0  0
  153.0562  140.3900  181.9892 N   0  0  0  0  0  0  0  0  0  0  0  0
  153.9196  140.8253  182.9215 C   0  0  0  0  0  0  0  0  0  0  0  0
  154.3838  139.9848  183.9046 C   0  0  0  0  0  0  0  0  0  0  0  0
  151.6386  138.7492  180.9354 N   0  0  0  0  0  0  0  0  0  0  0  0
  150.7697  137.6029  181.1699 C   0  0  0  0  0  0  0  0  0  0  0  0
  149.3658  138.2528  181.1227 C   0  0  0  0  0  0  0  0  0  0  0  0
  149.1522  138.6540  179.6842 C   0  0  0  0  0  0  0  0  0  0  0  0
  149.1904  137.5315  178.8771 F   0  0  0  0  0  0  0  0  0  0  0  0
  147.8705  139.1799  179.5808 F   0  0  0  0  0  0  0  0  0  0  0  0
  150.1103  139.7256  179.3017 C   0  0  0  0  0  0  0  0  0  0  0  0
  151.5447  139.4927  179.7081 C   0  0  0  0  0  0  0  0  0  0  0  0
  154.3669  142.2403  182.9178 C   0  0  0  0  0  0  0  0  0  0  0  0
  153.3046  143.0538  182.6148 F   0  0  0  0  0  0  0  0  0  0  0  0
  154.8733  142.6626  184.1187 F   0  0  0  0  0  0  0  0  0  0  0  0
  155.3316  142.3348  181.9021 F   0  0  0  0  0  0  0  0  0  0  0  0
  1  2  1  0  0  0
  2  3  1  0  0  0
  3  4  1  0  0  0
  4  5  1  0  0  0
  5  6  1  0  0  0
  6  7  1  0  0  0
  7  8  1  0  0  0
  8  9  2  0  0  0
  9 10  1  0  0  0
 10 11  2  0  0  0
 11 12  1  0  0  0
 12 13  2  0  0  0
 12 20  1  0  0  0
 20 21  1  0  0  0
 20 22  1  0  0  0
 20 23  1  0  0  0
 10 14  1  0  0  0
 14 15  1  0  0  0
 15 16  1  0  0  0
 16 17  1  0  0  0
 17 18  1  0  0  0
 18 19  1  0  0  0
  4 24  1  0  0  0
 24 25  2  0  0  0
 25 26  1  0  0  0
 26 27  2  0  0  0
 27 28  1  0  0  0
 28 29  2  0  0  0
 28 38  1  0  0  0
 38 39  1  0  0  0
 38 40  1  0  0  0
 38 41  1  0  0  0
 26 30  1  0  0  0
 30 31  1  0  0  0
 31 32  1  0  0  0
 32 33  1  0  0  0
 33 34  1  0  0  0
 33 35  1  0  0  0
 33 36  1  0  0  0
 36 37  1  0  0  0
  7  2  1  0  0  0
 13  8  1  0  0  0
 19 14  1  0  0  0
 29 24  1  0  0  0
 37 30  1  0  0  0
M  END
> <minimizedAffinity>
-8.59461

> <CNNscore>
0.3675338626

> <CNNaffinity>
6.5206975937

> <CNN_VS>
2.3965771198

> <CNNaffinity_variance>
0.0374754854

$$$$
[H]c1c(N2C([H])([H])C([H])([H])OC([H])([H])C2([H])[H])nc(C(F)(F)F)nc1N1C([H])([H])C([H])([H])N(c2c([H])c(N3C([H])([H])C([H])([H])C(F)(F)C([H])([H])C3([H])[H])nc(C(F)(F)F)c2[H])C([H])([H])[C@@]1([H])C([H])([H])[H]


 41 45  0  0  0  0  0  0  0  0999 V2000
  150.8652  134.5035  188.6082 C   0  0  0  0  0  0  0  0  0  0  0  0
  151.1053  135.6498  187.6223 C   0  0  0  0  0  0  0  0  0  0  0  0
  150.8429  135.2117  186.2121 C   0  0  0  0  0  0  0  0  0  0  0  0
  151.9141  135.4133  185.2954 N   0  0  0  0  0  0  0  0  0  0  0  0
  153.2704  135.4132  185.8105 C   0  0  0  0  0  0  0  0  0  0  0  0
  153.3450  136.5253  186.8235 C   0  0  0  0  0  0  0  0  0  0  0  0
  152.3967  136.1990  187.8659 N   0  0  0  0  0  0  0  0  0  0  0  0
  152.7661  136.4809  189.2134 C   0  0  0  0  0  0  0  0  0  0  0  0
  152.0670  135.9058  190.2726 C   0  0  0  0  0  0  0  0  0  0  0  0
  152.4706  136.1772  191.5602 C   0  0  0  0  0  0  0  0  0  0  0  0
  153.5322  136.9894  191.7890 N   0  0  0  0  0  0  0  0  0  0  0  0
  154.2182  137.5511  190.7668 C   0  0  0  0  0  0  0  0  0  0  0  0
  153.8050  137.2722  189.5301 N   0  0  0  0  0  0  0  0  0  0  0  0
  151.7825  135.6110  192.6610 N   0  0  0  0  0  0  0  0  0  0  0  0
  150.5967  136.2327  193.2276 C   0  0  0  0  0  0  0  0  0  0  0  0
  149.7544  135.0627  193.7657 C   0  0  0  0  0  0  0  0  0  0  0  0
  150.3566  134.5069  194.8628 O   0  0  0  0  0  0  0  0  0  0  0  0
  151.7430  134.4867  194.7612 C   0  0  0  0  0  0  0  0  0  0  0  0
  152.2128  134.3865  193.3119 C   0  0  0  0  0  0  0  0  0  0  0  0
  155.3979  138.4326  190.9620 C   0  0  0  0  0  0  0  0  0  0  0  0
  155.9769  138.5967  189.7216 F   0  0  0  0  0  0  0  0  0  0  0  0
  155.0844  139.6371  191.5621 F   0  0  0  0  0  0  0  0  0  0  0  0
  156.3135  137.7185  191.7168 F   0  0  0  0  0  0  0  0  0  0  0  0
  151.7465  135.5824  183.9009 C   0  0  0  0  0  0  0  0  0  0  0  0
  151.3250  136.7663  183.3346 C   0  0  0  0  0  0  0  0  0  0  0  0
  151.1736  136.9127  181.9732 C   0  0  0  0  0  0  0  0  0  0  0  0
  151.4665  135.8224  181.2266 N   0  0  0  0  0  0  0  0  0  0  0  0
  151.8841  134.6508  181.7335 C   0  0  0  0  0  0  0  0  0  0  0  0
  152.0427  134.4811  183.0879 C   0  0  0  0  0  0  0  0  0  0  0  0
  150.7703  138.1265  181.3642 N   0  0  0  0  0  0  0  0  0  0  0  0
  151.5637  139.3305  181.5760 C   0  0  0  0  0  0  0  0  0  0  0  0
  152.0110  139.6746  180.1348 C   0  0  0  0  0  0  0  0  0  0  0  0
  150.7605  140.1171  179.4162 C   0  0  0  0  0  0  0  0  0  0  0  0
  150.2375  141.2362  180.0379 F   0  0  0  0  0  0  0  0  0  0  0  0
  151.1280  140.5046  178.1337 F   0  0  0  0  0  0  0  0  0  0  0  0
  149.8115  138.9789  179.2875 C   0  0  0  0  0  0  0  0  0  0  0  0
  149.5916  138.1689  180.5416 C   0  0  0  0  0  0  0  0  0  0  0  0
  152.2085  133.5217  180.8266 C   0  0  0  0  0  0  0  0  0  0  0  0
  151.2041  133.3747  179.9037 F   0  0  0  0  0  0  0  0  0  0  0  0
  153.3776  133.6894  180.1324 F   0  0  0  0  0  0  0  0  0  0  0  0
  152.2647  132.3796  181.6411 F   0  0  0  0  0  0  0  0  0  0  0  0
  1  2  1  0  0  0
  2  3  1  0  0  0
  3  4  1  0  0  0
  4  5  1  0  0  0
  5  6  1  0  0  0
  6  7  1  0  0  0
  7  8  1  0  0  0
  8  9  2  0  0  0
  9 10  1  0  0  0
 10 11  2  0  0  0
 11 12  1  0  0  0
 12 13  2  0  0  0
 12 20  1  0  0  0
 20 21  1  0  0  0
 20 22  1  0  0  0
 20 23  1  0  0  0
 10 14  1  0  0  0
 14 15  1  0  0  0
 15 16  1  0  0  0
 16 17  1  0  0  0
 17 18  1  0  0  0
 18 19  1  0  0  0
  4 24  1  0  0  0
 24 25  2  0  0  0
 25 26  1  0  0  0
 26 27  2  0  0  0
 27 28  1  0  0  0
 28 29  2  0  0  0
 28 38  1  0  0  0
 38 39  1  0  0  0
 38 40  1  0  0  0
 38 41  1  0  0  0
 26 30  1  0  0  0
 30 31  1  0  0  0
 31 32  1  0  0  0
 32 33  1  0  0  0
 33 34  1  0  0  0
 33 35  1  0  0  0
 33 36  1  0  0  0
 36 37  1  0  0  0
  7  2  1  0  0  0
 13  8  1  0  0  0
 19 14  1  0  0  0
 29 24  1  0  0  0
 37 30  1  0  0  0
M  END
> <minimizedAffinity>
-7.52450

> <CNNscore>
0.3214010894

> <CNNaffinity>
6.2670450211

> <CNN_VS>
2.0142350197

> <CNNaffinity_variance>
0.0344741158

$$$$
[H]c1c(N2C([H])([H])C([H])([H])OC([H])([H])C2([H])[H])nc(C(F)(F)F)nc1N1C([H])([H])C([H])([H])N(c2c([H])c(N3C([H])([H])C([H])([H])C(F)(F)C([H])([H])C3([H])[H])nc(C(F)(F)F)c2[H])C([H])([H])[C@@]1([H])C([H])([H])[H]


 41 45  0  0  0  0  0  0  0  0999 V2000
  153.0992  137.9662  184.8614 C   0  0  0  0  0  0  0  0  0  0  0  0
  153.8946  138.3680  183.6166 C   0  0  0  0  0  0  0  0  0  0  0  0
  155.1492  139.0995  183.9915 C   0  0  0  0  0  0  0  0  0  0  0  0
  155.3164  140.3813  183.3938 N   0  0  0  0  0  0  0  0  0  0  0  0
  154.1292  141.1281  183.0225 C   0  0  0  0  0  0  0  0  0  0  0  0
  153.3788  140.2769  182.0321 C   0  0  0  0  0  0  0  0  0  0  0  0
  153.0259  139.0551  182.7213 N   0  0  0  0  0  0  0  0  0  0  0  0
  151.7453  138.4879  182.4563 C   0  0  0  0  0  0  0  0  0  0  0  0
  151.0909  137.7354  183.4294 C   0  0  0  0  0  0  0  0  0  0  0  0
  149.8425  137.2282  183.1488 C   0  0  0  0  0  0  0  0  0  0  0  0
  149.2626  137.4611  181.9453 N   0  0  0  0  0  0  0  0  0  0  0  0
  149.8897  138.1921  180.9947 C   0  0  0  0  0  0  0  0  0  0  0  0
  151.0983  138.6701  181.2927 N   0  0  0  0  0  0  0  0  0  0  0  0
  149.1488  136.4579  184.1137 N   0  0  0  0  0  0  0  0  0  0  0  0
  149.6622  136.2714  185.4611 C   0  0  0  0  0  0  0  0  0  0  0  0
  148.4113  136.1239  186.3451 C   0  0  0  0  0  0  0  0  0  0  0  0
  147.7872  134.9314  186.0928 O   0  0  0  0  0  0  0  0  0  0  0  0
  147.8396  134.5719  184.7508 C   0  0  0  0  0  0  0  0  0  0  0  0
  147.8917  135.7889  183.8302 C   0  0  0  0  0  0  0  0  0  0  0  0
  149.2918  138.4914  179.6682 C   0  0  0  0  0  0  0  0  0  0  0  0
  148.0810  139.1044  179.9108 F   0  0  0  0  0  0  0  0  0  0  0  0
  150.1150  139.2502  178.8584 F   0  0  0  0  0  0  0  0  0  0  0  0
  148.9901  137.2750  179.0789 F   0  0  0  0  0  0  0  0  0  0  0  0
  156.5704  140.9950  183.1653 C   0  0  0  0  0  0  0  0  0  0  0  0
  157.5293  141.1292  184.1463 C   0  0  0  0  0  0  0  0  0  0  0  0
  158.7472  141.7249  183.9020 C   0  0  0  0  0  0  0  0  0  0  0  0
  158.9440  142.1681  182.6384 N   0  0  0  0  0  0  0  0  0  0  0  0
  158.0415  142.0554  181.6500 C   0  0  0  0  0  0  0  0  0  0  0  0
  156.8203  141.4650  181.8698 C   0  0  0  0  0  0  0  0  0  0  0  0
  159.7604  141.8490  184.8843 N   0  0  0  0  0  0  0  0  0  0  0  0
  161.1379  142.0751  184.4655 C   0  0  0  0  0  0  0  0  0  0  0  0
  161.4452  143.4483  185.1100 C   0  0  0  0  0  0  0  0  0  0  0  0
  161.4943  143.1973  186.5967 C   0  0  0  0  0  0  0  0  0  0  0  0
  162.5022  142.2947  186.8836 F   0  0  0  0  0  0  0  0  0  0  0  0
  161.8388  144.3937  187.2134 F   0  0  0  0  0  0  0  0  0  0  0  0
  160.1495  142.8046  187.0965 C   0  0  0  0  0  0  0  0  0  0  0  0
  159.4317  141.7572  186.2812 C   0  0  0  0  0  0  0  0  0  0  0  0
  158.3651  142.5478  180.2879 C   0  0  0  0  0  0  0  0  0  0  0  0
  157.7776  143.7723  180.0939 F   0  0  0  0  0  0  0  0  0  0  0  0
  159.7074  142.6998  180.0601 F   0  0  0  0  0  0  0  0  0  0  0  0
  157.8050  141.6156  179.4000 F   0  0  0  0  0  0  0  0  0  0  0  0
  1  2  1  0  0  0
  2  3  1  0  0  0
  3  4  1  0  0  0
  4  5  1  0  0  0
  5  6  1  0  0  0
  6  7  1  0  0  0
  7  8  1  0  0  0
  8  9  2  0  0  0
  9 10  1  0  0  0
 10 11  2  0  0  0
 11 12  1  0  0  0
 12 13  2  0  0  0
 12 20  1  0  0  0
 20 21  1  0  0  0
 20 22  1  0  0  0
 20 23  1  0  0  0
 10 14  1  0  0  0
 14 15  1  0  0  0
 15 16  1  0  0  0
 16 17  1  0  0  0
 17 18  1  0  0  0
 18 19  1  0  0  0
  4 24  1  0  0  0
 24 25  2  0  0  0
 25 26  1  0  0  0
 26 27  2  0  0  0
 27 28  1  0  0  0
 28 29  2  0  0  0
 28 38  1  0  0  0
 38 39  1  0  0  0
 38 40  1  0  0  0
 38 41  1  0  0  0
 26 30  1  0  0  0
 30 31  1  0  0  0
 31 32  1  0  0  0
 32 33  1  0  0  0
 33 34  1  0  0  0
 33 35  1  0  0  0
 33 36  1  0  0  0
 36 37  1  0  0  0
  7  2  1  0  0  0
 13  8  1  0  0  0
 19 14  1  0  0  0
 29 24  1  0  0  0
 37 30  1  0  0  0
M  END
> <minimizedAffinity>
-10.65742

> <CNNscore>
0.3103173375

> <CNNaffinity>
7.0324430466

> <CNN_VS>
2.1822888851

> <CNNaffinity_variance>
0.1251460910

$$$$
[H]c1c(N2C([H])([H])C([H])([H])OC([H])([H])C2([H])[H])nc(C(F)(F)F)nc1N1C([H])([H])C([H])([H])N(c2c([H])c(N3C([H])([H])C([H])([H])C(F)(F)C([H])([H])C3([H])[H])nc(C(F)(F)F)c2[H])C([H])([H])[C@@]1([H])C([H])([H])[H]


 41 45  0  0  0  0  0  0  0  0999 V2000
  154.4908  135.1671  187.5240 C   0  0  0  0  0  0  0  0  0  0  0  0
  153.4001  135.9010  186.7396 C   0  0  0  0  0  0  0  0  0  0  0  0
  153.9668  136.5629  185.5189 C   0  0  0  0  0  0  0  0  0  0  0  0
  153.7140  137.9597  185.4025 N   0  0  0  0  0  0  0  0  0  0  0  0
  153.5243  138.7287  186.6180 C   0  0  0  0  0  0  0  0  0  0  0  0
  152.3398  138.1262  187.3268 C   0  0  0  0  0  0  0  0  0  0  0  0
  152.6932  136.7572  187.6317 N   0  0  0  0  0  0  0  0  0  0  0  0
  152.2739  136.2253  188.8860 C   0  0  0  0  0  0  0  0  0  0  0  0
  151.3391  135.1935  188.9388 C   0  0  0  0  0  0  0  0  0  0  0  0
  150.9800  134.6846  190.1662 C   0  0  0  0  0  0  0  0  0  0  0  0
  151.5306  135.1809  191.3018 N   0  0  0  0  0  0  0  0  0  0  0  0
  152.4404  136.1818  191.2603 C   0  0  0  0  0  0  0  0  0  0  0  0
  152.7690  136.6567  190.0584 N   0  0  0  0  0  0  0  0  0  0  0  0
  150.0320  133.6364  190.2576 N   0  0  0  0  0  0  0  0  0  0  0  0
  148.7857  133.7899  190.9904 C   0  0  0  0  0  0  0  0  0  0  0  0
  147.7803  132.8852  190.2565 C   0  0  0  0  0  0  0  0  0  0  0  0
  148.0889  131.5666  190.4597 O   0  0  0  0  0  0  0  0  0  0  0  0
  149.4594  131.3364  190.4995 C   0  0  0  0  0  0  0  0  0  0  0  0
  150.2363  132.3356  189.6456 C   0  0  0  0  0  0  0  0  0  0  0  0
  153.0864  136.7486  192.4719 C   0  0  0  0  0  0  0  0  0  0  0  0
  152.1585  137.5814  193.0603 F   0  0  0  0  0  0  0  0  0  0  0  0
  153.5556  135.7827  193.3414 F   0  0  0  0  0  0  0  0  0  0  0  0
  154.1111  137.5711  192.0344 F   0  0  0  0  0  0  0  0  0  0  0  0
  153.6672  138.6599  184.1742 C   0  0  0  0  0  0  0  0  0  0  0  0
  152.7838  138.3441  183.1643 C   0  0  0  0  0  0  0  0  0  0  0  0
  152.7499  139.0423  181.9772 C   0  0  0  0  0  0  0  0  0  0  0  0
  153.6366  140.0587  181.8655 N   0  0  0  0  0  0  0  0  0  0  0  0
  154.5121  140.4052  182.8233 C   0  0  0  0  0  0  0  0  0  0  0  0
  154.5642  139.7237  184.0155 C   0  0  0  0  0  0  0  0  0  0  0  0
  151.8329  138.7569  180.9359 N   0  0  0  0  0  0  0  0  0  0  0  0
  150.9692  137.5881  181.0448 C   0  0  0  0  0  0  0  0  0  0  0  0
  149.5612  138.2309  181.0377 C   0  0  0  0  0  0  0  0  0  0  0  0
  149.3669  138.7678  179.6413 C   0  0  0  0  0  0  0  0  0  0  0  0
  149.4261  137.7287  178.7305 F   0  0  0  0  0  0  0  0  0  0  0  0
  148.0830  139.2934  179.5684 F   0  0  0  0  0  0  0  0  0  0  0  0
  150.3226  139.8771  179.3794 C   0  0  0  0  0  0  0  0  0  0  0  0
  151.7523  139.6147  179.7847 C   0  0  0  0  0  0  0  0  0  0  0  0
  155.4250  141.5566  182.6151 C   0  0  0  0  0  0  0  0  0  0  0  0
  156.4224  141.1964  181.7447 F   0  0  0  0  0  0  0  0  0  0  0  0
  154.8085  142.6626  182.0923 F   0  0  0  0  0  0  0  0  0  0  0  0
  155.9821  141.8367  183.8730 F   0  0  0  0  0  0  0  0  0  0  0  0
  1  2  1  0  0  0
  2  3  1  0  0  0
  3  4  1  0  0  0
  4  5  1  0  0  0
  5  6  1  0  0  0
  6  7  1  0  0  0
  7  8  1  0  0  0
  8  9  2  0  0  0
  9 10  1  0  0  0
 10 11  2  0  0  0
 11 12  1  0  0  0
 12 13  2  0  0  0
 12 20  1  0  0  0
 20 21  1  0  0  0
 20 22  1  0  0  0
 20 23  1  0  0  0
 10 14  1  0  0  0
 14 15  1  0  0  0
 15 16  1  0  0  0
 16 17  1  0  0  0
 17 18  1  0  0  0
 18 19  1  0  0  0
  4 24  1  0  0  0
 24 25  2  0  0  0
 25 26  1  0  0  0
 26 27  2  0  0  0
 27 28  1  0  0  0
 28 29  2  0  0  0
 28 38  1  0  0  0
 38 39  1  0  0  0
 38 40  1  0  0  0
 38 41  1  0  0  0
 26 30  1  0  0  0
 30 31  1  0  0  0
 31 32  1  0  0  0
 32 33  1  0  0  0
 33 34  1  0  0  0
 33 35  1  0  0  0
 33 36  1  0  0  0
 36 37  1  0  0  0
  7  2  1  0  0  0
 13  8  1  0  0  0
 19 14  1  0  0  0
 29 24  1  0  0  0
 37 30  1  0  0  0
M  END
> <minimizedAffinity>
-7.80871

> <CNNscore>
0.3014651537

> <CNNaffinity>
6.3662476540

> <CNN_VS>
1.9192018509

> <CNNaffinity_variance>
0.0442256629

$$$$
[H]/C(C(=O)N([H])c1c([H])c([H])c(C(F)(F)F)c([H])c1[H])=C(/[H])c1c([H])c([H])c(N(C([H])([H])[H])C([H])([H])[H])c([H])c1[H]


 25 26  0  0  0  0  0  0  0  0999 V2000
  155.5659  141.8394  183.0012 C   0  0  0  0  0  0  0  0  0  0  0  0
  155.3830  142.8420  183.7162 O   0  0  0  0  0  0  0  0  0  0  0  0
  156.8139  141.2041  182.9298 N   0  0  0  0  0  0  0  0  0  0  0  0
  156.9800  140.3496  182.3177 H   0  0  0  0  0  0  0  0  0  0  0  0
  157.9400  141.6467  183.6695 C   0  0  0  0  0  0  0  0  0  0  0  0
  158.1529  141.2061  184.9776 C   0  0  0  0  0  0  0  0  0  0  0  0
  159.2049  141.6232  185.7505 C   0  0  0  0  0  0  0  0  0  0  0  0
  160.1157  142.5201  185.2393 C   0  0  0  0  0  0  0  0  0  0  0  0
  159.9504  142.9832  183.9519 C   0  0  0  0  0  0  0  0  0  0  0  0
  158.8628  142.5369  183.1885 C   0  0  0  0  0  0  0  0  0  0  0  0
  161.2299  142.9413  186.1161 C   0  0  0  0  0  0  0  0  0  0  0  0
  161.4412  144.2899  185.9186 F   0  0  0  0  0  0  0  0  0  0  0  0
  162.3347  142.2143  185.7805 F   0  0  0  0  0  0  0  0  0  0  0  0
  160.8199  142.7446  187.4099 F   0  0  0  0  0  0  0  0  0  0  0  0
  153.8583  140.2012  182.5268 C   0  0  0  0  0  0  0  0  0  0  0  0
  154.4336  141.3344  182.2223 C   0  0  0  0  0  0  0  0  0  0  0  0
  150.5358  138.4443  180.4945 C   0  0  0  0  0  0  0  0  0  0  0  0
  151.1797  137.7807  181.5520 C   0  0  0  0  0  0  0  0  0  0  0  0
  152.2499  138.3818  182.1788 C   0  0  0  0  0  0  0  0  0  0  0  0
  152.7384  139.6508  181.8059 C   0  0  0  0  0  0  0  0  0  0  0  0
  152.0843  140.2637  180.7697 C   0  0  0  0  0  0  0  0  0  0  0  0
  151.0089  139.6663  180.1341 C   0  0  0  0  0  0  0  0  0  0  0  0
  148.9371  136.5726  180.3085 C   0  0  0  0  0  0  0  0  0  0  0  0
  149.4529  137.8297  179.8366 N   0  0  0  0  0  0  0  0  0  0  0  0
  148.8076  138.4601  178.6973 C   0  0  0  0  0  0  0  0  0  0  0  0
 23 24  1  0  0  0
 24 25  1  0  0  0
 24 17  1  0  0  0
 17 18  2  0  0  0
 18 19  1  0  0  0
 19 20  2  0  0  0
 20 15  1  0  0  0
 15 16  2  0  0  0
 16  1  1  0  0  0
  1  2  2  0  0  0
  1  3  1  0  0  0
  3  5  1  0  0  0
  5  6  2  0  0  0
  6  7  1  0  0  0
  7  8  2  0  0  0
  8  9  1  0  0  0
  9 10  2  0  0  0
  8 11  1  0  0  0
 11 12  1  0  0  0
 11 13  1  0  0  0
 11 14  1  0  0  0
 20 21  1  0  0  0
 21 22  2  0  0  0
 22 17  1  0  0  0
 10  5  1  0  0  0
  3  4  1  0  0  0
M  END
> <minimizedAffinity>
-8.85362

> <CNNscore>
0.4905146658

> <CNNaffinity>
5.5963950157

> <CNN_VS>
2.7451138496

> <CNNaffinity_variance>
0.0655395389

$$$$
[H]/C(C(=O)N([H])c1c([H])c([H])c(C(F)(F)F)c([H])c1[H])=C(/[H])c1c([H])c([H])c(N(C([H])([H])[H])C([H])([H])[H])c([H])c1[H]


 25 26  0  0  0  0  0  0  0  0999 V2000
  155.5558  141.8195  183.0212 C   0  0  0  0  0  0  0  0  0  0  0  0
  155.3898  142.8869  183.6400 O   0  0  0  0  0  0  0  0  0  0  0  0
  156.7686  141.1177  183.0764 N   0  0  0  0  0  0  0  0  0  0  0  0
  156.9204  140.2072  182.5470 H   0  0  0  0  0  0  0  0  0  0  0  0
  157.8750  141.5632  183.8436 C   0  0  0  0  0  0  0  0  0  0  0  0
  158.8567  142.3774  183.2745 C   0  0  0  0  0  0  0  0  0  0  0  0
  159.9624  142.8125  183.9573 C   0  0  0  0  0  0  0  0  0  0  0  0
  160.1419  142.4466  185.2723 C   0  0  0  0  0  0  0  0  0  0  0  0
  159.1996  141.6454  185.8798 C   0  0  0  0  0  0  0  0  0  0  0  0
  158.0804  141.2172  185.1526 C   0  0  0  0  0  0  0  0  0  0  0  0
  161.3539  142.9393  185.9620 C   0  0  0  0  0  0  0  0  0  0  0  0
  162.4384  142.2478  185.4640 F   0  0  0  0  0  0  0  0  0  0  0  0
  161.2015  142.7207  187.3002 F   0  0  0  0  0  0  0  0  0  0  0  0
  161.4902  144.2649  185.6380 F   0  0  0  0  0  0  0  0  0  0  0  0
  153.8242  140.2056  182.5504 C   0  0  0  0  0  0  0  0  0  0  0  0
  154.4419  141.3087  182.2198 C   0  0  0  0  0  0  0  0  0  0  0  0
  150.5242  138.4571  180.4748 C   0  0  0  0  0  0  0  0  0  0  0  0
  151.0056  137.9092  181.6754 C   0  0  0  0  0  0  0  0  0  0  0  0
  152.0744  138.5028  182.3114 C   0  0  0  0  0  0  0  0  0  0  0  0
  152.7192  139.6518  181.8094 C   0  0  0  0  0  0  0  0  0  0  0  0
  152.2208  140.1540  180.6361 C   0  0  0  0  0  0  0  0  0  0  0  0
  151.1478  139.5631  179.9902 C   0  0  0  0  0  0  0  0  0  0  0  0
  148.9180  136.5928  180.2785 C   0  0  0  0  0  0  0  0  0  0  0  0
  149.4440  137.8466  179.8087 N   0  0  0  0  0  0  0  0  0  0  0  0
  148.8115  138.4780  178.6628 C   0  0  0  0  0  0  0  0  0  0  0  0
 23 24  1  0  0  0
 24 25  1  0  0  0
 24 17  1  0  0  0
 17 18  2  0  0  0
 18 19  1  0  0  0
 19 20  2  0  0  0
 20 15  1  0  0  0
 15 16  2  0  0  0
 16  1  1  0  0  0
  1  2  2  0  0  0
  1  3  1  0  0  0
  3  5  1  0  0  0
  5  6  2  0  0  0
  6  7  1  0  0  0
  7  8  2  0  0  0
  8  9  1  0  0  0
  9 10  2  0  0  0
  8 11  1  0  0  0
 11 12  1  0  0  0
 11 13  1  0  0  0
 11 14  1  0  0  0
 20 21  1  0  0  0
 21 22  2  0  0  0
 22 17  1  0  0  0
 10  5  1  0  0  0
  3  4  1  0  0  0
M  END
> <minimizedAffinity>
-8.92419

> <CNNscore>
0.4854455590

> <CNNaffinity>
5.5893988609

> <CNN_VS>
2.7133488655

> <CNNaffinity_variance>
0.0689255148

$$$$
[H]/C(C(=O)N([H])c1c([H])c([H])c(C(F)(F)F)c([H])c1[H])=C(/[H])c1c([H])c([H])c(N(C([H])([H])[H])C([H])([H])[H])c([H])c1[H]


 25 26  0  0  0  0  0  0  0  0999 V2000
  155.6237  139.7992  183.8943 C   0  0  0  0  0  0  0  0  0  0  0  0
  155.9326  139.6062  185.0849 O   0  0  0  0  0  0  0  0  0  0  0  0
  156.4581  140.5154  183.0242 N   0  0  0  0  0  0  0  0  0  0  0  0
  156.1997  140.6888  182.0067 H   0  0  0  0  0  0  0  0  0  0  0  0
  157.7054  141.0534  183.4318 C   0  0  0  0  0  0  0  0  0  0  0  0
  158.7485  140.2147  183.8308 C   0  0  0  0  0  0  0  0  0  0  0  0
  159.9634  140.6781  184.2635 C   0  0  0  0  0  0  0  0  0  0  0  0
  160.1985  142.0335  184.3175 C   0  0  0  0  0  0  0  0  0  0  0  0
  159.2010  142.9028  183.9323 C   0  0  0  0  0  0  0  0  0  0  0  0
  157.9695  142.3957  183.4953 C   0  0  0  0  0  0  0  0  0  0  0  0
  161.5245  142.4812  184.7960 C   0  0  0  0  0  0  0  0  0  0  0  0
  162.4876  141.7930  184.0879 F   0  0  0  0  0  0  0  0  0  0  0  0
  161.6085  142.2139  186.1313 F   0  0  0  0  0  0  0  0  0  0  0  0
  161.6294  143.8160  184.4994 F   0  0  0  0  0  0  0  0  0  0  0  0
  153.7054  139.8202  182.4299 C   0  0  0  0  0  0  0  0  0  0  0  0
  154.3496  139.2573  183.4178 C   0  0  0  0  0  0  0  0  0  0  0  0
  149.9811  138.2780  181.0133 C   0  0  0  0  0  0  0  0  0  0  0  0
  150.6390  137.7034  182.1135 C   0  0  0  0  0  0  0  0  0  0  0  0
  151.8404  138.2300  182.5363 C   0  0  0  0  0  0  0  0  0  0  0  0
  152.4518  139.3354  181.9099 C   0  0  0  0  0  0  0  0  0  0  0  0
  151.7793  139.8655  180.8403 C   0  0  0  0  0  0  0  0  0  0  0  0
  150.5723  139.3418  180.4086 C   0  0  0  0  0  0  0  0  0  0  0  0
  147.9710  138.4385  179.5894 C   0  0  0  0  0  0  0  0  0  0  0  0
  148.7621  137.7351  180.5633 N   0  0  0  0  0  0  0  0  0  0  0  0
  148.2922  136.4438  181.0363 C   0  0  0  0  0  0  0  0  0  0  0  0
 23 24  1  0  0  0
 24 25  1  0  0  0
 24 17  1  0  0  0
 17 18  2  0  0  0
 18 19  1  0  0  0
 19 20  2  0  0  0
 20 15  1  0  0  0
 15 16  2  0  0  0
 16  1  1  0  0  0
  1  2  2  0  0  0
  1  3  1  0  0  0
  3  5  1  0  0  0
  5  6  2  0  0  0
  6  7  1  0  0  0
  7  8  2  0  0  0
  8  9  1  0  0  0
  9 10  2  0  0  0
  8 11  1  0  0  0
 11 12  1  0  0  0
 11 13  1  0  0  0
 11 14  1  0  0  0
 20 21  1  0  0  0
 21 22  2  0  0  0
 22 17  1  0  0  0
 10  5  1  0  0  0
  3  4  1  0  0  0
M  END
> <minimizedAffinity>
-7.51635

> <CNNscore>
0.4460527003

> <CNNaffinity>
5.4589591026

> <CNN_VS>
2.4349834919

> <CNNaffinity_variance>
0.1488797367

$$$$
[H]/C(C(=O)N([H])c1c([H])c([H])c(C(F)(F)F)c([H])c1[H])=C(/[H])c1c([H])c([H])c(N(C([H])([H])[H])C([H])([H])[H])c([H])c1[H]


 25 26  0  0  0  0  0  0  0  0999 V2000
  155.4531  140.9875  183.4253 C   0  0  0  0  0  0  0  0  0  0  0  0
  155.2619  142.1930  183.6707 O   0  0  0  0  0  0  0  0  0  0  0  0
  156.7097  140.3908  183.6015 N   0  0  0  0  0  0  0  0  0  0  0  0
  156.8829  139.3625  183.3898 H   0  0  0  0  0  0  0  0  0  0  0  0
  157.8360  141.1082  184.0792 C   0  0  0  0  0  0  0  0  0  0  0  0
  158.6373  141.8444  183.2036 C   0  0  0  0  0  0  0  0  0  0  0  0
  159.7542  142.5309  183.6026 C   0  0  0  0  0  0  0  0  0  0  0  0
  160.1303  142.5146  184.9268 C   0  0  0  0  0  0  0  0  0  0  0  0
  159.3708  141.8038  185.8307 C   0  0  0  0  0  0  0  0  0  0  0  0
  158.2345  141.1118  185.3893 C   0  0  0  0  0  0  0  0  0  0  0  0
  161.3458  143.2681  185.3040 C   0  0  0  0  0  0  0  0  0  0  0  0
  161.2702  144.5170  184.7236 F   0  0  0  0  0  0  0  0  0  0  0  0
  162.4327  142.5785  184.8512 F   0  0  0  0  0  0  0  0  0  0  0  0
  161.3217  143.4138  186.6674 F   0  0  0  0  0  0  0  0  0  0  0  0
  153.5641  140.6328  181.9656 C   0  0  0  0  0  0  0  0  0  0  0  0
  154.3212  140.1970  182.9376 C   0  0  0  0  0  0  0  0  0  0  0  0
  150.2220  138.3876  180.5354 C   0  0  0  0  0  0  0  0  0  0  0  0
  150.8230  138.0966  181.7713 C   0  0  0  0  0  0  0  0  0  0  0  0
  151.9012  138.8437  182.1940 C   0  0  0  0  0  0  0  0  0  0  0  0
  152.4397  139.9034  181.4358 C   0  0  0  0  0  0  0  0  0  0  0  0
  151.8264  140.1541  180.2365 C   0  0  0  0  0  0  0  0  0  0  0  0
  150.7432  139.4076  179.8040 C   0  0  0  0  0  0  0  0  0  0  0  0
  148.5135  137.9044  178.8204 C   0  0  0  0  0  0  0  0  0  0  0  0
  149.1313  137.6177  180.0874 N   0  0  0  0  0  0  0  0  0  0  0  0
  148.6283  136.4988  180.8666 C   0  0  0  0  0  0  0  0  0  0  0  0
 23 24  1  0  0  0
 24 25  1  0  0  0
 24 17  1  0  0  0
 17 18  2  0  0  0
 18 19  1  0  0  0
 19 20  2  0  0  0
 20 15  1  0  0  0
 15 16  2  0  0  0
 16  1  1  0  0  0
  1  2  2  0  0  0
  1  3  1  0  0  0
  3  5  1  0  0  0
  5  6  2  0  0  0
  6  7  1  0  0  0
  7  8  2  0  0  0
  8  9  1  0  0  0
  9 10  2  0  0  0
  8 11  1  0  0  0
 11 12  1  0  0  0
 11 13  1  0  0  0
 11 14  1  0  0  0
 20 21  1  0  0  0
 21 22  2  0  0  0
 22 17  1  0  0  0
 10  5  1  0  0  0
  3  4  1  0  0  0
M  END
> <minimizedAffinity>
-8.58440

> <CNNscore>
0.4298872948

> <CNNaffinity>
5.5094528198

> <CNN_VS>
2.3684437275

> <CNNaffinity_variance>
0.1287822872

$$$$
[H]/C(C(=O)N([H])c1c([H])c([H])c(C(F)(F)F)c([H])c1[H])=C(/[H])c1c([H])c([H])c(N(C([H])([H])[H])C([H])([H])[H])c([H])c1[H]


 25 26  0  0  0  0  0  0  0  0999 V2000
  155.4131  140.9677  183.5519 C   0  0  0  0  0  0  0  0  0  0  0  0
  155.1875  142.1522  183.8618 O   0  0  0  0  0  0  0  0  0  0  0  0
  156.6957  140.4108  183.6574 N   0  0  0  0  0  0  0  0  0  0  0  0
  156.8982  139.4008  183.3904 H   0  0  0  0  0  0  0  0  0  0  0  0
  157.8115  141.1465  184.1320 C   0  0  0  0  0  0  0  0  0  0  0  0
  158.5764  141.9246  183.2603 C   0  0  0  0  0  0  0  0  0  0  0  0
  159.6822  142.6311  183.6556 C   0  0  0  0  0  0  0  0  0  0  0  0
  160.0834  142.5931  184.9720 C   0  0  0  0  0  0  0  0  0  0  0  0
  159.3600  141.8408  185.8718 C   0  0  0  0  0  0  0  0  0  0  0  0
  158.2343  141.1293  185.4344 C   0  0  0  0  0  0  0  0  0  0  0  0
  161.2855  143.3697  185.3454 C   0  0  0  0  0  0  0  0  0  0  0  0
  161.2552  143.5725  186.7093 F   0  0  0  0  0  0  0  0  0  0  0  0
  161.2546  144.5546  184.6695 F   0  0  0  0  0  0  0  0  0  0  0  0
  162.3755  142.5957  185.0393 F   0  0  0  0  0  0  0  0  0  0  0  0
  153.5835  140.5428  182.0364 C   0  0  0  0  0  0  0  0  0  0  0  0
  154.2940  140.1593  183.0639 C   0  0  0  0  0  0  0  0  0  0  0  0
  150.3135  138.3988  180.3139 C   0  0  0  0  0  0  0  0  0  0  0  0
  150.9498  139.4419  179.6207 C   0  0  0  0  0  0  0  0  0  0  0  0
  151.9992  140.1098  180.2141 C   0  0  0  0  0  0  0  0  0  0  0  0
  152.4743  139.7928  181.5032 C   0  0  0  0  0  0  0  0  0  0  0  0
  151.8263  138.7711  182.1461 C   0  0  0  0  0  0  0  0  0  0  0  0
  150.7706  138.0956  181.5574 C   0  0  0  0  0  0  0  0  0  0  0  0
  148.8379  136.4233  180.1991 C   0  0  0  0  0  0  0  0  0  0  0  0
  149.2289  137.7230  179.7225 N   0  0  0  0  0  0  0  0  0  0  0  0
  148.4573  138.3293  178.6506 C   0  0  0  0  0  0  0  0  0  0  0  0
 23 24  1  0  0  0
 24 25  1  0  0  0
 24 17  1  0  0  0
 17 18  2  0  0  0
 18 19  1  0  0  0
 19 20  2  0  0  0
 20 15  1  0  0  0
 15 16  2  0  0  0
 16  1  1  0  0  0
  1  2  2  0  0  0
  1  3  1  0  0  0
  3  5  1  0  0  0
  5  6  2  0  0  0
  6  7  1  0  0  0
  7  8  2  0  0  0
  8  9  1  0  0  0
  9 10  2  0  0  0
  8 11  1  0  0  0
 11 12  1  0  0  0
 11 13  1  0  0  0
 11 14  1  0  0  0
 20 21  1  0  0  0
 21 22  2  0  0  0
 22 17  1  0  0  0
 10  5  1  0  0  0
  3  4  1  0  0  0
M  END
> <minimizedAffinity>
-8.77988

> <CNNscore>
0.4004678428

> <CNNaffinity>
5.4941701889

> <CNN_VS>
2.2002384663

> <CNNaffinity_variance>
0.1164080501

$$$$
[H]/C(C(=O)N([H])c1c([H])c([H])c(C(F)(F)F)c([H])c1[H])=C(/[H])c1c([H])c([H])c(N(C([H])([H])[H])C([H])([H])[H])c([H])c1[H]


 25 26  0  0  0  0  0  0  0  0999 V2000
  156.9994  141.8973  183.2547 C   0  0  0  0  0  0  0  0  0  0  0  0
  157.3918  143.0416  182.9604 O   0  0  0  0  0  0  0  0  0  0  0  0
  157.7098  141.0826  184.1480 N   0  0  0  0  0  0  0  0  0  0  0  0
  157.3839  140.1019  184.4014 H   0  0  0  0  0  0  0  0  0  0  0  0
  158.9057  141.5056  184.7822 C   0  0  0  0  0  0  0  0  0  0  0  0
  158.9081  141.8711  186.1302 C   0  0  0  0  0  0  0  0  0  0  0  0
  160.0252  142.3167  186.7871 C   0  0  0  0  0  0  0  0  0  0  0  0
  161.2206  142.4186  186.1119 C   0  0  0  0  0  0  0  0  0  0  0  0
  161.2703  142.0678  184.7802 C   0  0  0  0  0  0  0  0  0  0  0  0
  160.1090  141.6165  184.1379 C   0  0  0  0  0  0  0  0  0  0  0  0
  162.3946  142.9090  186.8659 C   0  0  0  0  0  0  0  0  0  0  0  0
  162.4817  142.1853  188.0369 F   0  0  0  0  0  0  0  0  0  0  0  0
  162.2143  144.2376  187.1191 F   0  0  0  0  0  0  0  0  0  0  0  0
  163.5023  142.6449  186.1017 F   0  0  0  0  0  0  0  0  0  0  0  0
  155.0347  140.4962  183.2134 C   0  0  0  0  0  0  0  0  0  0  0  0
  155.7643  141.4132  182.6350 C   0  0  0  0  0  0  0  0  0  0  0  0
  151.3984  139.0892  181.4661 C   0  0  0  0  0  0  0  0  0  0  0  0
  151.9888  140.2952  181.0534 C   0  0  0  0  0  0  0  0  0  0  0  0
  153.1607  140.7142  181.6454 C   0  0  0  0  0  0  0  0  0  0  0  0
  153.8077  139.9805  182.6608 C   0  0  0  0  0  0  0  0  0  0  0  0
  153.1993  138.8115  183.0356 C   0  0  0  0  0  0  0  0  0  0  0  0
  152.0213  138.3838  182.4466 C   0  0  0  0  0  0  0  0  0  0  0  0
  149.1810  138.0258  181.6812 C   0  0  0  0  0  0  0  0  0  0  0  0
  150.1914  138.6624  180.8793 N   0  0  0  0  0  0  0  0  0  0  0  0
  149.9191  138.8853  179.4693 C   0  0  0  0  0  0  0  0  0  0  0  0
 23 24  1  0  0  0
 24 25  1  0  0  0
 24 17  1  0  0  0
 17 18  2  0  0  0
 18 19  1  0  0  0
 19 20  2  0  0  0
 20 15  1  0  0  0
 15 16  2  0  0  0
 16  1  1  0  0  0
  1  2  2  0  0  0
  1  3  1  0  0  0
  3  5  1  0  0  0
  5  6  2  0  0  0
  6  7  1  0  0  0
  7  8  2  0  0  0
  8  9  1  0  0  0
  9 10  2  0  0  0
  8 11  1  0  0  0
 11 12  1  0  0  0
 11 13  1  0  0  0
 11 14  1  0  0  0
 20 21  1  0  0  0
 21 22  2  0  0  0
 22 17  1  0  0  0
 10  5  1  0  0  0
  3  4  1  0  0  0
M  END
> <minimizedAffinity>
-9.11761

> <CNNscore>
0.3415583670

> <CNNaffinity>
5.5886468887

> <CNN_VS>
1.9088491201

> <CNNaffinity_variance>
0.1381756663

$$$$
[H]/C(C(=O)N([H])c1c([H])c([H])c(C(F)(F)F)c([H])c1[H])=C(/[H])c1c([H])c([H])c(N(C([H])([H])[H])C([H])([H])[H])c([H])c1[H]


 25 26  0  0  0  0  0  0  0  0999 V2000
  154.0271  141.4566  182.3678 C   0  0  0  0  0  0  0  0  0  0  0  0
  153.1597  142.3274  182.1696 O   0  0  0  0  0  0  0  0  0  0  0  0
  153.8193  140.1163  182.0116 N   0  0  0  0  0  0  0  0  0  0  0  0
  154.5534  139.3651  182.1816 H   0  0  0  0  0  0  0  0  0  0  0  0
  152.6242  139.6660  181.3951 C   0  0  0  0  0  0  0  0  0  0  0  0
  152.3311  140.0061  180.0727 C   0  0  0  0  0  0  0  0  0  0  0  0
  151.1787  139.6263  179.4355 C   0  0  0  0  0  0  0  0  0  0  0  0
  150.2443  138.8695  180.1059 C   0  0  0  0  0  0  0  0  0  0  0  0
  150.4882  138.5063  181.4126 C   0  0  0  0  0  0  0  0  0  0  0  0
  151.6768  138.9122  182.0351 C   0  0  0  0  0  0  0  0  0  0  0  0
  149.0162  138.4900  179.3742 C   0  0  0  0  0  0  0  0  0  0  0  0
  149.1382  138.9383  178.0755 F   0  0  0  0  0  0  0  0  0  0  0  0
  147.9511  139.0706  179.9988 F   0  0  0  0  0  0  0  0  0  0  0  0
  148.9616  137.1197  179.3638 F   0  0  0  0  0  0  0  0  0  0  0  0
  156.2216  140.9976  183.2611 C   0  0  0  0  0  0  0  0  0  0  0  0
  155.2849  141.8688  182.9939 C   0  0  0  0  0  0  0  0  0  0  0  0
  160.0010  142.0845  184.9316 C   0  0  0  0  0  0  0  0  0  0  0  0
  159.6794  142.3813  183.5968 C   0  0  0  0  0  0  0  0  0  0  0  0
  158.4500  142.0103  183.0965 C   0  0  0  0  0  0  0  0  0  0  0  0
  157.4827  141.3371  183.8705 C   0  0  0  0  0  0  0  0  0  0  0  0
  157.8356  141.0649  185.1662 C   0  0  0  0  0  0  0  0  0  0  0  0
  159.0690  141.4334  185.6763 C   0  0  0  0  0  0  0  0  0  0  0  0
  162.4530  142.2083  184.6747 C   0  0  0  0  0  0  0  0  0  0  0  0
  161.2618  142.4439  185.4458 N   0  0  0  0  0  0  0  0  0  0  0  0
  161.3907  143.0915  186.7404 C   0  0  0  0  0  0  0  0  0  0  0  0
 23 24  1  0  0  0
 24 25  1  0  0  0
 24 17  1  0  0  0
 17 18  2  0  0  0
 18 19  1  0  0  0
 19 20  2  0  0  0
 20 15  1  0  0  0
 15 16  2  0  0  0
 16  1  1  0  0  0
  1  2  2  0  0  0
  1  3  1  0  0  0
  3  5  1  0  0  0
  5  6  2  0  0  0
  6  7  1  0  0  0
  7  8  2  0  0  0
  8  9  1  0  0  0
  9 10  2  0  0  0
  8 11  1  0  0  0
 11 12  1  0  0  0
 11 13  1  0  0  0
 11 14  1  0  0  0
 20 21  1  0  0  0
 21 22  2  0  0  0
 22 17  1  0  0  0
 10  5  1  0  0  0
  3  4  1  0  0  0
M  END
> <minimizedAffinity>
-8.42958

> <CNNscore>
0.3385215104

> <CNNaffinity>
5.3639039993

> <CNN_VS>
1.8157968521

> <CNNaffinity_variance>
0.0424136966

$$$$
[H]/C(C(=O)N([H])c1c([H])c([H])c(C(F)(F)F)c([H])c1[H])=C(/[H])c1c([H])c([H])c(N(C([H])([H])[H])C([H])([H])[H])c([H])c1[H]


 25 26  0  0  0  0  0  0  0  0999 V2000
  155.3433  138.0315  186.7324 C   0  0  0  0  0  0  0  0  0  0  0  0
  155.9055  136.9626  187.0346 O   0  0  0  0  0  0  0  0  0  0  0  0
  154.3616  138.6045  187.5535 N   0  0  0  0  0  0  0  0  0  0  0  0
  153.8729  139.5153  187.3004 H   0  0  0  0  0  0  0  0  0  0  0  0
  153.9539  138.0194  188.7793 C   0  0  0  0  0  0  0  0  0  0  0  0
  154.6414  138.2922  189.9640 C   0  0  0  0  0  0  0  0  0  0  0  0
  154.3127  137.7324  191.1710 C   0  0  0  0  0  0  0  0  0  0  0  0
  153.2555  136.8544  191.2523 C   0  0  0  0  0  0  0  0  0  0  0  0
  152.5440  136.5543  190.1109 C   0  0  0  0  0  0  0  0  0  0  0  0
  152.9070  137.1438  188.8921 C   0  0  0  0  0  0  0  0  0  0  0  0
  152.9453  136.2751  192.5773 C   0  0  0  0  0  0  0  0  0  0  0  0
  152.4387  137.2807  193.3740 F   0  0  0  0  0  0  0  0  0  0  0  0
  154.0978  135.7648  193.0999 F   0  0  0  0  0  0  0  0  0  0  0  0
  151.9689  135.3314  192.3851 F   0  0  0  0  0  0  0  0  0  0  0  0
  156.7160  139.5439  185.4467 C   0  0  0  0  0  0  0  0  0  0  0  0
  155.7329  138.6835  185.4806 C   0  0  0  0  0  0  0  0  0  0  0  0
  157.9690  141.6792  181.9644 C   0  0  0  0  0  0  0  0  0  0  0  0
  157.3333  142.3327  183.0331 C   0  0  0  0  0  0  0  0  0  0  0  0
  156.9424  141.6058  184.1368 C   0  0  0  0  0  0  0  0  0  0  0  0
  157.1527  140.2161  184.2491 C   0  0  0  0  0  0  0  0  0  0  0  0
  157.7741  139.6164  183.1853 C   0  0  0  0  0  0  0  0  0  0  0  0
  158.1692  140.3394  182.0723 C   0  0  0  0  0  0  0  0  0  0  0  0
  158.2680  141.8170  179.5179 C   0  0  0  0  0  0  0  0  0  0  0  0
  158.3556  142.4111  180.8250 N   0  0  0  0  0  0  0  0  0  0  0  0
  158.8130  143.7863  180.9323 C   0  0  0  0  0  0  0  0  0  0  0  0
 23 24  1  0  0  0
 24 25  1  0  0  0
 24 17  1  0  0  0
 17 18  2  0  0  0
 18 19  1  0  0  0
 19 20  2  0  0  0
 20 15  1  0  0  0
 15 16  2  0  0  0
 16  1  1  0  0  0
  1  2  2  0  0  0
  1  3  1  0  0  0
  3  5  1  0  0  0
  5  6  2  0  0  0
  6  7  1  0  0  0
  7  8  2  0  0  0
  8  9  1  0  0  0
  9 10  2  0  0  0
  8 11  1  0  0  0
 11 12  1  0  0  0
 11 13  1  0  0  0
 11 14  1  0  0  0
 20 21  1  0  0  0
 21 22  2  0  0  0
 22 17  1  0  0  0
 10  5  1  0  0  0
  3  4  1  0  0  0
M  END
> <minimizedAffinity>
-7.20047

> <CNNscore>
0.3238852918

> <CNNaffinity>
5.1675758362

> <CNN_VS>
1.6737017632

> <CNNaffinity_variance>
0.1246752515

$$$$
[H]/C(C(=O)N([H])c1c([H])c([H])c(C(F)(F)F)c([H])c1[H])=C(/[H])c1c([H])c([H])c(N(C([H])([H])[H])C([H])([H])[H])c([H])c1[H]


 25 26  0  0  0  0  0  0  0  0999 V2000
  155.4028  138.7751  185.1460 C   0  0  0  0  0  0  0  0  0  0  0  0
  154.6256  138.5970  184.1898 O   0  0  0  0  0  0  0  0  0  0  0  0
  156.5475  139.5760  185.0249 N   0  0  0  0  0  0  0  0  0  0  0  0
  157.2193  139.7297  185.8356 H   0  0  0  0  0  0  0  0  0  0  0  0
  156.8895  140.2429  183.8209 C   0  0  0  0  0  0  0  0  0  0  0  0
  157.9160  139.7618  183.0052 C   0  0  0  0  0  0  0  0  0  0  0  0
  158.3105  140.3809  181.8480 C   0  0  0  0  0  0  0  0  0  0  0  0
  157.6816  141.5362  181.4418 C   0  0  0  0  0  0  0  0  0  0  0  0
  156.6608  142.0501  182.2118 C   0  0  0  0  0  0  0  0  0  0  0  0
  156.2823  141.3924  183.3904 C   0  0  0  0  0  0  0  0  0  0  0  0
  158.1485  142.1670  180.1881 C   0  0  0  0  0  0  0  0  0  0  0  0
  157.5439  141.5164  179.1329 F   0  0  0  0  0  0  0  0  0  0  0  0
  159.5063  142.0458  180.1298 F   0  0  0  0  0  0  0  0  0  0  0  0
  157.7175  143.4688  180.2082 F   0  0  0  0  0  0  0  0  0  0  0  0
  154.1608  138.5815  187.2063 C   0  0  0  0  0  0  0  0  0  0  0  0
  155.0924  138.1166  186.4164 C   0  0  0  0  0  0  0  0  0  0  0  0
  153.2072  136.8935  191.0138 C   0  0  0  0  0  0  0  0  0  0  0  0
  154.2508  137.8222  190.8668 C   0  0  0  0  0  0  0  0  0  0  0  0
  154.5273  138.3403  189.6200 C   0  0  0  0  0  0  0  0  0  0  0  0
  153.8026  137.9792  188.4656 C   0  0  0  0  0  0  0  0  0  0  0  0
  152.7944  137.0702  188.6511 C   0  0  0  0  0  0  0  0  0  0  0  0
  152.5107  136.5442  189.9003 C   0  0  0  0  0  0  0  0  0  0  0  0
  153.4751  135.0677  192.6534 C   0  0  0  0  0  0  0  0  0  0  0  0
  152.9294  136.3455  192.2809 N   0  0  0  0  0  0  0  0  0  0  0  0
  152.1235  137.0651  193.2528 C   0  0  0  0  0  0  0  0  0  0  0  0
 23 24  1  0  0  0
 24 25  1  0  0  0
 24 17  1  0  0  0
 17 18  2  0  0  0
 18 19  1  0  0  0
 19 20  2  0  0  0
 20 15  1  0  0  0
 15 16  2  0  0  0
 16  1  1  0  0  0
  1  2  2  0  0  0
  1  3  1  0  0  0
  3  5  1  0  0  0
  5  6  2  0  0  0
  6  7  1  0  0  0
  7  8  2  0  0  0
  8  9  1  0  0  0
  9 10  2  0  0  0
  8 11  1  0  0  0
 11 12  1  0  0  0
 11 13  1  0  0  0
 11 14  1  0  0  0
 20 21  1  0  0  0
 21 22  2  0  0  0
 22 17  1  0  0  0
 10  5  1  0  0  0
  3  4  1  0  0  0
M  END
> <minimizedAffinity>
-7.77695

> <CNNscore>
0.3219649792

> <CNNaffinity>
5.0672326088

> <CNN_VS>
1.6314713955

> <CNNaffinity_variance>
0.1327547878

$$$$
[H]c1c(N2C([H])([H])C([H])([H])OC([H])([H])C2([H])[H])nc(C(=O)N([H])c2c([H])c([H])c(C(F)(F)F)c([H])c2[H])nc1N1C([H])([H])C([H])([H])N(C([H])([H])[H])C([H])([H])C1([H])[H]


 33 36  0  0  0  0  0  0  0  0999 V2000
  153.0829  139.5195  182.4721 C   0  0  0  0  0  0  0  0  0  0  0  0
  154.0314  140.5052  182.1844 C   0  0  0  0  0  0  0  0  0  0  0  0
  155.0848  140.8025  183.0247 C   0  0  0  0  0  0  0  0  0  0  0  0
  155.1196  140.0531  184.1519 N   0  0  0  0  0  0  0  0  0  0  0  0
  154.2408  139.1032  184.4726 C   0  0  0  0  0  0  0  0  0  0  0  0
  153.2243  138.8469  183.6232 N   0  0  0  0  0  0  0  0  0  0  0  0
  149.1013  138.5453  178.7495 C   0  0  0  0  0  0  0  0  0  0  0  0
  149.6968  139.1351  179.9399 N   0  0  0  0  0  0  0  0  0  0  0  0
  150.8237  139.9245  179.5518 C   0  0  0  0  0  0  0  0  0  0  0  0
  152.1221  139.5093  180.1577 C   0  0  0  0  0  0  0  0  0  0  0  0
  152.0270  139.2049  181.5710 N   0  0  0  0  0  0  0  0  0  0  0  0
  150.7958  138.5937  182.0553 C   0  0  0  0  0  0  0  0  0  0  0  0
  149.9945  138.0953  180.9052 C   0  0  0  0  0  0  0  0  0  0  0  0
  156.0498  141.8042  182.7624 N   0  0  0  0  0  0  0  0  0  0  0  0
  155.6057  143.1908  182.8845 C   0  0  0  0  0  0  0  0  0  0  0  0
  156.5669  144.1185  182.1743 C   0  0  0  0  0  0  0  0  0  0  0  0
  157.8883  143.7224  182.3796 O   0  0  0  0  0  0  0  0  0  0  0  0
  158.1021  142.5357  181.6678 C   0  0  0  0  0  0  0  0  0  0  0  0
  157.3792  141.4306  182.3933 C   0  0  0  0  0  0  0  0  0  0  0  0
  154.3434  138.2942  185.6809 C   0  0  0  0  0  0  0  0  0  0  0  0
  153.3714  137.5446  186.0023 O   0  0  0  0  0  0  0  0  0  0  0  0
  155.5109  138.3475  186.4576 N   0  0  0  0  0  0  0  0  0  0  0  0
  156.2753  139.0100  186.1079 H   0  0  0  0  0  0  0  0  0  0  0  0
  155.7486  137.6021  187.6499 C   0  0  0  0  0  0  0  0  0  0  0  0
  156.4121  136.4092  187.7159 C   0  0  0  0  0  0  0  0  0  0  0  0
  156.6498  135.7803  188.9485 C   0  0  0  0  0  0  0  0  0  0  0  0
  156.2277  136.3164  190.1479 C   0  0  0  0  0  0  0  0  0  0  0  0
  155.5547  137.5198  190.0830 C   0  0  0  0  0  0  0  0  0  0  0  0
  155.3192  138.1465  188.8738 C   0  0  0  0  0  0  0  0  0  0  0  0
  156.5087  135.6267  191.4366 C   0  0  0  0  0  0  0  0  0  0  0  0
  155.3583  135.0229  191.8656 F   0  0  0  0  0  0  0  0  0  0  0  0
  156.9262  136.5271  192.4009 F   0  0  0  0  0  0  0  0  0  0  0  0
  157.4369  134.6398  191.1812 F   0  0  0  0  0  0  0  0  0  0  0  0
  7  8  1  0  0  0
  8  9  1  0  0  0
  9 10  1  0  0  0
 10 11  1  0  0  0
 11 12  1  0  0  0
 12 13  1  0  0  0
 11  1  1  0  0  0
  1  2  2  0  0  0
  2  3  1  0  0  0
  3  4  2  0  0  0
  4  5  1  0  0  0
  5  6  2  0  0  0
  5 20  1  0  0  0
 20 21  2  0  0  0
 20 22  1  0  0  0
 22 24  1  0  0  0
 24 25  2  0  0  0
 25 26  1  0  0  0
 26 27  2  0  0  0
 27 28  1  0  0  0
 28 29  2  0  0  0
 27 30  1  0  0  0
 30 31  1  0  0  0
 30 32  1  0  0  0
 30 33  1  0  0  0
  3 14  1  0  0  0
 14 15  1  0  0  0
 15 16  1  0  0  0
 16 17  1  0  0  0
 17 18  1  0  0  0
 18 19  1  0  0  0
 13  8  1  0  0  0
  6  1  1  0  0  0
 29 24  1  0  0  0
 19 14  1  0  0  0
 22 23  1  0  0  0
M  END
> <minimizedAffinity>
-8.42729

> <CNNscore>
0.4925159812

> <CNNaffinity>
5.9909648895

> <CNN_VS>
2.9506459236

> <CNNaffinity_variance>
0.0419002324

$$$$
[H]c1c(N2C([H])([H])C([H])([H])OC([H])([H])C2([H])[H])nc(C(=O)N([H])c2c([H])c([H])c(C(F)(F)F)c([H])c2[H])nc1N1C([H])([H])C([H])([H])N(C([H])([H])[H])C([H])([H])C1([H])[H]


 33 36  0  0  0  0  0  0  0  0999 V2000
  155.2073  140.7031  183.1451 C   0  0  0  0  0  0  0  0  0  0  0  0
  154.1440  140.5270  182.2549 C   0  0  0  0  0  0  0  0  0  0  0  0
  153.1505  139.5888  182.4474 C   0  0  0  0  0  0  0  0  0  0  0  0
  153.2958  138.8552  183.5761 N   0  0  0  0  0  0  0  0  0  0  0  0
  154.2897  138.9835  184.4553 C   0  0  0  0  0  0  0  0  0  0  0  0
  155.2417  139.9118  184.2267 N   0  0  0  0  0  0  0  0  0  0  0  0
  158.8046  144.8265  182.2982 C   0  0  0  0  0  0  0  0  0  0  0  0
  158.0074  143.6605  181.9455 N   0  0  0  0  0  0  0  0  0  0  0  0
  156.6234  143.9778  182.1120 C   0  0  0  0  0  0  0  0  0  0  0  0
  155.8915  143.1130  183.0825 C   0  0  0  0  0  0  0  0  0  0  0  0
  156.1992  141.7040  182.9444 N   0  0  0  0  0  0  0  0  0  0  0  0
  157.5555  141.3372  182.5572 C   0  0  0  0  0  0  0  0  0  0  0  0
  158.4569  142.5113  182.7064 C   0  0  0  0  0  0  0  0  0  0  0  0
  152.0716  139.3823  181.5547 N   0  0  0  0  0  0  0  0  0  0  0  0
  152.2788  139.7955  180.1686 C   0  0  0  0  0  0  0  0  0  0  0  0
  150.9529  139.9267  179.4520 C   0  0  0  0  0  0  0  0  0  0  0  0
  150.0830  138.8996  179.8174 O   0  0  0  0  0  0  0  0  0  0  0  0
  149.6831  139.1187  181.1413 C   0  0  0  0  0  0  0  0  0  0  0  0
  150.8561  138.8008  182.0319 C   0  0  0  0  0  0  0  0  0  0  0  0
  154.3812  138.1962  185.6788 C   0  0  0  0  0  0  0  0  0  0  0  0
  153.4017  137.4610  186.0104 O   0  0  0  0  0  0  0  0  0  0  0  0
  155.5465  138.2539  186.4586 N   0  0  0  0  0  0  0  0  0  0  0  0
  156.3177  138.9033  186.0995 H   0  0  0  0  0  0  0  0  0  0  0  0
  155.7736  137.5287  187.6653 C   0  0  0  0  0  0  0  0  0  0  0  0
  156.3618  136.2980  187.7477 C   0  0  0  0  0  0  0  0  0  0  0  0
  156.5976  135.6900  188.9912 C   0  0  0  0  0  0  0  0  0  0  0  0
  156.2481  136.2859  190.1858 C   0  0  0  0  0  0  0  0  0  0  0  0
  155.6511  137.5277  190.1044 C   0  0  0  0  0  0  0  0  0  0  0  0
  155.4181  138.1339  188.8844 C   0  0  0  0  0  0  0  0  0  0  0  0
  156.5250  135.6162  191.4859 C   0  0  0  0  0  0  0  0  0  0  0  0
  156.8936  136.5696  192.3954 F   0  0  0  0  0  0  0  0  0  0  0  0
  157.5519  134.6971  191.3622 F   0  0  0  0  0  0  0  0  0  0  0  0
  155.3437  135.0514  191.9175 F   0  0  0  0  0  0  0  0  0  0  0  0
  7  8  1  0  0  0
  8  9  1  0  0  0
  9 10  1  0  0  0
 10 11  1  0  0  0
 11 12  1  0  0  0
 12 13  1  0  0  0
 11  1  1  0  0  0
  1  2  2  0  0  0
  2  3  1  0  0  0
  3  4  2  0  0  0
  4  5  1  0  0  0
  5  6  2  0  0  0
  5 20  1  0  0  0
 20 21  2  0  0  0
 20 22  1  0  0  0
 22 24  1  0  0  0
 24 25  2  0  0  0
 25 26  1  0  0  0
 26 27  2  0  0  0
 27 28  1  0  0  0
 28 29  2  0  0  0
 27 30  1  0  0  0
 30 31  1  0  0  0
 30 32  1  0  0  0
 30 33  1  0  0  0
  3 14  1  0  0  0
 14 15  1  0  0  0
 15 16  1  0  0  0
 16 17  1  0  0  0
 17 18  1  0  0  0
 18 19  1  0  0  0
 13  8  1  0  0  0
  6  1  1  0  0  0
 29 24  1  0  0  0
 19 14  1  0  0  0
 22 23  1  0  0  0
M  END
> <minimizedAffinity>
-8.59074

> <CNNscore>
0.4867702425

> <CNNaffinity>
6.1784944534

> <CNN_VS>
3.0075073242

> <CNNaffinity_variance>
0.0310192220

$$$$
[H]c1c(N2C([H])([H])C([H])([H])OC([H])([H])C2([H])[H])nc(C(=O)N([H])c2c([H])c([H])c(C(F)(F)F)c([H])c2[H])nc1N1C([H])([H])C([H])([H])N(C([H])([H])[H])C([H])([H])C1([H])[H]


 33 36  0  0  0  0  0  0  0  0999 V2000
  154.9673  140.6945  182.9445 C   0  0  0  0  0  0  0  0  0  0  0  0
  153.9165  140.5130  182.0406 C   0  0  0  0  0  0  0  0  0  0  0  0
  152.9016  139.5999  182.2418 C   0  0  0  0  0  0  0  0  0  0  0  0
  153.0126  138.8968  183.3935 N   0  0  0  0  0  0  0  0  0  0  0  0
  153.9933  139.0315  184.2866 C   0  0  0  0  0  0  0  0  0  0  0  0
  154.9672  139.9345  184.0488 N   0  0  0  0  0  0  0  0  0  0  0  0
  158.6612  144.7371  182.1240 C   0  0  0  0  0  0  0  0  0  0  0  0
  157.7537  143.6642  181.7433 N   0  0  0  0  0  0  0  0  0  0  0  0
  156.4272  144.0150  182.1446 C   0  0  0  0  0  0  0  0  0  0  0  0
  155.7825  143.0596  183.0917 C   0  0  0  0  0  0  0  0  0  0  0  0
  155.9819  141.6701  182.7332 N   0  0  0  0  0  0  0  0  0  0  0  0
  157.2482  141.3012  182.1129 C   0  0  0  0  0  0  0  0  0  0  0  0
  158.2314  142.4050  182.2799 C   0  0  0  0  0  0  0  0  0  0  0  0
  151.8347  139.3882  181.3360 N   0  0  0  0  0  0  0  0  0  0  0  0
  152.0776  139.7481  179.9409 C   0  0  0  0  0  0  0  0  0  0  0  0
  150.7687  139.8858  179.1947 C   0  0  0  0  0  0  0  0  0  0  0  0
  149.8675  138.8928  179.5780 O   0  0  0  0  0  0  0  0  0  0  0  0
  149.4486  139.1670  180.8857 C   0  0  0  0  0  0  0  0  0  0  0  0
  150.5969  138.8524  181.8092 C   0  0  0  0  0  0  0  0  0  0  0  0
  154.0479  138.2784  185.5336 C   0  0  0  0  0  0  0  0  0  0  0  0
  154.7167  137.2008  185.5712 O   0  0  0  0  0  0  0  0  0  0  0  0
  153.3750  138.7589  186.6674 N   0  0  0  0  0  0  0  0  0  0  0  0
  152.8361  139.6746  186.5382 H   0  0  0  0  0  0  0  0  0  0  0  0
  153.3564  138.1325  187.9484 C   0  0  0  0  0  0  0  0  0  0  0  0
  152.4981  137.1395  188.3290 C   0  0  0  0  0  0  0  0  0  0  0  0
  152.5986  136.5419  189.5956 C   0  0  0  0  0  0  0  0  0  0  0  0
  153.5499  136.9205  190.5206 C   0  0  0  0  0  0  0  0  0  0  0  0
  154.4158  137.9255  190.1390 C   0  0  0  0  0  0  0  0  0  0  0  0
  154.3252  138.5168  188.8930 C   0  0  0  0  0  0  0  0  0  0  0  0
  153.6339  136.2555  191.8496 C   0  0  0  0  0  0  0  0  0  0  0  0
  152.9347  137.0058  192.7553 F   0  0  0  0  0  0  0  0  0  0  0  0
  154.9475  136.1555  192.2727 F   0  0  0  0  0  0  0  0  0  0  0  0
  153.0079  135.0322  191.7377 F   0  0  0  0  0  0  0  0  0  0  0  0
  7  8  1  0  0  0
  8  9  1  0  0  0
  9 10  1  0  0  0
 10 11  1  0  0  0
 11 12  1  0  0  0
 12 13  1  0  0  0
 11  1  1  0  0  0
  1  2  2  0  0  0
  2  3  1  0  0  0
  3  4  2  0  0  0
  4  5  1  0  0  0
  5  6  2  0  0  0
  5 20  1  0  0  0
 20 21  2  0  0  0
 20 22  1  0  0  0
 22 24  1  0  0  0
 24 25  2  0  0  0
 25 26  1  0  0  0
 26 27  2  0  0  0
 27 28  1  0  0  0
 28 29  2  0  0  0
 27 30  1  0  0  0
 30 31  1  0  0  0
 30 32  1  0  0  0
 30 33  1  0  0  0
  3 14  1  0  0  0
 14 15  1  0  0  0
 15 16  1  0  0  0
 16 17  1  0  0  0
 17 18  1  0  0  0
 18 19  1  0  0  0
 13  8  1  0  0  0
  6  1  1  0  0  0
 29 24  1  0  0  0
 19 14  1  0  0  0
 22 23  1  0  0  0
M  END
> <minimizedAffinity>
-8.60826

> <CNNscore>
0.4043827355

> <CNNaffinity>
6.0586643219

> <CNN_VS>
2.4500193596

> <CNNaffinity_variance>
0.0189537760

$$$$
[H]c1c(N2C([H])([H])C([H])([H])OC([H])([H])C2([H])[H])nc(C(=O)N([H])c2c([H])c([H])c(C(F)(F)F)c([H])c2[H])nc1N1C([H])([H])C([H])([H])N(C([H])([H])[H])C([H])([H])C1([H])[H]


 33 36  0  0  0  0  0  0  0  0999 V2000
  152.9481  139.5002  182.4720 C   0  0  0  0  0  0  0  0  0  0  0  0
  153.9048  140.4760  182.1774 C   0  0  0  0  0  0  0  0  0  0  0  0
  154.9479  140.7860  183.0260 C   0  0  0  0  0  0  0  0  0  0  0  0
  154.9639  140.0596  184.1685 N   0  0  0  0  0  0  0  0  0  0  0  0
  154.0766  139.1201  184.4963 C   0  0  0  0  0  0  0  0  0  0  0  0
  153.0708  138.8507  183.6384 N   0  0  0  0  0  0  0  0  0  0  0  0
  149.0158  138.4641  178.7139 C   0  0  0  0  0  0  0  0  0  0  0  0
  149.5985  139.0802  179.8973 N   0  0  0  0  0  0  0  0  0  0  0  0
  150.7394  139.8477  179.5060 C   0  0  0  0  0  0  0  0  0  0  0  0
  152.0237  139.4364  180.1436 C   0  0  0  0  0  0  0  0  0  0  0  0
  151.9034  139.1715  181.5630 N   0  0  0  0  0  0  0  0  0  0  0  0
  150.6585  138.5858  182.0439 C   0  0  0  0  0  0  0  0  0  0  0  0
  149.8703  138.0642  180.8950 C   0  0  0  0  0  0  0  0  0  0  0  0
  155.9207  141.7782  182.7567 N   0  0  0  0  0  0  0  0  0  0  0  0
  155.4862  143.1691  182.8640 C   0  0  0  0  0  0  0  0  0  0  0  0
  156.4559  144.0829  182.1475 C   0  0  0  0  0  0  0  0  0  0  0  0
  157.7739  143.6794  182.3605 O   0  0  0  0  0  0  0  0  0  0  0  0
  157.9813  142.4843  181.6609 C   0  0  0  0  0  0  0  0  0  0  0  0
  157.2485  141.3915  182.3951 C   0  0  0  0  0  0  0  0  0  0  0  0
  154.1591  138.3355  185.7222 C   0  0  0  0  0  0  0  0  0  0  0  0
  154.7161  137.1961  185.6855 O   0  0  0  0  0  0  0  0  0  0  0  0
  153.6359  138.8532  186.9170 N   0  0  0  0  0  0  0  0  0  0  0  0
  153.1836  139.8209  186.8488 H   0  0  0  0  0  0  0  0  0  0  0  0
  153.6616  138.2011  188.1849 C   0  0  0  0  0  0  0  0  0  0  0  0
  154.5373  138.4776  189.1970 C   0  0  0  0  0  0  0  0  0  0  0  0
  154.4436  137.8214  190.4348 C   0  0  0  0  0  0  0  0  0  0  0  0
  153.4818  136.8674  190.6971 C   0  0  0  0  0  0  0  0  0  0  0  0
  152.5983  136.5846  189.6750 C   0  0  0  0  0  0  0  0  0  0  0  0
  152.6822  137.2281  188.4547 C   0  0  0  0  0  0  0  0  0  0  0  0
  153.4056  136.2012  192.0260 C   0  0  0  0  0  0  0  0  0  0  0  0
  154.6792  135.9662  192.4674 F   0  0  0  0  0  0  0  0  0  0  0  0
  152.7340  134.9946  191.9388 F   0  0  0  0  0  0  0  0  0  0  0  0
  152.8108  137.0887  192.8975 F   0  0  0  0  0  0  0  0  0  0  0  0
  7  8  1  0  0  0
  8  9  1  0  0  0
  9 10  1  0  0  0
 10 11  1  0  0  0
 11 12  1  0  0  0
 12 13  1  0  0  0
 11  1  1  0  0  0
  1  2  2  0  0  0
  2  3  1  0  0  0
  3  4  2  0  0  0
  4  5  1  0  0  0
  5  6  2  0  0  0
  5 20  1  0  0  0
 20 21  2  0  0  0
 20 22  1  0  0  0
 22 24  1  0  0  0
 24 25  2  0  0  0
 25 26  1  0  0  0
 26 27  2  0  0  0
 27 28  1  0  0  0
 28 29  2  0  0  0
 27 30  1  0  0  0
 30 31  1  0  0  0
 30 32  1  0  0  0
 30 33  1  0  0  0
  3 14  1  0  0  0
 14 15  1  0  0  0
 15 16  1  0  0  0
 16 17  1  0  0  0
 17 18  1  0  0  0
 18 19  1  0  0  0
 13  8  1  0  0  0
  6  1  1  0  0  0
 29 24  1  0  0  0
 19 14  1  0  0  0
 22 23  1  0  0  0
M  END
> <minimizedAffinity>
-8.31862

> <CNNscore>
0.3918348253

> <CNNaffinity>
5.9035520554

> <CNN_VS>
2.3132174015

> <CNNaffinity_variance>
0.0485572405

$$$$
[H]c1c(N2C([H])([H])C([H])([H])OC([H])([H])C2([H])[H])nc(C(=O)N([H])c2c([H])c([H])c(C(F)(F)F)c([H])c2[H])nc1N1C([H])([H])C([H])([H])N(C([H])([H])[H])C([H])([H])C1([H])[H]


 33 36  0  0  0  0  0  0  0  0999 V2000
  153.3870  139.6584  182.7062 C   0  0  0  0  0  0  0  0  0  0  0  0
  154.3642  140.6100  182.4001 C   0  0  0  0  0  0  0  0  0  0  0  0
  155.4548  140.8542  183.2096 C   0  0  0  0  0  0  0  0  0  0  0  0
  155.4957  140.0887  184.3257 N   0  0  0  0  0  0  0  0  0  0  0  0
  154.5905  139.1697  184.6628 C   0  0  0  0  0  0  0  0  0  0  0  0
  153.5382  138.9652  183.8437 N   0  0  0  0  0  0  0  0  0  0  0  0
  149.0632  138.3486  179.5047 C   0  0  0  0  0  0  0  0  0  0  0  0
  150.4667  138.4163  179.8858 N   0  0  0  0  0  0  0  0  0  0  0  0
  150.6459  137.7176  181.1201 C   0  0  0  0  0  0  0  0  0  0  0  0
  151.1933  138.5418  182.2365 C   0  0  0  0  0  0  0  0  0  0  0  0
  152.2914  139.3978  181.8359 N   0  0  0  0  0  0  0  0  0  0  0  0
  152.2605  139.9623  180.4925 C   0  0  0  0  0  0  0  0  0  0  0  0
  150.9020  139.7989  179.9085 C   0  0  0  0  0  0  0  0  0  0  0  0
  156.4499  141.8207  182.9286 N   0  0  0  0  0  0  0  0  0  0  0  0
  155.9950  143.1977  182.7500 C   0  0  0  0  0  0  0  0  0  0  0  0
  157.0531  144.0169  182.0442 C   0  0  0  0  0  0  0  0  0  0  0  0
  158.3283  143.6912  182.5058 O   0  0  0  0  0  0  0  0  0  0  0  0
  158.6441  142.4082  182.0421 C   0  0  0  0  0  0  0  0  0  0  0  0
  157.8189  141.4222  182.8277 C   0  0  0  0  0  0  0  0  0  0  0  0
  154.6994  138.3409  185.8571 C   0  0  0  0  0  0  0  0  0  0  0  0
  153.7340  137.5770  186.1643 O   0  0  0  0  0  0  0  0  0  0  0  0
  155.8656  138.3916  186.6361 N   0  0  0  0  0  0  0  0  0  0  0  0
  156.6241  139.0671  186.2988 H   0  0  0  0  0  0  0  0  0  0  0  0
  156.1089  137.6279  187.8156 C   0  0  0  0  0  0  0  0  0  0  0  0
  156.0142  138.0994  189.0947 C   0  0  0  0  0  0  0  0  0  0  0  0
  156.2142  137.2512  190.1956 C   0  0  0  0  0  0  0  0  0  0  0  0
  156.5210  135.9133  190.0545 C   0  0  0  0  0  0  0  0  0  0  0  0
  156.6200  135.4358  188.7632 C   0  0  0  0  0  0  0  0  0  0  0  0
  156.4219  136.2638  187.6743 C   0  0  0  0  0  0  0  0  0  0  0  0
  156.7142  135.0417  191.2455 C   0  0  0  0  0  0  0  0  0  0  0  0
  157.8493  134.3004  191.0614 F   0  0  0  0  0  0  0  0  0  0  0  0
  155.6423  134.1824  191.4110 F   0  0  0  0  0  0  0  0  0  0  0  0
  156.9171  135.8673  192.3308 F   0  0  0  0  0  0  0  0  0  0  0  0
  7  8  1  0  0  0
  8  9  1  0  0  0
  9 10  1  0  0  0
 10 11  1  0  0  0
 11 12  1  0  0  0
 12 13  1  0  0  0
 11  1  1  0  0  0
  1  2  2  0  0  0
  2  3  1  0  0  0
  3  4  2  0  0  0
  4  5  1  0  0  0
  5  6  2  0  0  0
  5 20  1  0  0  0
 20 21  2  0  0  0
 20 22  1  0  0  0
 22 24  1  0  0  0
 24 25  2  0  0  0
 25 26  1  0  0  0
 26 27  2  0  0  0
 27 28  1  0  0  0
 28 29  2  0  0  0
 27 30  1  0  0  0
 30 31  1  0  0  0
 30 32  1  0  0  0
 30 33  1  0  0  0
  3 14  1  0  0  0
 14 15  1  0  0  0
 15 16  1  0  0  0
 16 17  1  0  0  0
 17 18  1  0  0  0
 18 19  1  0  0  0
 13  8  1  0  0  0
  6  1  1  0  0  0
 29 24  1  0  0  0
 19 14  1  0  0  0
 22 23  1  0  0  0
M  END
> <minimizedAffinity>
-8.20099

> <CNNscore>
0.3688657880

> <CNNaffinity>
5.9082336426

> <CNN_VS>
2.1793453693

> <CNNaffinity_variance>
0.0469052866

$$$$
[H]c1c(N2C([H])([H])C([H])([H])OC([H])([H])C2([H])[H])nc(C(=O)N([H])c2c([H])c([H])c(C(F)(F)F)c([H])c2[H])nc1N1C([H])([H])C([H])([H])N(C([H])([H])[H])C([H])([H])C1([H])[H]


 33 36  0  0  0  0  0  0  0  0999 V2000
  158.0621  142.4102  183.7983 C   0  0  0  0  0  0  0  0  0  0  0  0
  159.3591  142.6646  184.2535 C   0  0  0  0  0  0  0  0  0  0  0  0
  160.0635  141.7824  185.0472 C   0  0  0  0  0  0  0  0  0  0  0  0
  159.3877  140.6474  185.3442 N   0  0  0  0  0  0  0  0  0  0  0  0
  158.1519  140.3577  184.9363 C   0  0  0  0  0  0  0  0  0  0  0  0
  157.4984  141.2500  184.1637 N   0  0  0  0  0  0  0  0  0  0  0  0
  155.6063  146.1940  180.5871 C   0  0  0  0  0  0  0  0  0  0  0  0
  155.8136  145.3988  181.7889 N   0  0  0  0  0  0  0  0  0  0  0  0
  157.1143  145.6794  182.3116 C   0  0  0  0  0  0  0  0  0  0  0  0
  158.0200  144.4985  182.4137 C   0  0  0  0  0  0  0  0  0  0  0  0
  157.3707  143.3190  182.9487 N   0  0  0  0  0  0  0  0  0  0  0  0
  155.9675  143.1044  182.6184 C   0  0  0  0  0  0  0  0  0  0  0  0
  155.5711  143.9994  181.4981 C   0  0  0  0  0  0  0  0  0  0  0  0
  161.3716  142.0227  185.5315 N   0  0  0  0  0  0  0  0  0  0  0  0
  161.4798  142.6109  186.8646 C   0  0  0  0  0  0  0  0  0  0  0  0
  162.8564  143.2037  187.0711 C   0  0  0  0  0  0  0  0  0  0  0  0
  163.8413  142.3851  186.5189 O   0  0  0  0  0  0  0  0  0  0  0  0
  163.7360  142.4579  185.1245 C   0  0  0  0  0  0  0  0  0  0  0  0
  162.5011  141.6958  184.7188 C   0  0  0  0  0  0  0  0  0  0  0  0
  157.4804  139.1023  185.2497 C   0  0  0  0  0  0  0  0  0  0  0  0
  158.0491  138.0095  184.9461 O   0  0  0  0  0  0  0  0  0  0  0  0
  156.2307  139.1214  185.8877 N   0  0  0  0  0  0  0  0  0  0  0  0
  155.8298  140.0904  186.1020 H   0  0  0  0  0  0  0  0  0  0  0  0
  155.4733  137.9727  186.2626 C   0  0  0  0  0  0  0  0  0  0  0  0
  154.5834  137.3173  185.4589 C   0  0  0  0  0  0  0  0  0  0  0  0
  153.9295  136.1554  185.8994 C   0  0  0  0  0  0  0  0  0  0  0  0
  154.1371  135.6182  187.1534 C   0  0  0  0  0  0  0  0  0  0  0  0
  155.0335  136.2805  187.9677 C   0  0  0  0  0  0  0  0  0  0  0  0
  155.6831  137.4232  187.5404 C   0  0  0  0  0  0  0  0  0  0  0  0
  153.4348  134.3776  187.5813 C   0  0  0  0  0  0  0  0  0  0  0  0
  154.2443  133.3070  187.3157 F   0  0  0  0  0  0  0  0  0  0  0  0
  152.2447  134.2184  186.8937 F   0  0  0  0  0  0  0  0  0  0  0  0
  153.2635  134.4522  188.9473 F   0  0  0  0  0  0  0  0  0  0  0  0
  7  8  1  0  0  0
  8  9  1  0  0  0
  9 10  1  0  0  0
 10 11  1  0  0  0
 11 12  1  0  0  0
 12 13  1  0  0  0
 11  1  1  0  0  0
  1  2  2  0  0  0
  2  3  1  0  0  0
  3  4  2  0  0  0
  4  5  1  0  0  0
  5  6  2  0  0  0
  5 20  1  0  0  0
 20 21  2  0  0  0
 20 22  1  0  0  0
 22 24  1  0  0  0
 24 25  2  0  0  0
 25 26  1  0  0  0
 26 27  2  0  0  0
 27 28  1  0  0  0
 28 29  2  0  0  0
 27 30  1  0  0  0
 30 31  1  0  0  0
 30 32  1  0  0  0
 30 33  1  0  0  0
  3 14  1  0  0  0
 14 15  1  0  0  0
 15 16  1  0  0  0
 16 17  1  0  0  0
 17 18  1  0  0  0
 18 19  1  0  0  0
 13  8  1  0  0  0
  6  1  1  0  0  0
 29 24  1  0  0  0
 19 14  1  0  0  0
 22 23  1  0  0  0
M  END
> <minimizedAffinity>
4.71449

> <CNNscore>
0.3222778738

> <CNNaffinity>
6.5010848045

> <CNN_VS>
2.0951557159

> <CNNaffinity_variance>
1.3829513788

$$$$
[H]c1c(N2C([H])([H])C([H])([H])OC([H])([H])C2([H])[H])nc(C(=O)N([H])c2c([H])c([H])c(C(F)(F)F)c([H])c2[H])nc1N1C([H])([H])C([H])([H])N(C([H])([H])[H])C([H])([H])C1([H])[H]


 33 36  0  0  0  0  0  0  0  0999 V2000
  152.7331  137.2995  185.9406 C   0  0  0  0  0  0  0  0  0  0  0  0
  151.8459  136.9640  184.9139 C   0  0  0  0  0  0  0  0  0  0  0  0
  151.9564  137.4635  183.6322 C   0  0  0  0  0  0  0  0  0  0  0  0
  153.0019  138.3058  183.4568 N   0  0  0  0  0  0  0  0  0  0  0  0
  153.8744  138.6575  184.4014 C   0  0  0  0  0  0  0  0  0  0  0  0
  153.7276  138.1476  185.6419 N   0  0  0  0  0  0  0  0  0  0  0  0
  152.0404  134.9162  190.8904 C   0  0  0  0  0  0  0  0  0  0  0  0
  151.8503  135.9271  189.8602 N   0  0  0  0  0  0  0  0  0  0  0  0
  151.2598  135.3133  188.7120 C   0  0  0  0  0  0  0  0  0  0  0  0
  152.0605  135.4221  187.4581 C   0  0  0  0  0  0  0  0  0  0  0  0
  152.6208  136.7411  187.2450 N   0  0  0  0  0  0  0  0  0  0  0  0
  153.0384  137.5016  188.4161 C   0  0  0  0  0  0  0  0  0  0  0  0
  153.1053  136.6050  189.6014 C   0  0  0  0  0  0  0  0  0  0  0  0
  151.0638  137.1497  182.5795 N   0  0  0  0  0  0  0  0  0  0  0  0
  151.2228  137.9036  181.3380 C   0  0  0  0  0  0  0  0  0  0  0  0
  149.9767  137.7907  180.4874 C   0  0  0  0  0  0  0  0  0  0  0  0
  149.4574  136.4970  180.5302 O   0  0  0  0  0  0  0  0  0  0  0  0
  148.9187  136.2867  181.8055 C   0  0  0  0  0  0  0  0  0  0  0  0
  150.0679  136.1421  182.7692 C   0  0  0  0  0  0  0  0  0  0  0  0
  155.0095  139.5380  184.1534 C   0  0  0  0  0  0  0  0  0  0  0  0
  156.0099  139.4842  184.9321 O   0  0  0  0  0  0  0  0  0  0  0  0
  154.9836  140.4162  183.0592 N   0  0  0  0  0  0  0  0  0  0  0  0
  154.0966  140.3914  182.4607 H   0  0  0  0  0  0  0  0  0  0  0  0
  156.0266  141.3177  182.6944 C   0  0  0  0  0  0  0  0  0  0  0  0
  157.2543  140.9529  182.2178 C   0  0  0  0  0  0  0  0  0  0  0  0
  158.1955  141.9189  181.8272 C   0  0  0  0  0  0  0  0  0  0  0  0
  157.9444  143.2733  181.9071 C   0  0  0  0  0  0  0  0  0  0  0  0
  156.7059  143.6438  182.3911 C   0  0  0  0  0  0  0  0  0  0  0  0
  155.7731  142.6989  182.7751 C   0  0  0  0  0  0  0  0  0  0  0  0
  158.9624  144.2683  181.4722 C   0  0  0  0  0  0  0  0  0  0  0  0
  158.3691  145.4999  181.4155 F   0  0  0  0  0  0  0  0  0  0  0  0
  159.4597  143.9547  180.2196 F   0  0  0  0  0  0  0  0  0  0  0  0
  159.9380  144.3110  182.4454 F   0  0  0  0  0  0  0  0  0  0  0  0
  7  8  1  0  0  0
  8  9  1  0  0  0
  9 10  1  0  0  0
 10 11  1  0  0  0
 11 12  1  0  0  0
 12 13  1  0  0  0
 11  1  1  0  0  0
  1  2  2  0  0  0
  2  3  1  0  0  0
  3  4  2  0  0  0
  4  5  1  0  0  0
  5  6  2  0  0  0
  5 20  1  0  0  0
 20 21  2  0  0  0
 20 22  1  0  0  0
 22 24  1  0  0  0
 24 25  2  0  0  0
 25 26  1  0  0  0
 26 27  2  0  0  0
 27 28  1  0  0  0
 28 29  2  0  0  0
 27 30  1  0  0  0
 30 31  1  0  0  0
 30 32  1  0  0  0
 30 33  1  0  0  0
  3 14  1  0  0  0
 14 15  1  0  0  0
 15 16  1  0  0  0
 16 17  1  0  0  0
 17 18  1  0  0  0
 18 19  1  0  0  0
 13  8  1  0  0  0
  6  1  1  0  0  0
 29 24  1  0  0  0
 19 14  1  0  0  0
 22 23  1  0  0  0
M  END
> <minimizedAffinity>
-6.67226

> <CNNscore>
0.2853923142

> <CNNaffinity>
5.7985310555

> <CNN_VS>
1.6548562050

> <CNNaffinity_variance>
0.1301380694

$$$$
[H]c1c(N2C([H])([H])C([H])([H])OC([H])([H])C2([H])[H])nc(C(=O)N([H])c2c([H])c([H])c(C(F)(F)F)c([H])c2[H])nc1N1C([H])([H])C([H])([H])N(C([H])([H])[H])C([H])([H])C1([H])[H]


 33 36  0  0  0  0  0  0  0  0999 V2000
  151.5998  137.5450  183.1440 C   0  0  0  0  0  0  0  0  0  0  0  0
  151.7997  136.3308  183.8073 C   0  0  0  0  0  0  0  0  0  0  0  0
  152.9694  136.0207  184.4706 C   0  0  0  0  0  0  0  0  0  0  0  0
  153.9056  136.9977  184.4239 N   0  0  0  0  0  0  0  0  0  0  0  0
  153.7647  138.1705  183.8057 C   0  0  0  0  0  0  0  0  0  0  0  0
  152.6053  138.4314  183.1669 N   0  0  0  0  0  0  0  0  0  0  0  0
  146.9907  138.9940  180.4391 C   0  0  0  0  0  0  0  0  0  0  0  0
  147.9644  139.0199  181.5211 N   0  0  0  0  0  0  0  0  0  0  0  0
  149.2287  139.4330  180.9970 C   0  0  0  0  0  0  0  0  0  0  0  0
  150.3367  138.4508  181.1783 C   0  0  0  0  0  0  0  0  0  0  0  0
  150.3698  137.8570  182.4994 N   0  0  0  0  0  0  0  0  0  0  0  0
  149.0987  137.6174  183.1711 C   0  0  0  0  0  0  0  0  0  0  0  0
  147.9827  137.7363  182.1945 C   0  0  0  0  0  0  0  0  0  0  0  0
  153.2010  134.7941  185.1378 N   0  0  0  0  0  0  0  0  0  0  0  0
  152.4597  133.6327  184.6514 C   0  0  0  0  0  0  0  0  0  0  0  0
  152.4611  132.5318  185.6892 C   0  0  0  0  0  0  0  0  0  0  0  0
  153.7049  132.4335  186.3125 O   0  0  0  0  0  0  0  0  0  0  0  0
  153.8718  133.5582  187.1298 C   0  0  0  0  0  0  0  0  0  0  0  0
  154.1189  134.7430  186.2323 C   0  0  0  0  0  0  0  0  0  0  0  0
  154.7882  139.2085  183.8174 C   0  0  0  0  0  0  0  0  0  0  0  0
  155.5443  139.3136  184.8310 O   0  0  0  0  0  0  0  0  0  0  0  0
  154.9283  140.0610  182.7117 N   0  0  0  0  0  0  0  0  0  0  0  0
  154.2439  139.8971  181.9052 H   0  0  0  0  0  0  0  0  0  0  0  0
  155.8920  141.1046  182.5859 C   0  0  0  0  0  0  0  0  0  0  0  0
  157.2133  140.9268  182.2857 C   0  0  0  0  0  0  0  0  0  0  0  0
  158.0729  142.0251  182.1231 C   0  0  0  0  0  0  0  0  0  0  0  0
  157.6437  143.3292  182.2619 C   0  0  0  0  0  0  0  0  0  0  0  0
  156.3101  143.5107  182.5681 C   0  0  0  0  0  0  0  0  0  0  0  0
  155.4570  142.4348  182.7271 C   0  0  0  0  0  0  0  0  0  0  0  0
  158.5816  144.4690  182.0700 C   0  0  0  0  0  0  0  0  0  0  0  0
  159.0917  144.4027  180.8022 F   0  0  0  0  0  0  0  0  0  0  0  0
  159.6267  144.4099  182.9749 F   0  0  0  0  0  0  0  0  0  0  0  0
  157.8445  145.6297  182.1713 F   0  0  0  0  0  0  0  0  0  0  0  0
  7  8  1  0  0  0
  8  9  1  0  0  0
  9 10  1  0  0  0
 10 11  1  0  0  0
 11 12  1  0  0  0
 12 13  1  0  0  0
 11  1  1  0  0  0
  1  2  2  0  0  0
  2  3  1  0  0  0
  3  4  2  0  0  0
  4  5  1  0  0  0
  5  6  2  0  0  0
  5 20  1  0  0  0
 20 21  2  0  0  0
 20 22  1  0  0  0
 22 24  1  0  0  0
 24 25  2  0  0  0
 25 26  1  0  0  0
 26 27  2  0  0  0
 27 28  1  0  0  0
 28 29  2  0  0  0
 27 30  1  0  0  0
 30 31  1  0  0  0
 30 32  1  0  0  0
 30 33  1  0  0  0
  3 14  1  0  0  0
 14 15  1  0  0  0
 15 16  1  0  0  0
 16 17  1  0  0  0
 17 18  1  0  0  0
 18 19  1  0  0  0
 13  8  1  0  0  0
  6  1  1  0  0  0
 29 24  1  0  0  0
 19 14  1  0  0  0
 22 23  1  0  0  0
M  END
> <minimizedAffinity>
-6.59398

> <CNNscore>
0.2587962449

> <CNNaffinity>
5.8813333511

> <CNN_VS>
1.5220669508

> <CNNaffinity_variance>
0.0945574939

$$$$
[H]c1c(N2C([H])([H])C([H])([H])OC([H])([H])C2([H])[H])nc(C(=O)N([H])c2c([H])c([H])c(C(F)(F)F)c([H])c2[H])nc1N1C([H])([H])C([H])([H])N(C([H])([H])[H])C([H])([H])C1([H])[H]


 33 36  0  0  0  0  0  0  0  0999 V2000
  153.1655  134.9727  186.3292 C   0  0  0  0  0  0  0  0  0  0  0  0
  153.8297  134.2794  187.3453 C   0  0  0  0  0  0  0  0  0  0  0  0
  154.9981  134.7316  187.9238 C   0  0  0  0  0  0  0  0  0  0  0  0
  155.4431  135.9076  187.4216 N   0  0  0  0  0  0  0  0  0  0  0  0
  154.8481  136.6064  186.4545 C   0  0  0  0  0  0  0  0  0  0  0  0
  153.7087  136.1261  185.9147 N   0  0  0  0  0  0  0  0  0  0  0  0
  148.5315  133.2265  183.8521 C   0  0  0  0  0  0  0  0  0  0  0  0
  149.4020  134.1733  184.5342 N   0  0  0  0  0  0  0  0  0  0  0  0
  150.5702  134.3855  183.7378 C   0  0  0  0  0  0  0  0  0  0  0  0
  151.8586  134.0397  184.4053 C   0  0  0  0  0  0  0  0  0  0  0  0
  151.9408  134.5050  185.7749 N   0  0  0  0  0  0  0  0  0  0  0  0
  150.7171  134.5137  186.5665 C   0  0  0  0  0  0  0  0  0  0  0  0
  149.6686  133.7105  185.8819 C   0  0  0  0  0  0  0  0  0  0  0  0
  155.6960  134.0419  188.9439 N   0  0  0  0  0  0  0  0  0  0  0  0
  156.3365  132.7843  188.5656 C   0  0  0  0  0  0  0  0  0  0  0  0
  156.6542  131.9617  189.7949 C   0  0  0  0  0  0  0  0  0  0  0  0
  157.1198  132.7705  190.8314 O   0  0  0  0  0  0  0  0  0  0  0  0
  156.0453  133.5344  191.3031 C   0  0  0  0  0  0  0  0  0  0  0  0
  155.7400  134.5838  190.2659 C   0  0  0  0  0  0  0  0  0  0  0  0
  155.3451  137.8900  185.9743 C   0  0  0  0  0  0  0  0  0  0  0  0
  156.1343  138.5571  186.7106 O   0  0  0  0  0  0  0  0  0  0  0  0
  154.9554  138.3589  184.7104 N   0  0  0  0  0  0  0  0  0  0  0  0
  154.2858  137.7279  184.1636 H   0  0  0  0  0  0  0  0  0  0  0  0
  155.3755  139.5847  184.1149 C   0  0  0  0  0  0  0  0  0  0  0  0
  156.6346  139.8471  183.6531 C   0  0  0  0  0  0  0  0  0  0  0  0
  156.9359  141.0663  183.0252 C   0  0  0  0  0  0  0  0  0  0  0  0
  155.9957  142.0603  182.8464 C   0  0  0  0  0  0  0  0  0  0  0  0
  154.7241  141.7983  183.3149 C   0  0  0  0  0  0  0  0  0  0  0  0
  154.4189  140.5996  183.9316 C   0  0  0  0  0  0  0  0  0  0  0  0
  156.3490  143.3356  182.1649 C   0  0  0  0  0  0  0  0  0  0  0  0
  157.2702  143.9963  182.9310 F   0  0  0  0  0  0  0  0  0  0  0  0
  155.2350  144.1421  182.0122 F   0  0  0  0  0  0  0  0  0  0  0  0
  156.9481  143.0095  180.9668 F   0  0  0  0  0  0  0  0  0  0  0  0
  7  8  1  0  0  0
  8  9  1  0  0  0
  9 10  1  0  0  0
 10 11  1  0  0  0
 11 12  1  0  0  0
 12 13  1  0  0  0
 11  1  1  0  0  0
  1  2  2  0  0  0
  2  3  1  0  0  0
  3  4  2  0  0  0
  4  5  1  0  0  0
  5  6  2  0  0  0
  5 20  1  0  0  0
 20 21  2  0  0  0
 20 22  1  0  0  0
 22 24  1  0  0  0
 24 25  2  0  0  0
 25 26  1  0  0  0
 26 27  2  0  0  0
 27 28  1  0  0  0
 28 29  2  0  0  0
 27 30  1  0  0  0
 30 31  1  0  0  0
 30 32  1  0  0  0
 30 33  1  0  0  0
  3 14  1  0  0  0
 14 15  1  0  0  0
 15 16  1  0  0  0
 16 17  1  0  0  0
 17 18  1  0  0  0
 18 19  1  0  0  0
 13  8  1  0  0  0
  6  1  1  0  0  0
 29 24  1  0  0  0
 19 14  1  0  0  0
 22 23  1  0  0  0
M  END
> <minimizedAffinity>
-5.14170

> <CNNscore>
0.2541520000

> <CNNaffinity>
5.4901428223

> <CNN_VS>
1.3953307867

> <CNNaffinity_variance>
0.4069115520

$$$$
[H]c1c(C(=O)N([H])c2c([H])c([H])c(C(F)(F)F)c([H])c2[H])nc(C(F)(F)F)nc1N1C([H])([H])C([H])([H])N(C(C([H])([H])[H])(C([H])([H])[H])C([H])([H])[H])C([H])([H])[C@@]1([H])C([H])([H])[H]


 35 37  0  0  0  0  0  0  0  0999 V2000
  153.3778  139.3522  182.7153 C   0  0  0  0  0  0  0  0  0  0  0  0
  153.8853  138.8368  183.9046 C   0  0  0  0  0  0  0  0  0  0  0  0
  154.9501  139.3930  184.5719 C   0  0  0  0  0  0  0  0  0  0  0  0
  155.5099  140.4968  184.0203 N   0  0  0  0  0  0  0  0  0  0  0  0
  155.0490  141.0242  182.8741 C   0  0  0  0  0  0  0  0  0  0  0  0
  154.0071  140.4573  182.2446 N   0  0  0  0  0  0  0  0  0  0  0  0
  152.3081  136.3145  181.7636 C   0  0  0  0  0  0  0  0  0  0  0  0
  151.6999  137.5274  182.4596 C   0  0  0  0  0  0  0  0  0  0  0  0
  150.2228  137.5262  182.1561 C   0  0  0  0  0  0  0  0  0  0  0  0
  149.8526  138.0245  180.8903 N   0  0  0  0  0  0  0  0  0  0  0  0
  150.8296  138.5876  180.0763 C   0  0  0  0  0  0  0  0  0  0  0  0
  151.7305  139.4654  180.9103 C   0  0  0  0  0  0  0  0  0  0  0  0
  152.2702  138.7637  182.0512 N   0  0  0  0  0  0  0  0  0  0  0  0
  148.4921  138.3459  180.6979 C   0  0  0  0  0  0  0  0  0  0  0  0
  148.1471  139.6347  181.4245 C   0  0  0  0  0  0  0  0  0  0  0  0
  147.6361  137.2162  181.2393 C   0  0  0  0  0  0  0  0  0  0  0  0
  148.1909  138.4648  179.2229 C   0  0  0  0  0  0  0  0  0  0  0  0
  155.6914  142.2291  182.3046 C   0  0  0  0  0  0  0  0  0  0  0  0
  154.7446  143.2206  182.0212 F   0  0  0  0  0  0  0  0  0  0  0  0
  156.5547  142.8238  183.2182 F   0  0  0  0  0  0  0  0  0  0  0  0
  156.3923  141.9861  181.1528 F   0  0  0  0  0  0  0  0  0  0  0  0
  155.4694  138.7970  185.8214 C   0  0  0  0  0  0  0  0  0  0  0  0
  156.6852  138.7354  185.9626 O   0  0  0  0  0  0  0  0  0  0  0  0
  154.5296  138.3478  186.7537 N   0  0  0  0  0  0  0  0  0  0  0  0
  153.4823  138.4157  186.5712 H   0  0  0  0  0  0  0  0  0  0  0  0
  154.8853  137.7822  187.9905 C   0  0  0  0  0  0  0  0  0  0  0  0
  155.3556  136.4620  188.0427 C   0  0  0  0  0  0  0  0  0  0  0  0
  155.6837  135.8246  189.2144 C   0  0  0  0  0  0  0  0  0  0  0  0
  155.5584  136.4783  190.4136 C   0  0  0  0  0  0  0  0  0  0  0  0
  155.0999  137.7773  190.4102 C   0  0  0  0  0  0  0  0  0  0  0  0
  154.7687  138.4137  189.1980 C   0  0  0  0  0  0  0  0  0  0  0  0
  155.8745  135.8846  191.7381 C   0  0  0  0  0  0  0  0  0  0  0  0
  154.7360  135.8529  192.4863 F   0  0  0  0  0  0  0  0  0  0  0  0
  156.2563  134.5636  191.4636 F   0  0  0  0  0  0  0  0  0  0  0  0
  156.9117  136.5385  192.3605 F   0  0  0  0  0  0  0  0  0  0  0  0
  7  8  1  0  0  0
  8  9  1  0  0  0
  9 10  1  0  0  0
 10 11  1  0  0  0
 11 12  1  0  0  0
 12 13  1  0  0  0
 13  1  1  0  0  0
  1  2  2  0  0  0
  2  3  1  0  0  0
  3  4  2  0  0  0
  4  5  1  0  0  0
  5  6  2  0  0  0
  5 18  1  0  0  0
 18 19  1  0  0  0
 18 20  1  0  0  0
 18 21  1  0  0  0
  3 22  1  0  0  0
 22 23  2  0  0  0
 22 24  1  0  0  0
 24 26  1  0  0  0
 26 27  2  0  0  0
 27 28  1  0  0  0
 28 29  2  0  0  0
 29 30  1  0  0  0
 30 31  2  0  0  0
 29 32  1  0  0  0
 32 33  1  0  0  0
 32 34  1  0  0  0
 32 35  1  0  0  0
 10 14  1  0  0  0
 14 15  1  0  0  0
 14 16  1  0  0  0
 14 17  1  0  0  0
 13  8  1  0  0  0
  6  1  1  0  0  0
 31 26  1  0  0  0
 24 25  1  0  0  0
M  END
> <minimizedAffinity>
-8.00643

> <CNNscore>
0.4842302799

> <CNNaffinity>
6.0573892593

> <CNN_VS>
2.9331712723

> <CNNaffinity_variance>
0.0575465672

$$$$
[H]c1c(C(=O)N([H])c2c([H])c([H])c(C(F)(F)F)c([H])c2[H])nc(C(F)(F)F)nc1N1C([H])([H])C([H])([H])N(C(C([H])([H])[H])(C([H])([H])[H])C([H])([H])[H])C([H])([H])[C@@]1([H])C([H])([H])[H]


 35 37  0  0  0  0  0  0  0  0999 V2000
  154.0834  135.8321  183.7751 C   0  0  0  0  0  0  0  0  0  0  0  0
  153.8682  135.4925  185.1078 C   0  0  0  0  0  0  0  0  0  0  0  0
  154.0312  136.3782  186.1457 C   0  0  0  0  0  0  0  0  0  0  0  0
  154.4194  137.6356  185.8228 N   0  0  0  0  0  0  0  0  0  0  0  0
  154.6370  138.0019  184.5489 C   0  0  0  0  0  0  0  0  0  0  0  0
  154.4701  137.1132  183.5562 N   0  0  0  0  0  0  0  0  0  0  0  0
  155.9146  133.7785  181.8495 C   0  0  0  0  0  0  0  0  0  0  0  0
  154.6172  133.6763  182.6444 C   0  0  0  0  0  0  0  0  0  0  0  0
  153.7628  132.6277  181.9777 C   0  0  0  0  0  0  0  0  0  0  0  0
  153.0639  133.0425  180.8256 N   0  0  0  0  0  0  0  0  0  0  0  0
  153.1030  134.3839  180.4609 C   0  0  0  0  0  0  0  0  0  0  0  0
  152.9441  135.2419  181.6922 C   0  0  0  0  0  0  0  0  0  0  0  0
  153.8982  134.9001  182.7209 N   0  0  0  0  0  0  0  0  0  0  0  0
  152.0174  132.2108  180.3734 C   0  0  0  0  0  0  0  0  0  0  0  0
  151.5298  131.3172  181.5011 C   0  0  0  0  0  0  0  0  0  0  0  0
  152.5275  131.3509  179.2321 C   0  0  0  0  0  0  0  0  0  0  0  0
  150.8871  133.0501  179.8274 C   0  0  0  0  0  0  0  0  0  0  0  0
  155.0627  139.3848  184.2404 C   0  0  0  0  0  0  0  0  0  0  0  0
  154.6486  140.2755  185.2380 F   0  0  0  0  0  0  0  0  0  0  0  0
  156.4486  139.4980  184.2267 F   0  0  0  0  0  0  0  0  0  0  0  0
  154.5857  139.8531  183.0446 F   0  0  0  0  0  0  0  0  0  0  0  0
  153.8127  135.9658  187.5486 C   0  0  0  0  0  0  0  0  0  0  0  0
  153.6517  136.8473  188.3847 O   0  0  0  0  0  0  0  0  0  0  0  0
  153.8045  134.5940  187.8174 N   0  0  0  0  0  0  0  0  0  0  0  0
  153.9629  133.8716  187.0506 H   0  0  0  0  0  0  0  0  0  0  0  0
  153.5858  134.0646  189.1012 C   0  0  0  0  0  0  0  0  0  0  0  0
  152.5495  133.1423  189.3065 C   0  0  0  0  0  0  0  0  0  0  0  0
  152.2456  132.6117  190.5365 C   0  0  0  0  0  0  0  0  0  0  0  0
  152.9686  132.9776  191.6432 C   0  0  0  0  0  0  0  0  0  0  0  0
  153.9966  133.8814  191.4883 C   0  0  0  0  0  0  0  0  0  0  0  0
  154.2927  134.4143  190.2185 C   0  0  0  0  0  0  0  0  0  0  0  0
  152.7218  132.4753  193.0192 C   0  0  0  0  0  0  0  0  0  0  0  0
  153.9203  132.1970  193.6049 F   0  0  0  0  0  0  0  0  0  0  0  0
  152.1395  133.5529  193.7016 F   0  0  0  0  0  0  0  0  0  0  0  0
  151.8549  131.4079  193.0293 F   0  0  0  0  0  0  0  0  0  0  0  0
  7  8  1  0  0  0
  8  9  1  0  0  0
  9 10  1  0  0  0
 10 11  1  0  0  0
 11 12  1  0  0  0
 12 13  1  0  0  0
 13  1  1  0  0  0
  1  2  2  0  0  0
  2  3  1  0  0  0
  3  4  2  0  0  0
  4  5  1  0  0  0
  5  6  2  0  0  0
  5 18  1  0  0  0
 18 19  1  0  0  0
 18 20  1  0  0  0
 18 21  1  0  0  0
  3 22  1  0  0  0
 22 23  2  0  0  0
 22 24  1  0  0  0
 24 26  1  0  0  0
 26 27  2  0  0  0
 27 28  1  0  0  0
 28 29  2  0  0  0
 29 30  1  0  0  0
 30 31  2  0  0  0
 29 32  1  0  0  0
 32 33  1  0  0  0
 32 34  1  0  0  0
 32 35  1  0  0  0
 10 14  1  0  0  0
 14 15  1  0  0  0
 14 16  1  0  0  0
 14 17  1  0  0  0
 13  8  1  0  0  0
  6  1  1  0  0  0
 31 26  1  0  0  0
 24 25  1  0  0  0
M  END
> <minimizedAffinity>
-2.88720

> <CNNscore>
0.4742780030

> <CNNaffinity>
5.9398603439

> <CNN_VS>
2.8171451092

> <CNNaffinity_variance>
1.3377230167

$$$$
[H]c1c(C(=O)N([H])c2c([H])c([H])c(C(F)(F)F)c([H])c2[H])nc(C(F)(F)F)nc1N1C([H])([H])C([H])([H])N(C(C([H])([H])[H])(C([H])([H])[H])C([H])([H])[H])C([H])([H])[C@@]1([H])C([H])([H])[H]


 35 37  0  0  0  0  0  0  0  0999 V2000
  158.5145  141.9352  184.7497 C   0  0  0  0  0  0  0  0  0  0  0  0
  157.8665  140.9561  185.4975 C   0  0  0  0  0  0  0  0  0  0  0  0
  158.3538  140.4732  186.6881 C   0  0  0  0  0  0  0  0  0  0  0  0
  159.5231  140.9970  187.1290 N   0  0  0  0  0  0  0  0  0  0  0  0
  160.1784  141.9430  186.4364 C   0  0  0  0  0  0  0  0  0  0  0  0
  159.6772  142.3943  185.2752 N   0  0  0  0  0  0  0  0  0  0  0  0
  157.9928  140.8786  181.6050 C   0  0  0  0  0  0  0  0  0  0  0  0
  157.1872  141.6241  182.6635 C   0  0  0  0  0  0  0  0  0  0  0  0
  156.1927  142.4967  181.9398 C   0  0  0  0  0  0  0  0  0  0  0  0
  156.6965  143.7074  181.4218 N   0  0  0  0  0  0  0  0  0  0  0  0
  158.0071  144.0704  181.7123 C   0  0  0  0  0  0  0  0  0  0  0  0
  158.2940  143.7872  183.1666 C   0  0  0  0  0  0  0  0  0  0  0  0
  157.9841  142.4237  183.5273 N   0  0  0  0  0  0  0  0  0  0  0  0
  155.7539  144.6852  181.0390 C   0  0  0  0  0  0  0  0  0  0  0  0
  156.1798  146.0537  181.5429 C   0  0  0  0  0  0  0  0  0  0  0  0
  154.4029  144.3275  181.6299 C   0  0  0  0  0  0  0  0  0  0  0  0
  155.5949  144.6925  179.5374 C   0  0  0  0  0  0  0  0  0  0  0  0
  161.4541  142.4861  186.9526 C   0  0  0  0  0  0  0  0  0  0  0  0
  162.4792  142.3526  186.0085 F   0  0  0  0  0  0  0  0  0  0  0  0
  161.3676  143.8552  187.1805 F   0  0  0  0  0  0  0  0  0  0  0  0
  161.8780  141.8880  188.1099 F   0  0  0  0  0  0  0  0  0  0  0  0
  157.6417  139.4157  187.4369 C   0  0  0  0  0  0  0  0  0  0  0  0
  157.8900  139.2954  188.6310 O   0  0  0  0  0  0  0  0  0  0  0  0
  156.7325  138.6294  186.7233 N   0  0  0  0  0  0  0  0  0  0  0  0
  156.5661  138.7715  185.6807 H   0  0  0  0  0  0  0  0  0  0  0  0
  155.9728  137.6057  187.3157 C   0  0  0  0  0  0  0  0  0  0  0  0
  156.3874  137.0468  188.5333 C   0  0  0  0  0  0  0  0  0  0  0  0
  155.7240  136.0167  189.1544 C   0  0  0  0  0  0  0  0  0  0  0  0
  154.5962  135.4810  188.5866 C   0  0  0  0  0  0  0  0  0  0  0  0
  154.1522  135.9993  187.3901 C   0  0  0  0  0  0  0  0  0  0  0  0
  154.8462  137.0558  186.7688 C   0  0  0  0  0  0  0  0  0  0  0  0
  153.8077  134.3624  189.1643 C   0  0  0  0  0  0  0  0  0  0  0  0
  153.7298  134.5333  190.5140 F   0  0  0  0  0  0  0  0  0  0  0  0
  152.5204  134.5090  188.6283 F   0  0  0  0  0  0  0  0  0  0  0  0
  154.3143  133.1360  188.8035 F   0  0  0  0  0  0  0  0  0  0  0  0
  7  8  1  0  0  0
  8  9  1  0  0  0
  9 10  1  0  0  0
 10 11  1  0  0  0
 11 12  1  0  0  0
 12 13  1  0  0  0
 13  1  1  0  0  0
  1  2  2  0  0  0
  2  3  1  0  0  0
  3  4  2  0  0  0
  4  5  1  0  0  0
  5  6  2  0  0  0
  5 18  1  0  0  0
 18 19  1  0  0  0
 18 20  1  0  0  0
 18 21  1  0  0  0
  3 22  1  0  0  0
 22 23  2  0  0  0
 22 24  1  0  0  0
 24 26  1  0  0  0
 26 27  2  0  0  0
 27 28  1  0  0  0
 28 29  2  0  0  0
 29 30  1  0  0  0
 30 31  2  0  0  0
 29 32  1  0  0  0
 32 33  1  0  0  0
 32 34  1  0  0  0
 32 35  1  0  0  0
 10 14  1  0  0  0
 14 15  1  0  0  0
 14 16  1  0  0  0
 14 17  1  0  0  0
 13  8  1  0  0  0
  6  1  1  0  0  0
 31 26  1  0  0  0
 24 25  1  0  0  0
M  END
> <minimizedAffinity>
11.46872

> <CNNscore>
0.4627147913

> <CNNaffinity>
6.9325051308

> <CNN_VS>
3.2077727318

> <CNNaffinity_variance>
1.7946760654

$$$$
[H]c1c(C(=O)N([H])c2c([H])c([H])c(C(F)(F)F)c([H])c2[H])nc(C(F)(F)F)nc1N1C([H])([H])C([H])([H])N(C(C([H])([H])[H])(C([H])([H])[H])C([H])([H])[H])C([H])([H])[C@@]1([H])C([H])([H])[H]


 35 37  0  0  0  0  0  0  0  0999 V2000
  157.9129  141.0624  184.3237 C   0  0  0  0  0  0  0  0  0  0  0  0
  157.1978  140.0763  184.9974 C   0  0  0  0  0  0  0  0  0  0  0  0
  157.3908  139.7817  186.3256 C   0  0  0  0  0  0  0  0  0  0  0  0
  158.3289  140.5050  186.9836 N   0  0  0  0  0  0  0  0  0  0  0  0
  159.0395  141.4648  186.3687 C   0  0  0  0  0  0  0  0  0  0  0  0
  158.8286  141.7291  185.0692 N   0  0  0  0  0  0  0  0  0  0  0  0
  155.3460  141.3413  182.1762 C   0  0  0  0  0  0  0  0  0  0  0  0
  156.5961  142.1490  182.5080 C   0  0  0  0  0  0  0  0  0  0  0  0
  156.9917  142.8983  181.2605 C   0  0  0  0  0  0  0  0  0  0  0  0
  157.6900  142.1530  180.2886 N   0  0  0  0  0  0  0  0  0  0  0  0
  158.0715  140.8491  180.5858 C   0  0  0  0  0  0  0  0  0  0  0  0
  158.6106  140.7944  181.9943 C   0  0  0  0  0  0  0  0  0  0  0  0
  157.6867  141.3534  182.9531 N   0  0  0  0  0  0  0  0  0  0  0  0
  158.3564  142.8781  179.2779 C   0  0  0  0  0  0  0  0  0  0  0  0
  157.4046  143.1839  178.1340 C   0  0  0  0  0  0  0  0  0  0  0  0
  159.5185  142.0509  178.7606 C   0  0  0  0  0  0  0  0  0  0  0  0
  158.9353  144.1507  179.8486 C   0  0  0  0  0  0  0  0  0  0  0  0
  160.0564  142.2294  187.1239 C   0  0  0  0  0  0  0  0  0  0  0  0
  160.3677  141.5981  188.3341 F   0  0  0  0  0  0  0  0  0  0  0  0
  161.2649  142.2814  186.4380 F   0  0  0  0  0  0  0  0  0  0  0  0
  159.6759  143.5131  187.4136 F   0  0  0  0  0  0  0  0  0  0  0  0
  156.6230  138.7093  186.9938 C   0  0  0  0  0  0  0  0  0  0  0  0
  155.9380  137.9746  186.2916 O   0  0  0  0  0  0  0  0  0  0  0  0
  156.7378  138.6122  188.3836 N   0  0  0  0  0  0  0  0  0  0  0  0
  157.3400  139.2884  188.9449 H   0  0  0  0  0  0  0  0  0  0  0  0
  156.0811  137.6268  189.1411 C   0  0  0  0  0  0  0  0  0  0  0  0
  154.8229  137.8998  189.6972 C   0  0  0  0  0  0  0  0  0  0  0  0
  154.1362  137.0064  190.4828 C   0  0  0  0  0  0  0  0  0  0  0  0
  154.6749  135.7759  190.7600 C   0  0  0  0  0  0  0  0  0  0  0  0
  155.9094  135.4643  190.2343 C   0  0  0  0  0  0  0  0  0  0  0  0
  156.5979  136.3941  189.4309 C   0  0  0  0  0  0  0  0  0  0  0  0
  154.0263  134.7388  191.6030 C   0  0  0  0  0  0  0  0  0  0  0  0
  152.8942  134.3110  190.9767 F   0  0  0  0  0  0  0  0  0  0  0  0
  154.9381  133.6742  191.6371 F   0  0  0  0  0  0  0  0  0  0  0  0
  153.7991  135.1852  192.8836 F   0  0  0  0  0  0  0  0  0  0  0  0
  7  8  1  0  0  0
  8  9  1  0  0  0
  9 10  1  0  0  0
 10 11  1  0  0  0
 11 12  1  0  0  0
 12 13  1  0  0  0
 13  1  1  0  0  0
  1  2  2  0  0  0
  2  3  1  0  0  0
  3  4  2  0  0  0
  4  5  1  0  0  0
  5  6  2  0  0  0
  5 18  1  0  0  0
 18 19  1  0  0  0
 18 20  1  0  0  0
 18 21  1  0  0  0
  3 22  1  0  0  0
 22 23  2  0  0  0
 22 24  1  0  0  0
 24 26  1  0  0  0
 26 27  2  0  0  0
 27 28  1  0  0  0
 28 29  2  0  0  0
 29 30  1  0  0  0
 30 31  2  0  0  0
 29 32  1  0  0  0
 32 33  1  0  0  0
 32 34  1  0  0  0
 32 35  1  0  0  0
 10 14  1  0  0  0
 14 15  1  0  0  0
 14 16  1  0  0  0
 14 17  1  0  0  0
 13  8  1  0  0  0
  6  1  1  0  0  0
 31 26  1  0  0  0
 24 25  1  0  0  0
M  END
> <minimizedAffinity>
2.00568

> <CNNscore>
0.4586149752

> <CNNaffinity>
6.7316451073

> <CNN_VS>
3.0872333050

> <CNNaffinity_variance>
1.0611101389

$$$$
[H]c1c(C(=O)N([H])c2c([H])c([H])c(C(F)(F)F)c([H])c2[H])nc(C(F)(F)F)nc1N1C([H])([H])C([H])([H])N(C(C([H])([H])[H])(C([H])([H])[H])C([H])([H])[H])C([H])([H])[C@@]1([H])C([H])([H])[H]


 35 37  0  0  0  0  0  0  0  0999 V2000
  153.3628  136.9546  187.8416 C   0  0  0  0  0  0  0  0  0  0  0  0
  153.7839  137.5198  186.6412 C   0  0  0  0  0  0  0  0  0  0  0  0
  154.9949  138.1516  186.4910 C   0  0  0  0  0  0  0  0  0  0  0  0
  155.7955  138.2092  187.5827 N   0  0  0  0  0  0  0  0  0  0  0  0
  155.4250  137.6758  188.7585 C   0  0  0  0  0  0  0  0  0  0  0  0
  154.2346  137.0653  188.8743 N   0  0  0  0  0  0  0  0  0  0  0  0
  150.2751  137.1032  186.5293 C   0  0  0  0  0  0  0  0  0  0  0  0
  151.2835  136.0049  186.8489 C   0  0  0  0  0  0  0  0  0  0  0  0
  150.5037  134.7417  187.1138 C   0  0  0  0  0  0  0  0  0  0  0  0
  149.9257  134.6308  188.3950 N   0  0  0  0  0  0  0  0  0  0  0  0
  150.2090  135.6031  189.3480 C   0  0  0  0  0  0  0  0  0  0  0  0
  151.6793  135.9395  189.2976 C   0  0  0  0  0  0  0  0  0  0  0  0
  152.1105  136.2988  187.9671 N   0  0  0  0  0  0  0  0  0  0  0  0
  149.4810  133.3517  188.7918 C   0  0  0  0  0  0  0  0  0  0  0  0
  148.4415  132.8286  187.8151 C   0  0  0  0  0  0  0  0  0  0  0  0
  148.8689  133.4488  190.1768 C   0  0  0  0  0  0  0  0  0  0  0  0
  150.6515  132.4026  188.8883 C   0  0  0  0  0  0  0  0  0  0  0  0
  156.3287  137.7632  189.9267 C   0  0  0  0  0  0  0  0  0  0  0  0
  157.4594  138.5352  189.6344 F   0  0  0  0  0  0  0  0  0  0  0  0
  155.7219  138.4239  190.9893 F   0  0  0  0  0  0  0  0  0  0  0  0
  156.7653  136.5451  190.3764 F   0  0  0  0  0  0  0  0  0  0  0  0
  155.3903  138.7575  185.2015 C   0  0  0  0  0  0  0  0  0  0  0  0
  154.6667  138.5605  184.2322 O   0  0  0  0  0  0  0  0  0  0  0  0
  156.5650  139.5151  185.1851 N   0  0  0  0  0  0  0  0  0  0  0  0
  157.1623  139.6421  186.0580 H   0  0  0  0  0  0  0  0  0  0  0  0
  157.0437  140.1641  184.0337 C   0  0  0  0  0  0  0  0  0  0  0  0
  156.5727  141.4448  183.7099 C   0  0  0  0  0  0  0  0  0  0  0  0
  156.9594  142.1271  182.5822 C   0  0  0  0  0  0  0  0  0  0  0  0
  157.8486  141.5611  181.7045 C   0  0  0  0  0  0  0  0  0  0  0  0
  158.3377  140.3037  181.9827 C   0  0  0  0  0  0  0  0  0  0  0  0
  157.9291  139.6201  183.1444 C   0  0  0  0  0  0  0  0  0  0  0  0
  158.3271  142.2028  180.4532 C   0  0  0  0  0  0  0  0  0  0  0  0
  157.8830  141.4746  179.3905 F   0  0  0  0  0  0  0  0  0  0  0  0
  157.6969  143.4549  180.4215 F   0  0  0  0  0  0  0  0  0  0  0  0
  159.6909  142.3793  180.4548 F   0  0  0  0  0  0  0  0  0  0  0  0
  7  8  1  0  0  0
  8  9  1  0  0  0
  9 10  1  0  0  0
 10 11  1  0  0  0
 11 12  1  0  0  0
 12 13  1  0  0  0
 13  1  1  0  0  0
  1  2  2  0  0  0
  2  3  1  0  0  0
  3  4  2  0  0  0
  4  5  1  0  0  0
  5  6  2  0  0  0
  5 18  1  0  0  0
 18 19  1  0  0  0
 18 20  1  0  0  0
 18 21  1  0  0  0
  3 22  1  0  0  0
 22 23  2  0  0  0
 22 24  1  0  0  0
 24 26  1  0  0  0
 26 27  2  0  0  0
 27 28  1  0  0  0
 28 29  2  0  0  0
 29 30  1  0  0  0
 30 31  2  0  0  0
 29 32  1  0  0  0
 32 33  1  0  0  0
 32 34  1  0  0  0
 32 35  1  0  0  0
 10 14  1  0  0  0
 14 15  1  0  0  0
 14 16  1  0  0  0
 14 17  1  0  0  0
 13  8  1  0  0  0
  6  1  1  0  0  0
 31 26  1  0  0  0
 24 25  1  0  0  0
M  END
> <minimizedAffinity>
-7.36918

> <CNNscore>
0.4355426431

> <CNNaffinity>
6.0737390518

> <CNN_VS>
2.6453723907

> <CNNaffinity_variance>
0.0260922965

$$$$
[H]c1c(C(=O)N([H])c2c([H])c([H])c(C(F)(F)F)c([H])c2[H])nc(C(F)(F)F)nc1N1C([H])([H])C([H])([H])N(C(C([H])([H])[H])(C([H])([H])[H])C([H])([H])[H])C([H])([H])[C@@]1([H])C([H])([H])[H]


 35 37  0  0  0  0  0  0  0  0999 V2000
  154.3364  136.0261  183.7254 C   0  0  0  0  0  0  0  0  0  0  0  0
  154.1474  135.8440  185.0924 C   0  0  0  0  0  0  0  0  0  0  0  0
  154.4917  136.7861  186.0317 C   0  0  0  0  0  0  0  0  0  0  0  0
  155.0382  137.9379  185.5724 N   0  0  0  0  0  0  0  0  0  0  0  0
  155.2366  138.1512  184.2612 C   0  0  0  0  0  0  0  0  0  0  0  0
  154.8904  137.2109  183.3673 N   0  0  0  0  0  0  0  0  0  0  0  0
  155.6132  133.2749  182.2837 C   0  0  0  0  0  0  0  0  0  0  0  0
  154.2878  133.6651  182.9291 C   0  0  0  0  0  0  0  0  0  0  0  0
  153.2130  132.8168  182.2973 C   0  0  0  0  0  0  0  0  0  0  0  0
  152.7592  133.2383  181.0307 N   0  0  0  0  0  0  0  0  0  0  0  0
  153.2238  134.4437  180.5159 C   0  0  0  0  0  0  0  0  0  0  0  0
  153.2348  135.4836  181.6095 C   0  0  0  0  0  0  0  0  0  0  0  0
  153.9626  135.0403  182.7753 N   0  0  0  0  0  0  0  0  0  0  0  0
  151.5500  132.6818  180.5625 C   0  0  0  0  0  0  0  0  0  0  0  0
  150.5754  132.4951  181.7128 C   0  0  0  0  0  0  0  0  0  0  0  0
  151.8399  131.3369  179.9227 C   0  0  0  0  0  0  0  0  0  0  0  0
  150.9532  133.5642  179.4921 C   0  0  0  0  0  0  0  0  0  0  0  0
  155.8388  139.4224  183.8024 C   0  0  0  0  0  0  0  0  0  0  0  0
  156.2363  140.2136  184.8868 F   0  0  0  0  0  0  0  0  0  0  0  0
  157.0100  139.1998  183.0867 F   0  0  0  0  0  0  0  0  0  0  0  0
  155.0018  140.1781  183.0246 F   0  0  0  0  0  0  0  0  0  0  0  0
  154.2929  136.5391  187.4758 C   0  0  0  0  0  0  0  0  0  0  0  0
  155.1320  136.9815  188.2518 O   0  0  0  0  0  0  0  0  0  0  0  0
  153.1557  135.8173  187.8499 N   0  0  0  0  0  0  0  0  0  0  0  0
  152.4655  135.4455  187.1286 H   0  0  0  0  0  0  0  0  0  0  0  0
  152.8338  135.5313  189.1881 C   0  0  0  0  0  0  0  0  0  0  0  0
  152.8802  134.2071  189.6474 C   0  0  0  0  0  0  0  0  0  0  0  0
  152.5408  133.8411  190.9271 C   0  0  0  0  0  0  0  0  0  0  0  0
  152.1309  134.7889  191.8298 C   0  0  0  0  0  0  0  0  0  0  0  0
  152.0704  136.1033  191.4221 C   0  0  0  0  0  0  0  0  0  0  0  0
  152.4227  136.4587  190.1054 C   0  0  0  0  0  0  0  0  0  0  0  0
  151.7323  134.5052  193.2325 C   0  0  0  0  0  0  0  0  0  0  0  0
  152.3345  135.4134  194.0507 F   0  0  0  0  0  0  0  0  0  0  0  0
  150.3488  134.7294  193.2707 F   0  0  0  0  0  0  0  0  0  0  0  0
  151.9926  133.2024  193.5875 F   0  0  0  0  0  0  0  0  0  0  0  0
  7  8  1  0  0  0
  8  9  1  0  0  0
  9 10  1  0  0  0
 10 11  1  0  0  0
 11 12  1  0  0  0
 12 13  1  0  0  0
 13  1  1  0  0  0
  1  2  2  0  0  0
  2  3  1  0  0  0
  3  4  2  0  0  0
  4  5  1  0  0  0
  5  6  2  0  0  0
  5 18  1  0  0  0
 18 19  1  0  0  0
 18 20  1  0  0  0
 18 21  1  0  0  0
  3 22  1  0  0  0
 22 23  2  0  0  0
 22 24  1  0  0  0
 24 26  1  0  0  0
 26 27  2  0  0  0
 27 28  1  0  0  0
 28 29  2  0  0  0
 29 30  1  0  0  0
 30 31  2  0  0  0
 29 32  1  0  0  0
 32 33  1  0  0  0
 32 34  1  0  0  0
 32 35  1  0  0  0
 10 14  1  0  0  0
 14 15  1  0  0  0
 14 16  1  0  0  0
 14 17  1  0  0  0
 13  8  1  0  0  0
  6  1  1  0  0  0
 31 26  1  0  0  0
 24 25  1  0  0  0
M  END
> <minimizedAffinity>
-2.86578

> <CNNscore>
0.4154028594

> <CNNaffinity>
5.8831129074

> <CNN_VS>
2.4438619614

> <CNNaffinity_variance>
1.3198009729

$$$$
[H]c1c(C(=O)N([H])c2c([H])c([H])c(C(F)(F)F)c([H])c2[H])nc(C(F)(F)F)nc1N1C([H])([H])C([H])([H])N(C(C([H])([H])[H])(C([H])([H])[H])C([H])([H])[H])C([H])([H])[C@@]1([H])C([H])([H])[H]


 35 37  0  0  0  0  0  0  0  0999 V2000
  153.2707  136.9737  187.0857 C   0  0  0  0  0  0  0  0  0  0  0  0
  153.6906  137.7575  186.0147 C   0  0  0  0  0  0  0  0  0  0  0  0
  154.9411  138.3222  185.9403 C   0  0  0  0  0  0  0  0  0  0  0  0
  155.7832  138.0845  186.9750 N   0  0  0  0  0  0  0  0  0  0  0  0
  155.4153  137.3336  188.0262 C   0  0  0  0  0  0  0  0  0  0  0  0
  154.1857  136.7958  188.0705 N   0  0  0  0  0  0  0  0  0  0  0  0
  151.8091  134.0951  188.0106 C   0  0  0  0  0  0  0  0  0  0  0  0
  151.5388  135.5819  188.2145 C   0  0  0  0  0  0  0  0  0  0  0  0
  150.0517  135.7469  188.4027 C   0  0  0  0  0  0  0  0  0  0  0  0
  149.2756  135.7326  187.2257 N   0  0  0  0  0  0  0  0  0  0  0  0
  149.9207  135.6976  185.9942 C   0  0  0  0  0  0  0  0  0  0  0  0
  151.0946  136.6458  186.0173 C   0  0  0  0  0  0  0  0  0  0  0  0
  151.9762  136.3939  187.1329 N   0  0  0  0  0  0  0  0  0  0  0  0
  147.9501  136.2068  187.3231 C   0  0  0  0  0  0  0  0  0  0  0  0
  146.9976  135.2580  186.6157 C   0  0  0  0  0  0  0  0  0  0  0  0
  147.8674  137.5784  186.6794 C   0  0  0  0  0  0  0  0  0  0  0  0
  147.5637  136.3720  188.7735 C   0  0  0  0  0  0  0  0  0  0  0  0
  156.3652  137.1012  189.1364 C   0  0  0  0  0  0  0  0  0  0  0  0
  155.7381  136.4622  190.2127 F   0  0  0  0  0  0  0  0  0  0  0  0
  157.3824  136.2309  188.7601 F   0  0  0  0  0  0  0  0  0  0  0  0
  156.9418  138.2477  189.6158 F   0  0  0  0  0  0  0  0  0  0  0  0
  155.3353  139.1668  184.7926 C   0  0  0  0  0  0  0  0  0  0  0  0
  154.5385  139.2832  183.8687 O   0  0  0  0  0  0  0  0  0  0  0  0
  156.5933  139.7739  184.8484 N   0  0  0  0  0  0  0  0  0  0  0  0
  157.2507  139.6264  185.6735 H   0  0  0  0  0  0  0  0  0  0  0  0
  157.0834  140.6187  183.8373 C   0  0  0  0  0  0  0  0  0  0  0  0
  157.9852  140.1171  182.8876 C   0  0  0  0  0  0  0  0  0  0  0  0
  158.5407  140.8875  181.8953 C   0  0  0  0  0  0  0  0  0  0  0  0
  158.2226  142.2179  181.7955 C   0  0  0  0  0  0  0  0  0  0  0  0
  157.3401  142.7537  182.7074 C   0  0  0  0  0  0  0  0  0  0  0  0
  156.7810  141.9472  183.7178 C   0  0  0  0  0  0  0  0  0  0  0  0
  158.7694  143.1441  180.7709 C   0  0  0  0  0  0  0  0  0  0  0  0
  159.1551  144.2977  181.3852 F   0  0  0  0  0  0  0  0  0  0  0  0
  159.9157  142.5054  180.2768 F   0  0  0  0  0  0  0  0  0  0  0  0
  157.8835  143.3514  179.7398 F   0  0  0  0  0  0  0  0  0  0  0  0
  7  8  1  0  0  0
  8  9  1  0  0  0
  9 10  1  0  0  0
 10 11  1  0  0  0
 11 12  1  0  0  0
 12 13  1  0  0  0
 13  1  1  0  0  0
  1  2  2  0  0  0
  2  3  1  0  0  0
  3  4  2  0  0  0
  4  5  1  0  0  0
  5  6  2  0  0  0
  5 18  1  0  0  0
 18 19  1  0  0  0
 18 20  1  0  0  0
 18 21  1  0  0  0
  3 22  1  0  0  0
 22 23  2  0  0  0
 22 24  1  0  0  0
 24 26  1  0  0  0
 26 27  2  0  0  0
 27 28  1  0  0  0
 28 29  2  0  0  0
 29 30  1  0  0  0
 30 31  2  0  0  0
 29 32  1  0  0  0
 32 33  1  0  0  0
 32 34  1  0  0  0
 32 35  1  0  0  0
 10 14  1  0  0  0
 14 15  1  0  0  0
 14 16  1  0  0  0
 14 17  1  0  0  0
 13  8  1  0  0  0
  6  1  1  0  0  0
 31 26  1  0  0  0
 24 25  1  0  0  0
M  END
> <minimizedAffinity>
-7.45668

> <CNNscore>
0.4012866020

> <CNNaffinity>
6.2146558762

> <CNN_VS>
2.4938580990

> <CNNaffinity_variance>
0.1132215038

$$$$
[H]c1c(C(=O)N([H])c2c([H])c([H])c(C(F)(F)F)c([H])c2[H])nc(C(F)(F)F)nc1N1C([H])([H])C([H])([H])N(C(C([H])([H])[H])(C([H])([H])[H])C([H])([H])[H])C([H])([H])[C@@]1([H])C([H])([H])[H]


 35 37  0  0  0  0  0  0  0  0999 V2000
  158.8337  142.2861  184.3490 C   0  0  0  0  0  0  0  0  0  0  0  0
  158.0788  141.2977  184.9742 C   0  0  0  0  0  0  0  0  0  0  0  0
  158.3541  140.8252  186.2349 C   0  0  0  0  0  0  0  0  0  0  0  0
  159.4176  141.3694  186.8744 N   0  0  0  0  0  0  0  0  0  0  0  0
  160.1703  142.3251  186.3048 C   0  0  0  0  0  0  0  0  0  0  0  0
  159.8766  142.7657  185.0708 N   0  0  0  0  0  0  0  0  0  0  0  0
  158.1018  145.1822  182.8143 C   0  0  0  0  0  0  0  0  0  0  0  0
  159.0201  143.9950  182.5446 C   0  0  0  0  0  0  0  0  0  0  0  0
  159.1987  143.8951  181.0506 C   0  0  0  0  0  0  0  0  0  0  0  0
  158.1439  143.2834  180.3427 N   0  0  0  0  0  0  0  0  0  0  0  0
  157.0957  142.7128  181.0566 C   0  0  0  0  0  0  0  0  0  0  0  0
  157.6499  141.9496  182.2347 C   0  0  0  0  0  0  0  0  0  0  0  0
  158.5216  142.7633  183.0493 N   0  0  0  0  0  0  0  0  0  0  0  0
  158.4087  142.8769  179.0176 C   0  0  0  0  0  0  0  0  0  0  0  0
  157.1519  142.9869  178.1714 C   0  0  0  0  0  0  0  0  0  0  0  0
  158.8857  141.4365  179.0286 C   0  0  0  0  0  0  0  0  0  0  0  0
  159.5237  143.7104  178.4325 C   0  0  0  0  0  0  0  0  0  0  0  0
  161.3247  142.8905  187.0374 C   0  0  0  0  0  0  0  0  0  0  0  0
  162.4379  143.0260  186.1993 F   0  0  0  0  0  0  0  0  0  0  0  0
  161.0622  144.1830  187.4783 F   0  0  0  0  0  0  0  0  0  0  0  0
  161.7101  142.1422  188.1182 F   0  0  0  0  0  0  0  0  0  0  0  0
  157.5373  139.7573  186.8501 C   0  0  0  0  0  0  0  0  0  0  0  0
  157.7493  139.4812  188.0251 O   0  0  0  0  0  0  0  0  0  0  0  0
  156.5781  139.1407  186.0415 N   0  0  0  0  0  0  0  0  0  0  0  0
  156.4463  139.4140  185.0203 H   0  0  0  0  0  0  0  0  0  0  0  0
  155.7200  138.1281  186.5047 C   0  0  0  0  0  0  0  0  0  0  0  0
  154.3312  138.3185  186.4607 C   0  0  0  0  0  0  0  0  0  0  0  0
  153.4288  137.3961  186.9315 C   0  0  0  0  0  0  0  0  0  0  0  0
  153.8689  136.2181  187.4792 C   0  0  0  0  0  0  0  0  0  0  0  0
  155.2256  135.9883  187.5428 C   0  0  0  0  0  0  0  0  0  0  0  0
  156.1352  136.9467  187.0546 C   0  0  0  0  0  0  0  0  0  0  0  0
  152.9849  135.1569  188.0260 C   0  0  0  0  0  0  0  0  0  0  0  0
  151.8934  135.0378  187.2190 F   0  0  0  0  0  0  0  0  0  0  0  0
  153.7326  133.9746  187.9305 F   0  0  0  0  0  0  0  0  0  0  0  0
  152.6607  135.3856  189.3427 F   0  0  0  0  0  0  0  0  0  0  0  0
  7  8  1  0  0  0
  8  9  1  0  0  0
  9 10  1  0  0  0
 10 11  1  0  0  0
 11 12  1  0  0  0
 12 13  1  0  0  0
 13  1  1  0  0  0
  1  2  2  0  0  0
  2  3  1  0  0  0
  3  4  2  0  0  0
  4  5  1  0  0  0
  5  6  2  0  0  0
  5 18  1  0  0  0
 18 19  1  0  0  0
 18 20  1  0  0  0
 18 21  1  0  0  0
  3 22  1  0  0  0
 22 23  2  0  0  0
 22 24  1  0  0  0
 24 26  1  0  0  0
 26 27  2  0  0  0
 27 28  1  0  0  0
 28 29  2  0  0  0
 29 30  1  0  0  0
 30 31  2  0  0  0
 29 32  1  0  0  0
 32 33  1  0  0  0
 32 34  1  0  0  0
 32 35  1  0  0  0
 10 14  1  0  0  0
 14 15  1  0  0  0
 14 16  1  0  0  0
 14 17  1  0  0  0
 13  8  1  0  0  0
  6  1  1  0  0  0
 31 26  1  0  0  0
 24 25  1  0  0  0
M  END
> <minimizedAffinity>
2.53106

> <CNNscore>
0.4007267058

> <CNNaffinity>
6.8980751038

> <CNN_VS>
2.7642428875

> <CNNaffinity_variance>
0.9587649107

$$$$
[H]c1c(C(=O)N([H])c2c([H])c([H])c(C(F)(F)F)c([H])c2[H])nc(C(F)(F)F)nc1N1C([H])([H])C([H])([H])N(C(C([H])([H])[H])(C([H])([H])[H])C([H])([H])[H])C([H])([H])[C@@]1([H])C([H])([H])[H]


 35 37  0  0  0  0  0  0  0  0999 V2000
  158.6365  140.5469  184.2309 C   0  0  0  0  0  0  0  0  0  0  0  0
  158.3619  139.4375  185.0256 C   0  0  0  0  0  0  0  0  0  0  0  0
  157.1617  138.7689  184.9954 C   0  0  0  0  0  0  0  0  0  0  0  0
  156.2214  139.2363  184.1390 N   0  0  0  0  0  0  0  0  0  0  0  0
  156.4482  140.3037  183.3558 C   0  0  0  0  0  0  0  0  0  0  0  0
  157.6312  140.9368  183.4085 N   0  0  0  0  0  0  0  0  0  0  0  0
  160.9762  141.4122  186.4792 C   0  0  0  0  0  0  0  0  0  0  0  0
  160.9632  140.7735  185.0946 C   0  0  0  0  0  0  0  0  0  0  0  0
  162.2759  141.1087  184.4323 C   0  0  0  0  0  0  0  0  0  0  0  0
  162.3729  142.3994  183.8733 N   0  0  0  0  0  0  0  0  0  0  0  0
  161.2442  143.2115  183.8543 C   0  0  0  0  0  0  0  0  0  0  0  0
  160.0437  142.3902  183.4520 C   0  0  0  0  0  0  0  0  0  0  0  0
  159.8887  141.2134  184.2746 N   0  0  0  0  0  0  0  0  0  0  0  0
  163.4345  142.6327  182.9734 C   0  0  0  0  0  0  0  0  0  0  0  0
  162.9189  142.6545  181.5445 C   0  0  0  0  0  0  0  0  0  0  0  0
  164.4615  141.5259  183.1229 C   0  0  0  0  0  0  0  0  0  0  0  0
  164.1267  143.9310  183.3134 C   0  0  0  0  0  0  0  0  0  0  0  0
  155.3927  140.7829  182.4364 C   0  0  0  0  0  0  0  0  0  0  0  0
  155.8053  140.6913  181.1017 F   0  0  0  0  0  0  0  0  0  0  0  0
  154.2579  139.9821  182.5052 F   0  0  0  0  0  0  0  0  0  0  0  0
  155.0130  142.0795  182.6633 F   0  0  0  0  0  0  0  0  0  0  0  0
  156.9070  137.6081  185.8750 C   0  0  0  0  0  0  0  0  0  0  0  0
  157.7259  136.6963  185.8690 O   0  0  0  0  0  0  0  0  0  0  0  0
  155.7460  137.6386  186.6530 N   0  0  0  0  0  0  0  0  0  0  0  0
  155.0621  138.4541  186.6077 H   0  0  0  0  0  0  0  0  0  0  0  0
  155.3944  136.6127  187.5476 C   0  0  0  0  0  0  0  0  0  0  0  0
  154.2790  136.7698  188.3830 C   0  0  0  0  0  0  0  0  0  0  0  0
  153.8951  135.8332  189.3116 C   0  0  0  0  0  0  0  0  0  0  0  0
  154.6129  134.6738  189.4591 C   0  0  0  0  0  0  0  0  0  0  0  0
  155.7167  134.4769  188.6589 C   0  0  0  0  0  0  0  0  0  0  0  0
  156.0943  135.4494  187.7124 C   0  0  0  0  0  0  0  0  0  0  0  0
  154.2947  133.6000  190.4350 C   0  0  0  0  0  0  0  0  0  0  0  0
  155.4615  133.0719  190.9005 F   0  0  0  0  0  0  0  0  0  0  0  0
  153.6530  134.2517  191.4978 F   0  0  0  0  0  0  0  0  0  0  0  0
  153.4488  132.6554  189.9027 F   0  0  0  0  0  0  0  0  0  0  0  0
  7  8  1  0  0  0
  8  9  1  0  0  0
  9 10  1  0  0  0
 10 11  1  0  0  0
 11 12  1  0  0  0
 12 13  1  0  0  0
 13  1  1  0  0  0
  1  2  2  0  0  0
  2  3  1  0  0  0
  3  4  2  0  0  0
  4  5  1  0  0  0
  5  6  2  0  0  0
  5 18  1  0  0  0
 18 19  1  0  0  0
 18 20  1  0  0  0
 18 21  1  0  0  0
  3 22  1  0  0  0
 22 23  2  0  0  0
 22 24  1  0  0  0
 24 26  1  0  0  0
 26 27  2  0  0  0
 27 28  1  0  0  0
 28 29  2  0  0  0
 29 30  1  0  0  0
 30 31  2  0  0  0
 29 32  1  0  0  0
 32 33  1  0  0  0
 32 34  1  0  0  0
 32 35  1  0  0  0
 10 14  1  0  0  0
 14 15  1  0  0  0
 14 16  1  0  0  0
 14 17  1  0  0  0
 13  8  1  0  0  0
  6  1  1  0  0  0
 31 26  1  0  0  0
 24 25  1  0  0  0
M  END
> <minimizedAffinity>
25.36816

> <CNNscore>
0.3997142911

> <CNNaffinity>
6.6597013474

> <CNN_VS>
2.6619777679

> <CNNaffinity_variance>
2.9266982079

$$$$
[H]c1c(C(=O)N([H])c2c([H])c([H])c(C(F)(F)F)c([H])c2[H])nc(C(F)(F)F)nc1N1C([H])([H])C([H])([H])N(S(=O)(=O)N2C([H])([H])C([H])([H])C2([H])[H])C([H])([H])[C@@]1([H])C([H])([H])[H]


 38 41  0  0  0  0  0  0  0  0999 V2000
  152.8075  139.0667  182.8224 C   0  0  0  0  0  0  0  0  0  0  0  0
  153.4104  138.4994  183.9265 C   0  0  0  0  0  0  0  0  0  0  0  0
  154.3608  139.1887  184.6291 C   0  0  0  0  0  0  0  0  0  0  0  0
  154.7100  140.4380  184.2334 N   0  0  0  0  0  0  0  0  0  0  0  0
  154.1212  140.9800  183.1599 C   0  0  0  0  0  0  0  0  0  0  0  0
  153.2093  140.3259  182.4827 N   0  0  0  0  0  0  0  0  0  0  0  0
  152.3443  139.6781  179.9999 C   0  0  0  0  0  0  0  0  0  0  0  0
  151.5803  138.5605  180.6829 C   0  0  0  0  0  0  0  0  0  0  0  0
  150.0875  138.8174  180.4517 C   0  0  0  0  0  0  0  0  0  0  0  0
  149.1795  138.2218  181.2777 N   0  0  0  0  0  0  0  0  0  0  0  0
  149.5002  137.9888  182.6366 C   0  0  0  0  0  0  0  0  0  0  0  0
  150.9327  137.5186  182.8057 C   0  0  0  0  0  0  0  0  0  0  0  0
  151.8135  138.4334  182.0599 N   0  0  0  0  0  0  0  0  0  0  0  0
  147.7441  137.5394  180.8301 S   0  0  0  0  0  0  0  0  0  0  0  0
  146.8548  138.6077  180.1985 O   0  0  0  0  0  0  0  0  0  0  0  0
  146.9547  137.0354  182.0100 O   0  0  0  0  0  0  0  0  0  0  0  0
  147.7882  136.2449  179.6969 N   0  0  0  0  0  0  0  0  0  0  0  0
  146.8947  135.1415  180.0174 C   0  0  0  0  0  0  0  0  0  0  0  0
  147.9872  134.1385  179.9256 C   0  0  0  0  0  0  0  0  0  0  0  0
  148.9005  135.3194  180.0429 C   0  0  0  0  0  0  0  0  0  0  0  0
  154.5131  142.3538  182.7336 C   0  0  0  0  0  0  0  0  0  0  0  0
  153.3633  143.0358  182.3450 F   0  0  0  0  0  0  0  0  0  0  0  0
  155.1228  143.0278  183.7763 F   0  0  0  0  0  0  0  0  0  0  0  0
  155.3818  142.2228  181.6607 F   0  0  0  0  0  0  0  0  0  0  0  0
  155.0024  138.6252  185.8202 C   0  0  0  0  0  0  0  0  0  0  0  0
  156.2433  138.5983  185.8998 O   0  0  0  0  0  0  0  0  0  0  0  0
  154.1798  138.1161  186.8411 N   0  0  0  0  0  0  0  0  0  0  0  0
  153.1272  138.1670  186.7329 H   0  0  0  0  0  0  0  0  0  0  0  0
  154.7136  137.5384  188.0053 C   0  0  0  0  0  0  0  0  0  0  0  0
  155.2151  138.2319  189.0743 C   0  0  0  0  0  0  0  0  0  0  0  0
  155.7775  137.5583  190.1628 C   0  0  0  0  0  0  0  0  0  0  0  0
  155.8524  136.1890  190.2137 C   0  0  0  0  0  0  0  0  0  0  0  0
  155.3417  135.4766  189.1255 C   0  0  0  0  0  0  0  0  0  0  0  0
  154.8083  136.1448  188.0936 C   0  0  0  0  0  0  0  0  0  0  0  0
  156.4569  135.4403  191.3340 C   0  0  0  0  0  0  0  0  0  0  0  0
  156.8353  136.4272  192.2746 F   0  0  0  0  0  0  0  0  0  0  0  0
  155.5046  134.6356  191.9108 F   0  0  0  0  0  0  0  0  0  0  0  0
  157.5710  134.7638  190.9435 F   0  0  0  0  0  0  0  0  0  0  0  0
  7  8  1  0  0  0
  8  9  1  0  0  0
  9 10  1  0  0  0
 10 11  1  0  0  0
 11 12  1  0  0  0
 12 13  1  0  0  0
 13  1  1  0  0  0
  1  2  2  0  0  0
  2  3  1  0  0  0
  3  4  2  0  0  0
  4  5  1  0  0  0
  5  6  2  0  0  0
  5 21  1  0  0  0
 21 22  1  0  0  0
 21 23  1  0  0  0
 21 24  1  0  0  0
  3 25  1  0  0  0
 25 26  2  0  0  0
 25 27  1  0  0  0
 27 29  1  0  0  0
 29 30  2  0  0  0
 30 31  1  0  0  0
 31 32  2  0  0  0
 32 33  1  0  0  0
 33 34  2  0  0  0
 32 35  1  0  0  0
 35 36  1  0  0  0
 35 37  1  0  0  0
 35 38  1  0  0  0
 10 14  1  0  0  0
 14 15  2  0  0  0
 14 16  2  0  0  0
 14 17  1  0  0  0
 17 18  1  0  0  0
 18 19  1  0  0  0
 19 20  1  0  0  0
 13  8  1  0  0  0
  6  1  1  0  0  0
 34 29  1  0  0  0
 20 17  1  0  0  0
 27 28  1  0  0  0
M  END
> <minimizedAffinity>
-7.31400

> <CNNscore>
0.5932184458

> <CNNaffinity>
6.2055330276

> <CNN_VS>
3.6812367439

> <CNNaffinity_variance>
0.2193604261

$$$$
[H]c1c(C(=O)N([H])c2c([H])c([H])c(C(F)(F)F)c([H])c2[H])nc(C(F)(F)F)nc1N1C([H])([H])C([H])([H])N(S(=O)(=O)N2C([H])([H])C([H])([H])C2([H])[H])C([H])([H])[C@@]1([H])C([H])([H])[H]


 38 41  0  0  0  0  0  0  0  0999 V2000
  154.9820  138.9962  184.6107 C   0  0  0  0  0  0  0  0  0  0  0  0
  156.3014  139.2137  184.9515 C   0  0  0  0  0  0  0  0  0  0  0  0
  156.9426  140.3542  184.5516 C   0  0  0  0  0  0  0  0  0  0  0  0
  156.2726  141.2745  183.8143 N   0  0  0  0  0  0  0  0  0  0  0  0
  154.9932  141.0545  183.4866 C   0  0  0  0  0  0  0  0  0  0  0  0
  154.3723  139.9646  183.8671 N   0  0  0  0  0  0  0  0  0  0  0  0
  152.5477  138.1387  183.2344 C   0  0  0  0  0  0  0  0  0  0  0  0
  153.1445  137.2954  184.3444 C   0  0  0  0  0  0  0  0  0  0  0  0
  152.0370  137.0394  185.3719 C   0  0  0  0  0  0  0  0  0  0  0  0
  152.3845  136.6723  186.6392 N   0  0  0  0  0  0  0  0  0  0  0  0
  153.5793  137.1622  187.2191 C   0  0  0  0  0  0  0  0  0  0  0  0
  154.7204  137.1922  186.2198 C   0  0  0  0  0  0  0  0  0  0  0  0
  154.2493  137.8624  184.9960 N   0  0  0  0  0  0  0  0  0  0  0  0
  151.6415  135.5276  187.5687 S   0  0  0  0  0  0  0  0  0  0  0  0
  151.0778  136.1879  188.8246 O   0  0  0  0  0  0  0  0  0  0  0  0
  152.6056  134.4908  188.0835 O   0  0  0  0  0  0  0  0  0  0  0  0
  150.3291  134.6568  186.8751 N   0  0  0  0  0  0  0  0  0  0  0  0
  149.0301  134.9823  187.4453 C   0  0  0  0  0  0  0  0  0  0  0  0
  148.7200  133.5573  187.7300 C   0  0  0  0  0  0  0  0  0  0  0  0
  150.1914  133.3407  187.5553 C   0  0  0  0  0  0  0  0  0  0  0  0
  154.2665  142.0727  182.6755 C   0  0  0  0  0  0  0  0  0  0  0  0
  154.0026  141.5265  181.4224 F   0  0  0  0  0  0  0  0  0  0  0  0
  153.0773  142.4210  183.2901 F   0  0  0  0  0  0  0  0  0  0  0  0
  155.0972  143.1765  182.5552 F   0  0  0  0  0  0  0  0  0  0  0  0
  158.3353  140.6273  184.9173 C   0  0  0  0  0  0  0  0  0  0  0  0
  159.2587  140.1543  184.2314 O   0  0  0  0  0  0  0  0  0  0  0  0
  158.5820  141.4166  186.0549 N   0  0  0  0  0  0  0  0  0  0  0  0
  157.7635  141.8043  186.6045 H   0  0  0  0  0  0  0  0  0  0  0  0
  159.8866  141.7072  186.4877 C   0  0  0  0  0  0  0  0  0  0  0  0
  160.3458  141.5611  187.7696 C   0  0  0  0  0  0  0  0  0  0  0  0
  161.6498  141.9347  188.1084 C   0  0  0  0  0  0  0  0  0  0  0  0
  162.5217  142.4572  187.1864 C   0  0  0  0  0  0  0  0  0  0  0  0
  162.0582  142.6080  185.8769 C   0  0  0  0  0  0  0  0  0  0  0  0
  160.8040  142.2434  185.5769 C   0  0  0  0  0  0  0  0  0  0  0  0
  163.8988  142.8835  187.5074 C   0  0  0  0  0  0  0  0  0  0  0  0
  164.4525  141.8125  188.2479 F   0  0  0  0  0  0  0  0  0  0  0  0
  164.6160  143.0212  186.3439 F   0  0  0  0  0  0  0  0  0  0  0  0
  163.9113  144.0001  188.2849 F   0  0  0  0  0  0  0  0  0  0  0  0
  7  8  1  0  0  0
  8  9  1  0  0  0
  9 10  1  0  0  0
 10 11  1  0  0  0
 11 12  1  0  0  0
 12 13  1  0  0  0
 13  1  1  0  0  0
  1  2  2  0  0  0
  2  3  1  0  0  0
  3  4  2  0  0  0
  4  5  1  0  0  0
  5  6  2  0  0  0
  5 21  1  0  0  0
 21 22  1  0  0  0
 21 23  1  0  0  0
 21 24  1  0  0  0
  3 25  1  0  0  0
 25 26  2  0  0  0
 25 27  1  0  0  0
 27 29  1  0  0  0
 29 30  2  0  0  0
 30 31  1  0  0  0
 31 32  2  0  0  0
 32 33  1  0  0  0
 33 34  2  0  0  0
 32 35  1  0  0  0
 35 36  1  0  0  0
 35 37  1  0  0  0
 35 38  1  0  0  0
 10 14  1  0  0  0
 14 15  2  0  0  0
 14 16  2  0  0  0
 14 17  1  0  0  0
 17 18  1  0  0  0
 18 19  1  0  0  0
 19 20  1  0  0  0
 13  8  1  0  0  0
  6  1  1  0  0  0
 34 29  1  0  0  0
 20 17  1  0  0  0
 27 28  1  0  0  0
M  END
> <minimizedAffinity>
0.82961

> <CNNscore>
0.3548330069

> <CNNaffinity>
6.4868764877

> <CNN_VS>
2.3017578125

> <CNNaffinity_variance>
0.3915239573

$$$$
[H]c1c(C(=O)N([H])c2c([H])c([H])c(C(F)(F)F)c([H])c2[H])nc(C(F)(F)F)nc1N1C([H])([H])C([H])([H])N(S(=O)(=O)N2C([H])([H])C([H])([H])C2([H])[H])C([H])([H])[C@@]1([H])C([H])([H])[H]


 38 41  0  0  0  0  0  0  0  0999 V2000
  153.9701  139.7702  183.2016 C   0  0  0  0  0  0  0  0  0  0  0  0
  153.4386  138.7773  183.9991 C   0  0  0  0  0  0  0  0  0  0  0  0
  152.3558  138.0545  183.5784 C   0  0  0  0  0  0  0  0  0  0  0  0
  151.8038  138.3198  182.3683 N   0  0  0  0  0  0  0  0  0  0  0  0
  152.3248  139.2863  181.6019 C   0  0  0  0  0  0  0  0  0  0  0  0
  153.3626  139.9820  181.9981 N   0  0  0  0  0  0  0  0  0  0  0  0
  154.0669  142.6715  182.8433 C   0  0  0  0  0  0  0  0  0  0  0  0
  155.2016  141.9410  183.5347 C   0  0  0  0  0  0  0  0  0  0  0  0
  156.4996  142.3265  182.8176 C   0  0  0  0  0  0  0  0  0  0  0  0
  157.5936  141.5229  182.9553 N   0  0  0  0  0  0  0  0  0  0  0  0
  157.4342  140.1243  183.1039 C   0  0  0  0  0  0  0  0  0  0  0  0
  156.2641  139.7825  184.0072 C   0  0  0  0  0  0  0  0  0  0  0  0
  155.0880  140.5433  183.5526 N   0  0  0  0  0  0  0  0  0  0  0  0
  159.1557  142.0169  183.1606 S   0  0  0  0  0  0  0  0  0  0  0  0
  159.2010  143.5428  183.1884 O   0  0  0  0  0  0  0  0  0  0  0  0
  160.0376  141.6307  182.0019 O   0  0  0  0  0  0  0  0  0  0  0  0
  159.9810  141.5037  184.5808 N   0  0  0  0  0  0  0  0  0  0  0  0
  159.5599  142.1873  185.7948 C   0  0  0  0  0  0  0  0  0  0  0  0
  160.9521  142.5703  186.1454 C   0  0  0  0  0  0  0  0  0  0  0  0
  161.2572  142.2568  184.7134 C   0  0  0  0  0  0  0  0  0  0  0  0
  151.7098  139.5698  180.2737 C   0  0  0  0  0  0  0  0  0  0  0  0
  150.9519  140.7325  180.3820 F   0  0  0  0  0  0  0  0  0  0  0  0
  152.6908  139.7425  179.3140 F   0  0  0  0  0  0  0  0  0  0  0  0
  150.8971  138.4924  179.9549 F   0  0  0  0  0  0  0  0  0  0  0  0
  151.7825  136.9771  184.3898 C   0  0  0  0  0  0  0  0  0  0  0  0
  150.8291  136.3112  183.9487 O   0  0  0  0  0  0  0  0  0  0  0  0
  152.3312  136.7386  185.6626 N   0  0  0  0  0  0  0  0  0  0  0  0
  153.1480  137.3265  185.9937 H   0  0  0  0  0  0  0  0  0  0  0  0
  151.8265  135.7408  186.5132 C   0  0  0  0  0  0  0  0  0  0  0  0
  152.1834  134.4191  186.4812 C   0  0  0  0  0  0  0  0  0  0  0  0
  151.5768  133.4942  187.3364 C   0  0  0  0  0  0  0  0  0  0  0  0
  150.6090  133.8600  188.2380 C   0  0  0  0  0  0  0  0  0  0  0  0
  150.2414  135.2076  188.2749 C   0  0  0  0  0  0  0  0  0  0  0  0
  150.8367  136.0748  187.4446 C   0  0  0  0  0  0  0  0  0  0  0  0
  149.9290  132.9118  189.1434 C   0  0  0  0  0  0  0  0  0  0  0  0
  150.5571  131.6655  188.9103 F   0  0  0  0  0  0  0  0  0  0  0  0
  150.1644  133.2777  190.4465 F   0  0  0  0  0  0  0  0  0  0  0  0
  148.6065  132.7931  188.8462 F   0  0  0  0  0  0  0  0  0  0  0  0
  7  8  1  0  0  0
  8  9  1  0  0  0
  9 10  1  0  0  0
 10 11  1  0  0  0
 11 12  1  0  0  0
 12 13  1  0  0  0
 13  1  1  0  0  0
  1  2  2  0  0  0
  2  3  1  0  0  0
  3  4  2  0  0  0
  4  5  1  0  0  0
  5  6  2  0  0  0
  5 21  1  0  0  0
 21 22  1  0  0  0
 21 23  1  0  0  0
 21 24  1  0  0  0
  3 25  1  0  0  0
 25 26  2  0  0  0
 25 27  1  0  0  0
 27 29  1  0  0  0
 29 30  2  0  0  0
 30 31  1  0  0  0
 31 32  2  0  0  0
 32 33  1  0  0  0
 33 34  2  0  0  0
 32 35  1  0  0  0
 35 36  1  0  0  0
 35 37  1  0  0  0
 35 38  1  0  0  0
 10 14  1  0  0  0
 14 15  2  0  0  0
 14 16  2  0  0  0
 14 17  1  0  0  0
 17 18  1  0  0  0
 18 19  1  0  0  0
 19 20  1  0  0  0
 13  8  1  0  0  0
  6  1  1  0  0  0
 34 29  1  0  0  0
 20 17  1  0  0  0
 27 28  1  0  0  0
M  END
> <minimizedAffinity>
-7.49036

> <CNNscore>
0.3105062544

> <CNNaffinity>
6.5149435997

> <CNN_VS>
2.0229306221

> <CNNaffinity_variance>
0.0918088108

$$$$
[H]c1c(C(=O)N([H])c2c([H])c([H])c(C(F)(F)F)c([H])c2[H])nc(C(F)(F)F)nc1N1C([H])([H])C([H])([H])N(S(=O)(=O)N2C([H])([H])C([H])([H])C2([H])[H])C([H])([H])[C@@]1([H])C([H])([H])[H]


 38 41  0  0  0  0  0  0  0  0999 V2000
  153.4414  139.1028  182.7255 C   0  0  0  0  0  0  0  0  0  0  0  0
  153.9337  138.5784  183.9032 C   0  0  0  0  0  0  0  0  0  0  0  0
  154.9523  139.2037  184.5691 C   0  0  0  0  0  0  0  0  0  0  0  0
  155.4793  140.3466  184.0637 N   0  0  0  0  0  0  0  0  0  0  0  0
  154.9968  140.8473  182.9194 C   0  0  0  0  0  0  0  0  0  0  0  0
  154.0205  140.2541  182.2767 N   0  0  0  0  0  0  0  0  0  0  0  0
  151.9079  140.5936  180.7303 C   0  0  0  0  0  0  0  0  0  0  0  0
  151.6676  139.1110  180.9385 C   0  0  0  0  0  0  0  0  0  0  0  0
  150.1691  138.9210  181.1959 C   0  0  0  0  0  0  0  0  0  0  0  0
  149.7443  137.7785  181.8089 N   0  0  0  0  0  0  0  0  0  0  0  0
  150.5599  137.1459  182.7776 C   0  0  0  0  0  0  0  0  0  0  0  0
  152.0234  137.1584  182.3780 C   0  0  0  0  0  0  0  0  0  0  0  0
  152.3886  138.5321  181.9929 N   0  0  0  0  0  0  0  0  0  0  0  0
  148.4073  136.8924  181.4170 S   0  0  0  0  0  0  0  0  0  0  0  0
  148.7731  135.4101  181.4021 O   0  0  0  0  0  0  0  0  0  0  0  0
  147.9175  137.1778  180.0213 O   0  0  0  0  0  0  0  0  0  0  0  0
  147.0304  137.0188  182.4416 N   0  0  0  0  0  0  0  0  0  0  0  0
  147.1359  138.0569  183.4564 C   0  0  0  0  0  0  0  0  0  0  0  0
  146.8144  137.1114  184.5566 C   0  0  0  0  0  0  0  0  0  0  0  0
  147.1526  136.0459  183.5604 C   0  0  0  0  0  0  0  0  0  0  0  0
  155.5839  142.1039  182.3727 C   0  0  0  0  0  0  0  0  0  0  0  0
  154.5420  142.9667  182.0442 F   0  0  0  0  0  0  0  0  0  0  0  0
  156.4041  142.7025  183.3120 F   0  0  0  0  0  0  0  0  0  0  0  0
  156.3052  141.7648  181.2379 F   0  0  0  0  0  0  0  0  0  0  0  0
  155.4812  138.6870  185.8344 C   0  0  0  0  0  0  0  0  0  0  0  0
  156.6687  138.8961  186.1395 O   0  0  0  0  0  0  0  0  0  0  0  0
  154.6175  137.9516  186.6658 N   0  0  0  0  0  0  0  0  0  0  0  0
  153.6115  137.8047  186.3681 H   0  0  0  0  0  0  0  0  0  0  0  0
  155.0501  137.4019  187.8843 C   0  0  0  0  0  0  0  0  0  0  0  0
  155.7149  136.2129  188.0242 C   0  0  0  0  0  0  0  0  0  0  0  0
  156.0508  135.7269  189.2913 C   0  0  0  0  0  0  0  0  0  0  0  0
  155.7370  136.4079  190.4406 C   0  0  0  0  0  0  0  0  0  0  0  0
  155.0589  137.6220  190.3034 C   0  0  0  0  0  0  0  0  0  0  0  0
  154.7471  138.0665  189.0782 C   0  0  0  0  0  0  0  0  0  0  0  0
  156.0547  135.9197  191.7978 C   0  0  0  0  0  0  0  0  0  0  0  0
  156.6373  134.6451  191.6034 F   0  0  0  0  0  0  0  0  0  0  0  0
  156.9947  136.7423  192.3694 F   0  0  0  0  0  0  0  0  0  0  0  0
  154.9335  135.7730  192.5547 F   0  0  0  0  0  0  0  0  0  0  0  0
  7  8  1  0  0  0
  8  9  1  0  0  0
  9 10  1  0  0  0
 10 11  1  0  0  0
 11 12  1  0  0  0
 12 13  1  0  0  0
 13  1  1  0  0  0
  1  2  2  0  0  0
  2  3  1  0  0  0
  3  4  2  0  0  0
  4  5  1  0  0  0
  5  6  2  0  0  0
  5 21  1  0  0  0
 21 22  1  0  0  0
 21 23  1  0  0  0
 21 24  1  0  0  0
  3 25  1  0  0  0
 25 26  2  0  0  0
 25 27  1  0  0  0
 27 29  1  0  0  0
 29 30  2  0  0  0
 30 31  1  0  0  0
 31 32  2  0  0  0
 32 33  1  0  0  0
 33 34  2  0  0  0
 32 35  1  0  0  0
 35 36  1  0  0  0
 35 37  1  0  0  0
 35 38  1  0  0  0
 10 14  1  0  0  0
 14 15  2  0  0  0
 14 16  2  0  0  0
 14 17  1  0  0  0
 17 18  1  0  0  0
 18 19  1  0  0  0
 19 20  1  0  0  0
 13  8  1  0  0  0
  6  1  1  0  0  0
 34 29  1  0  0  0
 20 17  1  0  0  0
 27 28  1  0  0  0
M  END
> <minimizedAffinity>
-7.20359

> <CNNscore>
0.2801864445

> <CNNaffinity>
6.0970931053

> <CNN_VS>
1.7083228827

> <CNNaffinity_variance>
0.1282499731

$$$$
[H]c1c(C(=O)N([H])c2c([H])c([H])c(C(F)(F)F)c([H])c2[H])nc(C(F)(F)F)nc1N1C([H])([H])C([H])([H])N(S(=O)(=O)N2C([H])([H])C([H])([H])C2([H])[H])C([H])([H])[C@@]1([H])C([H])([H])[H]


 38 41  0  0  0  0  0  0  0  0999 V2000
  154.2643  140.0240  183.0885 C   0  0  0  0  0  0  0  0  0  0  0  0
  153.8954  139.1337  184.0763 C   0  0  0  0  0  0  0  0  0  0  0  0
  152.8269  138.2988  183.8943 C   0  0  0  0  0  0  0  0  0  0  0  0
  152.1278  138.3506  182.7333 N   0  0  0  0  0  0  0  0  0  0  0  0
  152.4916  139.2188  181.7810 C   0  0  0  0  0  0  0  0  0  0  0  0
  153.5147  140.0209  181.9481 N   0  0  0  0  0  0  0  0  0  0  0  0
  153.9548  142.9238  183.3130 C   0  0  0  0  0  0  0  0  0  0  0  0
  155.3253  142.2834  183.4186 C   0  0  0  0  0  0  0  0  0  0  0  0
  156.2353  142.9771  182.3995 C   0  0  0  0  0  0  0  0  0  0  0  0
  157.3750  142.3455  181.9949 N   0  0  0  0  0  0  0  0  0  0  0  0
  157.4109  140.9335  181.9025 C   0  0  0  0  0  0  0  0  0  0  0  0
  156.6827  140.2737  183.0584 C   0  0  0  0  0  0  0  0  0  0  0  0
  155.3564  140.9000  183.1908 N   0  0  0  0  0  0  0  0  0  0  0  0
  158.8527  143.0427  181.7569 S   0  0  0  0  0  0  0  0  0  0  0  0
  158.6826  144.5558  181.6444 O   0  0  0  0  0  0  0  0  0  0  0  0
  159.4784  142.6315  180.4497 O   0  0  0  0  0  0  0  0  0  0  0  0
  160.0587  142.8011  182.9606 N   0  0  0  0  0  0  0  0  0  0  0  0
  160.3891  141.4041  183.2015 C   0  0  0  0  0  0  0  0  0  0  0  0
  160.1572  141.5290  184.6638 C   0  0  0  0  0  0  0  0  0  0  0  0
  159.4221  142.7833  184.3052 C   0  0  0  0  0  0  0  0  0  0  0  0
  151.7158  139.2676  180.5089 C   0  0  0  0  0  0  0  0  0  0  0  0
  150.7816  140.2952  180.6055 F   0  0  0  0  0  0  0  0  0  0  0  0
  152.5584  139.5050  179.4379 F   0  0  0  0  0  0  0  0  0  0  0  0
  151.0756  138.0458  180.3668 F   0  0  0  0  0  0  0  0  0  0  0  0
  152.4241  137.3249  184.9128 C   0  0  0  0  0  0  0  0  0  0  0  0
  152.3999  136.1131  184.6341 O   0  0  0  0  0  0  0  0  0  0  0  0
  152.0621  137.8036  186.1847 N   0  0  0  0  0  0  0  0  0  0  0  0
  152.1050  138.8442  186.3788 H   0  0  0  0  0  0  0  0  0  0  0  0
  151.6423  136.9403  187.2106 C   0  0  0  0  0  0  0  0  0  0  0  0
  150.4171  136.3327  187.2813 C   0  0  0  0  0  0  0  0  0  0  0  0
  150.0774  135.5349  188.3781 C   0  0  0  0  0  0  0  0  0  0  0  0
  150.9427  135.3230  189.4219 C   0  0  0  0  0  0  0  0  0  0  0  0
  152.1944  135.9405  189.3544 C   0  0  0  0  0  0  0  0  0  0  0  0
  152.4964  136.7012  188.2933 C   0  0  0  0  0  0  0  0  0  0  0  0
  150.6156  134.5054  190.6075 C   0  0  0  0  0  0  0  0  0  0  0  0
  151.6264  134.8047  191.5513 F   0  0  0  0  0  0  0  0  0  0  0  0
  149.4088  134.9122  191.1226 F   0  0  0  0  0  0  0  0  0  0  0  0
  150.6628  133.1744  190.3290 F   0  0  0  0  0  0  0  0  0  0  0  0
  7  8  1  0  0  0
  8  9  1  0  0  0
  9 10  1  0  0  0
 10 11  1  0  0  0
 11 12  1  0  0  0
 12 13  1  0  0  0
 13  1  1  0  0  0
  1  2  2  0  0  0
  2  3  1  0  0  0
  3  4  2  0  0  0
  4  5  1  0  0  0
  5  6  2  0  0  0
  5 21  1  0  0  0
 21 22  1  0  0  0
 21 23  1  0  0  0
 21 24  1  0  0  0
  3 25  1  0  0  0
 25 26  2  0  0  0
 25 27  1  0  0  0
 27 29  1  0  0  0
 29 30  2  0  0  0
 30 31  1  0  0  0
 31 32  2  0  0  0
 32 33  1  0  0  0
 33 34  2  0  0  0
 32 35  1  0  0  0
 35 36  1  0  0  0
 35 37  1  0  0  0
 35 38  1  0  0  0
 10 14  1  0  0  0
 14 15  2  0  0  0
 14 16  2  0  0  0
 14 17  1  0  0  0
 17 18  1  0  0  0
 18 19  1  0  0  0
 19 20  1  0  0  0
 13  8  1  0  0  0
  6  1  1  0  0  0
 34 29  1  0  0  0
 20 17  1  0  0  0
 27 28  1  0  0  0
M  END
> <minimizedAffinity>
-7.85098

> <CNNscore>
0.2791991234

> <CNNaffinity>
6.5310769081

> <CNN_VS>
1.8234709501

> <CNNaffinity_variance>
0.0840606466

$$$$
[H]c1c(C(=O)N([H])c2c([H])c([H])c(C(F)(F)F)c([H])c2[H])nc(C(F)(F)F)nc1N1C([H])([H])C([H])([H])N(S(=O)(=O)N2C([H])([H])C([H])([H])C2([H])[H])C([H])([H])[C@@]1([H])C([H])([H])[H]


 38 41  0  0  0  0  0  0  0  0999 V2000
  154.0283  139.7553  183.1656 C   0  0  0  0  0  0  0  0  0  0  0  0
  153.5036  138.7531  183.9559 C   0  0  0  0  0  0  0  0  0  0  0  0
  152.4155  138.0371  183.5373 C   0  0  0  0  0  0  0  0  0  0  0  0
  151.8515  138.3184  182.3364 N   0  0  0  0  0  0  0  0  0  0  0  0
  152.3660  139.2938  181.5769 C   0  0  0  0  0  0  0  0  0  0  0  0
  153.4089  139.9831  181.9711 N   0  0  0  0  0  0  0  0  0  0  0  0
  154.0511  142.6777  183.0454 C   0  0  0  0  0  0  0  0  0  0  0  0
  155.2379  141.9191  183.6070 C   0  0  0  0  0  0  0  0  0  0  0  0
  156.4839  142.3920  182.8509 C   0  0  0  0  0  0  0  0  0  0  0  0
  157.5985  141.6051  182.8578 N   0  0  0  0  0  0  0  0  0  0  0  0
  157.4736  140.1957  182.8982 C   0  0  0  0  0  0  0  0  0  0  0  0
  156.3656  139.7541  183.8358 C   0  0  0  0  0  0  0  0  0  0  0  0
  155.1509  140.5224  183.5148 N   0  0  0  0  0  0  0  0  0  0  0  0
  159.1608  142.1164  183.0132 S   0  0  0  0  0  0  0  0  0  0  0  0
  159.2059  143.6380  182.8960 O   0  0  0  0  0  0  0  0  0  0  0  0
  160.0412  141.6220  181.8952 O   0  0  0  0  0  0  0  0  0  0  0  0
  159.9881  141.7402  184.4746 N   0  0  0  0  0  0  0  0  0  0  0  0
  160.2336  142.8894  185.3334 C   0  0  0  0  0  0  0  0  0  0  0  0
  161.6873  142.5965  185.4275 C   0  0  0  0  0  0  0  0  0  0  0  0
  161.4551  141.7321  184.2271 C   0  0  0  0  0  0  0  0  0  0  0  0
  151.7378  139.5948  180.2588 C   0  0  0  0  0  0  0  0  0  0  0  0
  150.9581  138.5033  179.8864 F   0  0  0  0  0  0  0  0  0  0  0  0
  150.9437  140.7238  180.3487 F   0  0  0  0  0  0  0  0  0  0  0  0
  152.7632  139.7889  179.3457 F   0  0  0  0  0  0  0  0  0  0  0  0
  151.8490  136.9503  184.3409 C   0  0  0  0  0  0  0  0  0  0  0  0
  151.7222  137.0916  185.5701 O   0  0  0  0  0  0  0  0  0  0  0  0
  151.4743  135.7637  183.6855 N   0  0  0  0  0  0  0  0  0  0  0  0
  151.5939  135.6913  182.6353 H   0  0  0  0  0  0  0  0  0  0  0  0
  150.9446  134.6657  184.3839 C   0  0  0  0  0  0  0  0  0  0  0  0
  151.6805  133.6629  184.9567 C   0  0  0  0  0  0  0  0  0  0  0  0
  151.0510  132.5819  185.5812 C   0  0  0  0  0  0  0  0  0  0  0  0
  149.6847  132.4746  185.6513 C   0  0  0  0  0  0  0  0  0  0  0  0
  148.9292  133.4955  185.0685 C   0  0  0  0  0  0  0  0  0  0  0  0
  149.5556  134.5208  184.4750 C   0  0  0  0  0  0  0  0  0  0  0  0
  148.9809  131.3400  186.2825 C   0  0  0  0  0  0  0  0  0  0  0  0
  147.6072  131.6704  186.2058 F   0  0  0  0  0  0  0  0  0  0  0  0
  149.1942  130.2027  185.5422 F   0  0  0  0  0  0  0  0  0  0  0  0
  149.3214  131.2032  187.5928 F   0  0  0  0  0  0  0  0  0  0  0  0
  7  8  1  0  0  0
  8  9  1  0  0  0
  9 10  1  0  0  0
 10 11  1  0  0  0
 11 12  1  0  0  0
 12 13  1  0  0  0
 13  1  1  0  0  0
  1  2  2  0  0  0
  2  3  1  0  0  0
  3  4  2  0  0  0
  4  5  1  0  0  0
  5  6  2  0  0  0
  5 21  1  0  0  0
 21 22  1  0  0  0
 21 23  1  0  0  0
 21 24  1  0  0  0
  3 25  1  0  0  0
 25 26  2  0  0  0
 25 27  1  0  0  0
 27 29  1  0  0  0
 29 30  2  0  0  0
 30 31  1  0  0  0
 31 32  2  0  0  0
 32 33  1  0  0  0
 33 34  2  0  0  0
 32 35  1  0  0  0
 35 36  1  0  0  0
 35 37  1  0  0  0
 35 38  1  0  0  0
 10 14  1  0  0  0
 14 15  2  0  0  0
 14 16  2  0  0  0
 14 17  1  0  0  0
 17 18  1  0  0  0
 18 19  1  0  0  0
 19 20  1  0  0  0
 13  8  1  0  0  0
  6  1  1  0  0  0
 34 29  1  0  0  0
 20 17  1  0  0  0
 27 28  1  0  0  0
M  END
> <minimizedAffinity>
-7.08763

> <CNNscore>
0.2753170431

> <CNNaffinity>
6.5327744484

> <CNN_VS>
1.7985841036

> <CNNaffinity_variance>
0.1146760955

$$$$
[H]c1c(C(=O)N([H])c2c([H])c([H])c(C(F)(F)F)c([H])c2[H])nc(C(F)(F)F)nc1N1C([H])([H])C([H])([H])N(S(=O)(=O)N2C([H])([H])C([H])([H])C2([H])[H])C([H])([H])[C@@]1([H])C([H])([H])[H]


 38 41  0  0  0  0  0  0  0  0999 V2000
  152.9711  136.2973  183.3735 C   0  0  0  0  0  0  0  0  0  0  0  0
  152.5439  136.1707  184.6796 C   0  0  0  0  0  0  0  0  0  0  0  0
  152.7174  137.1958  185.5690 C   0  0  0  0  0  0  0  0  0  0  0  0
  153.3147  138.3425  185.1595 N   0  0  0  0  0  0  0  0  0  0  0  0
  153.7277  138.4560  183.8909 C   0  0  0  0  0  0  0  0  0  0  0  0
  153.5639  137.4785  183.0332 N   0  0  0  0  0  0  0  0  0  0  0  0
  150.5749  136.0679  181.7119 C   0  0  0  0  0  0  0  0  0  0  0  0
  151.7701  135.1663  181.4713 C   0  0  0  0  0  0  0  0  0  0  0  0
  151.2655  133.7197  181.4952 C   0  0  0  0  0  0  0  0  0  0  0  0
  152.1593  132.7124  181.7146 N   0  0  0  0  0  0  0  0  0  0  0  0
  153.2785  132.9254  182.5546 C   0  0  0  0  0  0  0  0  0  0  0  0
  153.8909  134.2970  182.3418 C   0  0  0  0  0  0  0  0  0  0  0  0
  152.8146  135.3006  182.3974 N   0  0  0  0  0  0  0  0  0  0  0  0
  152.2029  131.2529  180.9437 S   0  0  0  0  0  0  0  0  0  0  0  0
  150.7775  130.7357  180.7651 O   0  0  0  0  0  0  0  0  0  0  0  0
  152.8935  130.1920  181.7605 O   0  0  0  0  0  0  0  0  0  0  0  0
  152.9169  131.1913  179.3791 N   0  0  0  0  0  0  0  0  0  0  0  0
  153.5076  132.4482  178.9435 C   0  0  0  0  0  0  0  0  0  0  0  0
  152.7446  132.4455  177.6685 C   0  0  0  0  0  0  0  0  0  0  0  0
  151.8733  131.4341  178.3469 C   0  0  0  0  0  0  0  0  0  0  0  0
  154.3834  139.7208  183.4518 C   0  0  0  0  0  0  0  0  0  0  0  0
  154.0145  140.7335  184.3328 F   0  0  0  0  0  0  0  0  0  0  0  0
  155.7594  139.5789  183.4573 F   0  0  0  0  0  0  0  0  0  0  0  0
  153.9254  140.0030  182.1737 F   0  0  0  0  0  0  0  0  0  0  0  0
  152.2534  137.1032  186.9560 C   0  0  0  0  0  0  0  0  0  0  0  0
  151.0724  137.3783  187.2325 O   0  0  0  0  0  0  0  0  0  0  0  0
  153.1770  136.7121  187.9420 N   0  0  0  0  0  0  0  0  0  0  0  0
  154.1711  136.4803  187.6585 H   0  0  0  0  0  0  0  0  0  0  0  0
  152.8206  136.6201  189.2979 C   0  0  0  0  0  0  0  0  0  0  0  0
  151.6949  136.0072  189.7801 C   0  0  0  0  0  0  0  0  0  0  0  0
  151.4035  136.0219  191.1474 C   0  0  0  0  0  0  0  0  0  0  0  0
  152.2197  136.6407  192.0607 C   0  0  0  0  0  0  0  0  0  0  0  0
  153.3699  137.2672  191.5738 C   0  0  0  0  0  0  0  0  0  0  0  0
  153.6272  137.2403  190.2589 C   0  0  0  0  0  0  0  0  0  0  0  0
  151.9376  136.6972  193.5092 C   0  0  0  0  0  0  0  0  0  0  0  0
  150.5700  136.3554  193.6315 F   0  0  0  0  0  0  0  0  0  0  0  0
  152.6819  135.7407  194.1561 F   0  0  0  0  0  0  0  0  0  0  0  0
  152.1176  137.9503  194.0081 F   0  0  0  0  0  0  0  0  0  0  0  0
  7  8  1  0  0  0
  8  9  1  0  0  0
  9 10  1  0  0  0
 10 11  1  0  0  0
 11 12  1  0  0  0
 12 13  1  0  0  0
 13  1  1  0  0  0
  1  2  2  0  0  0
  2  3  1  0  0  0
  3  4  2  0  0  0
  4  5  1  0  0  0
  5  6  2  0  0  0
  5 21  1  0  0  0
 21 22  1  0  0  0
 21 23  1  0  0  0
 21 24  1  0  0  0
  3 25  1  0  0  0
 25 26  2  0  0  0
 25 27  1  0  0  0
 27 29  1  0  0  0
 29 30  2  0  0  0
 30 31  1  0  0  0
 31 32  2  0  0  0
 32 33  1  0  0  0
 33 34  2  0  0  0
 32 35  1  0  0  0
 35 36  1  0  0  0
 35 37  1  0  0  0
 35 38  1  0  0  0
 10 14  1  0  0  0
 14 15  2  0  0  0
 14 16  2  0  0  0
 14 17  1  0  0  0
 17 18  1  0  0  0
 18 19  1  0  0  0
 19 20  1  0  0  0
 13  8  1  0  0  0
  6  1  1  0  0  0
 34 29  1  0  0  0
 20 17  1  0  0  0
 27 28  1  0  0  0
M  END
> <minimizedAffinity>
-5.77930

> <CNNscore>
0.2719714940

> <CNNaffinity>
5.6198492050

> <CNN_VS>
1.5284388065

> <CNNaffinity_variance>
0.1416370124

$$$$
[H]c1c(C(=O)N([H])c2c([H])c([H])c(C(F)(F)F)c([H])c2[H])nc(C(F)(F)F)nc1N1C([H])([H])C([H])([H])N(S(=O)(=O)N2C([H])([H])C([H])([H])C2([H])[H])C([H])([H])[C@@]1([H])C([H])([H])[H]


 38 41  0  0  0  0  0  0  0  0999 V2000
  153.0951  138.5231  182.5836 C   0  0  0  0  0  0  0  0  0  0  0  0
  153.6427  138.0499  183.7586 C   0  0  0  0  0  0  0  0  0  0  0  0
  154.4228  138.8610  184.5367 C   0  0  0  0  0  0  0  0  0  0  0  0
  154.6573  140.1384  184.1460 N   0  0  0  0  0  0  0  0  0  0  0  0
  154.1236  140.5886  183.0035 C   0  0  0  0  0  0  0  0  0  0  0  0
  153.3745  139.8175  182.2536 N   0  0  0  0  0  0  0  0  0  0  0  0
  150.5994  139.5497  181.4555 C   0  0  0  0  0  0  0  0  0  0  0  0
  151.1241  138.1849  181.0537 C   0  0  0  0  0  0  0  0  0  0  0  0
  149.9986  137.1727  181.2917 C   0  0  0  0  0  0  0  0  0  0  0  0
  150.3139  135.8503  181.4076 N   0  0  0  0  0  0  0  0  0  0  0  0
  151.5445  135.4610  181.9886 C   0  0  0  0  0  0  0  0  0  0  0  0
  152.6849  136.3606  181.5506 C   0  0  0  0  0  0  0  0  0  0  0  0
  152.2714  137.7613  181.7399 N   0  0  0  0  0  0  0  0  0  0  0  0
  149.4786  134.5811  180.7611 S   0  0  0  0  0  0  0  0  0  0  0  0
  148.6972  135.0627  179.5410 O   0  0  0  0  0  0  0  0  0  0  0  0
  148.4283  134.0467  181.6995 O   0  0  0  0  0  0  0  0  0  0  0  0
  150.3789  133.2161  180.2247 N   0  0  0  0  0  0  0  0  0  0  0  0
  149.7112  132.4269  179.2000 C   0  0  0  0  0  0  0  0  0  0  0  0
  149.8689  131.1658  179.9698 C   0  0  0  0  0  0  0  0  0  0  0  0
  150.1302  132.0672  181.1366 C   0  0  0  0  0  0  0  0  0  0  0  0
  154.3883  141.9943  182.5834 C   0  0  0  0  0  0  0  0  0  0  0  0
  153.1993  142.5397  182.1072 F   0  0  0  0  0  0  0  0  0  0  0  0
  154.8455  142.7407  183.6545 F   0  0  0  0  0  0  0  0  0  0  0  0
  155.3383  141.9532  181.5741 F   0  0  0  0  0  0  0  0  0  0  0  0
  154.9989  138.3976  185.8021 C   0  0  0  0  0  0  0  0  0  0  0  0
  156.1985  138.6122  186.0506 O   0  0  0  0  0  0  0  0  0  0  0  0
  154.1652  137.7056  186.6989 N   0  0  0  0  0  0  0  0  0  0  0  0
  153.1474  137.5524  186.4478 H   0  0  0  0  0  0  0  0  0  0  0  0
  154.6430  137.2079  187.9228 C   0  0  0  0  0  0  0  0  0  0  0  0
  155.2291  135.9836  188.1042 C   0  0  0  0  0  0  0  0  0  0  0  0
  155.6188  135.5598  189.3783 C   0  0  0  0  0  0  0  0  0  0  0  0
  155.4373  136.3387  190.4934 C   0  0  0  0  0  0  0  0  0  0  0  0
  154.8400  137.5891  190.3136 C   0  0  0  0  0  0  0  0  0  0  0  0
  154.4743  137.9726  189.0828 C   0  0  0  0  0  0  0  0  0  0  0  0
  155.8151  135.9202  191.8584 C   0  0  0  0  0  0  0  0  0  0  0  0
  156.3271  134.6092  191.7130 F   0  0  0  0  0  0  0  0  0  0  0  0
  156.8242  136.7298  192.3204 F   0  0  0  0  0  0  0  0  0  0  0  0
  154.7368  135.8750  192.6871 F   0  0  0  0  0  0  0  0  0  0  0  0
  7  8  1  0  0  0
  8  9  1  0  0  0
  9 10  1  0  0  0
 10 11  1  0  0  0
 11 12  1  0  0  0
 12 13  1  0  0  0
 13  1  1  0  0  0
  1  2  2  0  0  0
  2  3  1  0  0  0
  3  4  2  0  0  0
  4  5  1  0  0  0
  5  6  2  0  0  0
  5 21  1  0  0  0
 21 22  1  0  0  0
 21 23  1  0  0  0
 21 24  1  0  0  0
  3 25  1  0  0  0
 25 26  2  0  0  0
 25 27  1  0  0  0
 27 29  1  0  0  0
 29 30  2  0  0  0
 30 31  1  0  0  0
 31 32  2  0  0  0
 32 33  1  0  0  0
 33 34  2  0  0  0
 32 35  1  0  0  0
 35 36  1  0  0  0
 35 37  1  0  0  0
 35 38  1  0  0  0
 10 14  1  0  0  0
 14 15  2  0  0  0
 14 16  2  0  0  0
 14 17  1  0  0  0
 17 18  1  0  0  0
 18 19  1  0  0  0
 19 20  1  0  0  0
 13  8  1  0  0  0
  6  1  1  0  0  0
 34 29  1  0  0  0
 20 17  1  0  0  0
 27 28  1  0  0  0
M  END
> <minimizedAffinity>
-6.58347

> <CNNscore>
0.2560376227

> <CNNaffinity>
5.9619240761

> <CNN_VS>
1.5264768600

> <CNNaffinity_variance>
0.1017495394

$$$$
[H]c1c(C(=O)N([H])c2c([H])c([H])c(C(F)(F)F)c([H])c2[H])nc(C(F)(F)F)nc1N1C([H])([H])C([H])([H])N(S(=O)(=O)N2C([H])([H])C([H])([H])C2([H])[H])C([H])([H])[C@@]1([H])C([H])([H])[H]


 38 41  0  0  0  0  0  0  0  0999 V2000
  153.4764  137.7730  184.2939 C   0  0  0  0  0  0  0  0  0  0  0  0
  154.6124  138.5398  184.4548 C   0  0  0  0  0  0  0  0  0  0  0  0
  154.8754  139.5778  183.6032 C   0  0  0  0  0  0  0  0  0  0  0  0
  154.0109  139.8509  182.5946 N   0  0  0  0  0  0  0  0  0  0  0  0
  152.9121  139.1005  182.4447 C   0  0  0  0  0  0  0  0  0  0  0  0
  152.6532  138.1052  183.2574 N   0  0  0  0  0  0  0  0  0  0  0  0
  152.6303  138.1484  187.0685 C   0  0  0  0  0  0  0  0  0  0  0  0
  152.5994  136.7726  186.4316 C   0  0  0  0  0  0  0  0  0  0  0  0
  153.3912  135.8280  187.3419 C   0  0  0  0  0  0  0  0  0  0  0  0
  153.8670  134.6582  186.8253 N   0  0  0  0  0  0  0  0  0  0  0  0
  154.2684  134.5910  185.4696 C   0  0  0  0  0  0  0  0  0  0  0  0
  153.3265  135.3612  184.5633 C   0  0  0  0  0  0  0  0  0  0  0  0
  153.1266  136.7040  185.1339 N   0  0  0  0  0  0  0  0  0  0  0  0
  153.8684  133.1844  187.5697 S   0  0  0  0  0  0  0  0  0  0  0  0
  154.0731  133.3790  189.0701 O   0  0  0  0  0  0  0  0  0  0  0  0
  155.0254  132.3226  187.1361 O   0  0  0  0  0  0  0  0  0  0  0  0
  152.4608  132.2059  187.4179 N   0  0  0  0  0  0  0  0  0  0  0  0
  151.2658  132.9377  187.0244 C   0  0  0  0  0  0  0  0  0  0  0  0
  150.4800  132.4082  188.1690 C   0  0  0  0  0  0  0  0  0  0  0  0
  151.8144  132.0554  188.7495 C   0  0  0  0  0  0  0  0  0  0  0  0
  151.9688  139.4093  181.3323 C   0  0  0  0  0  0  0  0  0  0  0  0
  152.1444  140.7411  180.9670 F   0  0  0  0  0  0  0  0  0  0  0  0
  152.2204  138.5924  180.2447 F   0  0  0  0  0  0  0  0  0  0  0  0
  150.6832  139.2059  181.8105 F   0  0  0  0  0  0  0  0  0  0  0  0
  156.0596  140.4268  183.7612 C   0  0  0  0  0  0  0  0  0  0  0  0
  156.0608  141.5793  183.2938 O   0  0  0  0  0  0  0  0  0  0  0  0
  157.1737  139.8958  184.4356 N   0  0  0  0  0  0  0  0  0  0  0  0
  157.1244  138.9112  184.8235 H   0  0  0  0  0  0  0  0  0  0  0  0
  158.3563  140.6340  184.6106 C   0  0  0  0  0  0  0  0  0  0  0  0
  159.3986  140.6801  183.7236 C   0  0  0  0  0  0  0  0  0  0  0  0
  160.5584  141.4022  184.0209 C   0  0  0  0  0  0  0  0  0  0  0  0
  160.7068  142.0915  185.1982 C   0  0  0  0  0  0  0  0  0  0  0  0
  159.6459  142.0479  186.1066 C   0  0  0  0  0  0  0  0  0  0  0  0
  158.5451  141.3483  185.7993 C   0  0  0  0  0  0  0  0  0  0  0  0
  161.9225  142.8483  185.5596 C   0  0  0  0  0  0  0  0  0  0  0  0
  162.9776  142.1972  184.8778 F   0  0  0  0  0  0  0  0  0  0  0  0
  161.8215  144.1303  185.0765 F   0  0  0  0  0  0  0  0  0  0  0  0
  162.1706  142.7928  186.8963 F   0  0  0  0  0  0  0  0  0  0  0  0
  7  8  1  0  0  0
  8  9  1  0  0  0
  9 10  1  0  0  0
 10 11  1  0  0  0
 11 12  1  0  0  0
 12 13  1  0  0  0
 13  1  1  0  0  0
  1  2  2  0  0  0
  2  3  1  0  0  0
  3  4  2  0  0  0
  4  5  1  0  0  0
  5  6  2  0  0  0
  5 21  1  0  0  0
 21 22  1  0  0  0
 21 23  1  0  0  0
 21 24  1  0  0  0
  3 25  1  0  0  0
 25 26  2  0  0  0
 25 27  1  0  0  0
 27 29  1  0  0  0
 29 30  2  0  0  0
 30 31  1  0  0  0
 31 32  2  0  0  0
 32 33  1  0  0  0
 33 34  2  0  0  0
 32 35  1  0  0  0
 35 36  1  0  0  0
 35 37  1  0  0  0
 35 38  1  0  0  0
 10 14  1  0  0  0
 14 15  2  0  0  0
 14 16  2  0  0  0
 14 17  1  0  0  0
 17 18  1  0  0  0
 18 19  1  0  0  0
 19 20  1  0  0  0
 13  8  1  0  0  0
  6  1  1  0  0  0
 34 29  1  0  0  0
 20 17  1  0  0  0
 27 28  1  0  0  0
M  END
> <minimizedAffinity>
-8.33359

> <CNNscore>
0.2236670256

> <CNNaffinity>
6.1919560432

> <CNN_VS>
1.3849363327

> <CNNaffinity_variance>
0.0990409553

$$$$
[H]c1c(N2C([H])([H])C([H])([H])OC([H])([H])C2([H])[H])nc(C(F)(F)F)nc1N1C([H])([H])C([H])([H])N(c2c([H])c(N3C([H])([H])C([H])([H])C(F)(F)C3([H])[H])nc(C(F)(F)F)c2[H])C([H])([H])[C@@]1([H])C([H])([H])[H]


 40 44  0  0  0  0  0  0  0  0999 V2000
  154.5430  137.6038  185.6114 C   0  0  0  0  0  0  0  0  0  0  0  0
  153.1549  138.1867  185.5572 C   0  0  0  0  0  0  0  0  0  0  0  0
  152.6954  138.4558  186.9902 C   0  0  0  0  0  0  0  0  0  0  0  0
  152.6357  137.2101  187.6910 N   0  0  0  0  0  0  0  0  0  0  0  0
  152.0730  136.0340  187.1123 C   0  0  0  0  0  0  0  0  0  0  0  0
  151.8509  136.0447  185.6396 C   0  0  0  0  0  0  0  0  0  0  0  0
  152.1825  137.2899  184.9885 N   0  0  0  0  0  0  0  0  0  0  0  0
  151.5064  137.6181  183.7931 C   0  0  0  0  0  0  0  0  0  0  0  0
  150.2188  137.2000  183.4910 C   0  0  0  0  0  0  0  0  0  0  0  0
  149.5476  137.5705  182.3471 C   0  0  0  0  0  0  0  0  0  0  0  0
  150.2253  138.3827  181.5055 N   0  0  0  0  0  0  0  0  0  0  0  0
  151.4814  138.8190  181.7455 C   0  0  0  0  0  0  0  0  0  0  0  0
  152.0869  138.4385  182.8623 N   0  0  0  0  0  0  0  0  0  0  0  0
  148.2420  137.1880  182.1043 N   0  0  0  0  0  0  0  0  0  0  0  0
  147.7493  135.8616  182.3575 C   0  0  0  0  0  0  0  0  0  0  0  0
  147.4589  135.2896  180.9688 C   0  0  0  0  0  0  0  0  0  0  0  0
  147.5165  136.2537  179.9757 O   0  0  0  0  0  0  0  0  0  0  0  0
  146.8812  137.4321  180.1889 C   0  0  0  0  0  0  0  0  0  0  0  0
  147.2633  138.1071  181.5081 C   0  0  0  0  0  0  0  0  0  0  0  0
  152.0850  139.7139  180.7355 C   0  0  0  0  0  0  0  0  0  0  0  0
  151.1381  140.6952  180.3833 F   0  0  0  0  0  0  0  0  0  0  0  0
  153.1581  140.4219  181.2419 F   0  0  0  0  0  0  0  0  0  0  0  0
  152.4794  139.0789  179.5879 F   0  0  0  0  0  0  0  0  0  0  0  0
  153.1583  137.0542  189.0298 C   0  0  0  0  0  0  0  0  0  0  0  0
  152.3735  136.7295  190.1015 C   0  0  0  0  0  0  0  0  0  0  0  0
  152.9603  136.5744  191.3397 C   0  0  0  0  0  0  0  0  0  0  0  0
  154.3078  136.7490  191.4756 N   0  0  0  0  0  0  0  0  0  0  0  0
  155.1250  137.0693  190.4594 C   0  0  0  0  0  0  0  0  0  0  0  0
  154.5231  137.2201  189.2294 C   0  0  0  0  0  0  0  0  0  0  0  0
  152.2201  136.2170  192.4562 N   0  0  0  0  0  0  0  0  0  0  0  0
  152.5245  135.1646  193.4307 C   0  0  0  0  0  0  0  0  0  0  0  0
  151.2210  134.3709  193.3258 C   0  0  0  0  0  0  0  0  0  0  0  0
  150.1579  135.4002  192.8885 C   0  0  0  0  0  0  0  0  0  0  0  0
  149.8203  135.1585  191.5666 F   0  0  0  0  0  0  0  0  0  0  0  0
  149.0894  135.4426  193.7285 F   0  0  0  0  0  0  0  0  0  0  0  0
  150.9412  136.7296  192.9040 C   0  0  0  0  0  0  0  0  0  0  0  0
  156.5646  137.2131  190.7000 C   0  0  0  0  0  0  0  0  0  0  0  0
  156.9366  136.9043  192.0006 F   0  0  0  0  0  0  0  0  0  0  0  0
  157.0391  138.4417  190.3693 F   0  0  0  0  0  0  0  0  0  0  0  0
  157.2319  136.2943  189.8938 F   0  0  0  0  0  0  0  0  0  0  0  0
  1  2  1  0  0  0
  2  3  1  0  0  0
  3  4  1  0  0  0
  4  5  1  0  0  0
  5  6  1  0  0  0
  6  7  1  0  0  0
  7  8  1  0  0  0
  8  9  2  0  0  0
  9 10  1  0  0  0
 10 11  2  0  0  0
 11 12  1  0  0  0
 12 13  2  0  0  0
 12 20  1  0  0  0
 20 21  1  0  0  0
 20 22  1  0  0  0
 20 23  1  0  0  0
 10 14  1  0  0  0
 14 15  1  0  0  0
 15 16  1  0  0  0
 16 17  1  0  0  0
 17 18  1  0  0  0
 18 19  1  0  0  0
  4 24  1  0  0  0
 24 25  2  0  0  0
 25 26  1  0  0  0
 26 27  2  0  0  0
 27 28  1  0  0  0
 28 29  2  0  0  0
 28 37  1  0  0  0
 37 38  1  0  0  0
 37 39  1  0  0  0
 37 40  1  0  0  0
 26 30  1  0  0  0
 30 31  1  0  0  0
 31 32  1  0  0  0
 32 33  1  0  0  0
 33 34  1  0  0  0
 33 35  1  0  0  0
 33 36  1  0  0  0
  7  2  1  0  0  0
 13  8  1  0  0  0
 19 14  1  0  0  0
 29 24  1  0  0  0
 36 30  1  0  0  0
M  END
> <minimizedAffinity>
-7.63645

> <CNNscore>
0.5784743428

> <CNNaffinity>
6.4201250076

> <CNN_VS>
3.7138776779

> <CNNaffinity_variance>
0.1164170057

$$$$
[H]c1c(N2C([H])([H])C([H])([H])OC([H])([H])C2([H])[H])nc(C(F)(F)F)nc1N1C([H])([H])C([H])([H])N(c2c([H])c(N3C([H])([H])C([H])([H])C(F)(F)C3([H])[H])nc(C(F)(F)F)c2[H])C([H])([H])[C@@]1([H])C([H])([H])[H]


 40 44  0  0  0  0  0  0  0  0999 V2000
  153.2634  138.5245  187.4988 C   0  0  0  0  0  0  0  0  0  0  0  0
  154.6724  138.0219  187.3205 C   0  0  0  0  0  0  0  0  0  0  0  0
  155.2272  138.6110  186.0236 C   0  0  0  0  0  0  0  0  0  0  0  0
  154.4356  138.1347  184.9314 N   0  0  0  0  0  0  0  0  0  0  0  0
  154.0259  136.7728  184.8215 C   0  0  0  0  0  0  0  0  0  0  0  0
  154.1580  135.9264  186.0399 C   0  0  0  0  0  0  0  0  0  0  0  0
  154.7525  136.5917  187.1750 N   0  0  0  0  0  0  0  0  0  0  0  0
  155.4398  135.8044  188.1246 C   0  0  0  0  0  0  0  0  0  0  0  0
  156.0868  134.6151  187.8229 C   0  0  0  0  0  0  0  0  0  0  0  0
  156.8006  133.8825  188.7449 C   0  0  0  0  0  0  0  0  0  0  0  0
  156.8389  134.3913  189.9967 N   0  0  0  0  0  0  0  0  0  0  0  0
  156.2257  135.5425  190.3493 C   0  0  0  0  0  0  0  0  0  0  0  0
  155.5523  136.2159  189.4263 N   0  0  0  0  0  0  0  0  0  0  0  0
  157.4866  132.7337  188.3991 N   0  0  0  0  0  0  0  0  0  0  0  0
  157.5338  131.5630  189.2319 C   0  0  0  0  0  0  0  0  0  0  0  0
  158.9900  131.4799  189.6929 C   0  0  0  0  0  0  0  0  0  0  0  0
  159.8145  132.3557  189.0058 O   0  0  0  0  0  0  0  0  0  0  0  0
  159.7056  132.4126  187.6557 C   0  0  0  0  0  0  0  0  0  0  0  0
  158.2755  132.6447  187.1631 C   0  0  0  0  0  0  0  0  0  0  0  0
  156.3701  135.9761  191.7551 C   0  0  0  0  0  0  0  0  0  0  0  0
  156.6541  137.3556  191.7716 F   0  0  0  0  0  0  0  0  0  0  0  0
  155.1907  135.8482  192.4634 F   0  0  0  0  0  0  0  0  0  0  0  0
  157.3665  135.3335  192.4406 F   0  0  0  0  0  0  0  0  0  0  0  0
  153.9817  139.0070  183.8717 C   0  0  0  0  0  0  0  0  0  0  0  0
  153.1782  138.5810  182.8505 C   0  0  0  0  0  0  0  0  0  0  0  0
  152.7703  139.4880  181.8952 C   0  0  0  0  0  0  0  0  0  0  0  0
  153.1751  140.7893  181.9825 N   0  0  0  0  0  0  0  0  0  0  0  0
  153.9640  141.2614  182.9611 C   0  0  0  0  0  0  0  0  0  0  0  0
  154.3621  140.3427  183.9074 C   0  0  0  0  0  0  0  0  0  0  0  0
  151.9319  139.1207  180.8539 N   0  0  0  0  0  0  0  0  0  0  0  0
  151.8349  139.7345  179.5258 C   0  0  0  0  0  0  0  0  0  0  0  0
  150.3392  140.0556  179.5303 C   0  0  0  0  0  0  0  0  0  0  0  0
  149.7069  139.0115  180.4742 C   0  0  0  0  0  0  0  0  0  0  0  0
  149.3306  139.6423  181.6490 F   0  0  0  0  0  0  0  0  0  0  0  0
  148.7042  138.3075  179.8842 F   0  0  0  0  0  0  0  0  0  0  0  0
  150.9020  138.1022  180.8292 C   0  0  0  0  0  0  0  0  0  0  0  0
  154.3269  142.6823  182.9825 C   0  0  0  0  0  0  0  0  0  0  0  0
  155.3086  143.0113  182.0588 F   0  0  0  0  0  0  0  0  0  0  0  0
  154.6949  143.1188  184.2145 F   0  0  0  0  0  0  0  0  0  0  0  0
  153.2055  143.4208  182.6129 F   0  0  0  0  0  0  0  0  0  0  0  0
  1  2  1  0  0  0
  2  3  1  0  0  0
  3  4  1  0  0  0
  4  5  1  0  0  0
  5  6  1  0  0  0
  6  7  1  0  0  0
  7  8  1  0  0  0
  8  9  2  0  0  0
  9 10  1  0  0  0
 10 11  2  0  0  0
 11 12  1  0  0  0
 12 13  2  0  0  0
 12 20  1  0  0  0
 20 21  1  0  0  0
 20 22  1  0  0  0
 20 23  1  0  0  0
 10 14  1  0  0  0
 14 15  1  0  0  0
 15 16  1  0  0  0
 16 17  1  0  0  0
 17 18  1  0  0  0
 18 19  1  0  0  0
  4 24  1  0  0  0
 24 25  2  0  0  0
 25 26  1  0  0  0
 26 27  2  0  0  0
 27 28  1  0  0  0
 28 29  2  0  0  0
 28 37  1  0  0  0
 37 38  1  0  0  0
 37 39  1  0  0  0
 37 40  1  0  0  0
 26 30  1  0  0  0
 30 31  1  0  0  0
 31 32  1  0  0  0
 32 33  1  0  0  0
 33 34  1  0  0  0
 33 35  1  0  0  0
 33 36  1  0  0  0
  7  2  1  0  0  0
 13  8  1  0  0  0
 19 14  1  0  0  0
 29 24  1  0  0  0
 36 30  1  0  0  0
M  END
> <minimizedAffinity>
-9.04023

> <CNNscore>
0.5615249872

> <CNNaffinity>
6.5810508728

> <CNN_VS>
3.6954245567

> <CNNaffinity_variance>
0.1037902385

$$$$
[H]c1c(N2C([H])([H])C([H])([H])OC([H])([H])C2([H])[H])nc(C(F)(F)F)nc1N1C([H])([H])C([H])([H])N(c2c([H])c(N3C([H])([H])C([H])([H])C(F)(F)C3([H])[H])nc(C(F)(F)F)c2[H])C([H])([H])[C@@]1([H])C([H])([H])[H]


 40 44  0  0  0  0  0  0  0  0999 V2000
  153.3251  135.9217  184.5906 C   0  0  0  0  0  0  0  0  0  0  0  0
  152.5453  137.2092  184.5305 C   0  0  0  0  0  0  0  0  0  0  0  0
  152.5043  137.8069  185.9370 C   0  0  0  0  0  0  0  0  0  0  0  0
  151.8116  136.8984  186.7980 N   0  0  0  0  0  0  0  0  0  0  0  0
  150.6037  136.2472  186.4087 C   0  0  0  0  0  0  0  0  0  0  0  0
  150.2565  136.2756  184.9606 C   0  0  0  0  0  0  0  0  0  0  0  0
  151.1731  137.0258  184.1351 N   0  0  0  0  0  0  0  0  0  0  0  0
  150.6800  137.5994  182.9427 C   0  0  0  0  0  0  0  0  0  0  0  0
  149.4391  137.3060  182.3968 C   0  0  0  0  0  0  0  0  0  0  0  0
  148.9446  137.9114  181.2631 C   0  0  0  0  0  0  0  0  0  0  0  0
  149.7521  138.8304  180.6883 N   0  0  0  0  0  0  0  0  0  0  0  0
  150.9711  139.1545  181.1729 C   0  0  0  0  0  0  0  0  0  0  0  0
  151.4042  138.5474  182.2695 N   0  0  0  0  0  0  0  0  0  0  0  0
  147.6782  137.6430  180.7792 N   0  0  0  0  0  0  0  0  0  0  0  0
  146.9457  136.4503  181.1068 C   0  0  0  0  0  0  0  0  0  0  0  0
  146.8748  135.6715  179.7922 C   0  0  0  0  0  0  0  0  0  0  0  0
  147.2902  136.4250  178.7065 O   0  0  0  0  0  0  0  0  0  0  0  0
  146.8121  137.6874  178.5820 C   0  0  0  0  0  0  0  0  0  0  0  0
  147.0021  138.5436  179.8360 C   0  0  0  0  0  0  0  0  0  0  0  0
  151.7310  140.1890  180.4398 C   0  0  0  0  0  0  0  0  0  0  0  0
  150.8160  141.0611  179.8184 F   0  0  0  0  0  0  0  0  0  0  0  0
  152.4676  140.9933  181.2881 F   0  0  0  0  0  0  0  0  0  0  0  0
  152.5630  139.6930  179.4715 F   0  0  0  0  0  0  0  0  0  0  0  0
  152.2992  136.5650  188.1174 C   0  0  0  0  0  0  0  0  0  0  0  0
  151.9458  135.4182  188.7732 C   0  0  0  0  0  0  0  0  0  0  0  0
  152.4799  135.1668  190.0194 C   0  0  0  0  0  0  0  0  0  0  0  0
  153.3463  136.0632  190.5767 N   0  0  0  0  0  0  0  0  0  0  0  0
  153.7262  137.2041  189.9794 C   0  0  0  0  0  0  0  0  0  0  0  0
  153.1841  137.4400  188.7351 C   0  0  0  0  0  0  0  0  0  0  0  0
  152.1815  134.0074  190.7186 N   0  0  0  0  0  0  0  0  0  0  0  0
  150.8928  133.3113  190.7863 C   0  0  0  0  0  0  0  0  0  0  0  0
  150.7197  133.2966  192.3062 C   0  0  0  0  0  0  0  0  0  0  0  0
  152.1539  133.3299  192.8744 C   0  0  0  0  0  0  0  0  0  0  0  0
  152.3883  134.5817  193.4202 F   0  0  0  0  0  0  0  0  0  0  0  0
  152.4053  132.3029  193.7293 F   0  0  0  0  0  0  0  0  0  0  0  0
  153.0274  133.2351  191.6058 C   0  0  0  0  0  0  0  0  0  0  0  0
  154.6809  138.0939  190.6488 C   0  0  0  0  0  0  0  0  0  0  0  0
  154.9573  139.2453  189.9255 F   0  0  0  0  0  0  0  0  0  0  0  0
  155.8425  137.4741  190.9814 F   0  0  0  0  0  0  0  0  0  0  0  0
  154.1039  138.5311  191.8385 F   0  0  0  0  0  0  0  0  0  0  0  0
  1  2  1  0  0  0
  2  3  1  0  0  0
  3  4  1  0  0  0
  4  5  1  0  0  0
  5  6  1  0  0  0
  6  7  1  0  0  0
  7  8  1  0  0  0
  8  9  2  0  0  0
  9 10  1  0  0  0
 10 11  2  0  0  0
 11 12  1  0  0  0
 12 13  2  0  0  0
 12 20  1  0  0  0
 20 21  1  0  0  0
 20 22  1  0  0  0
 20 23  1  0  0  0
 10 14  1  0  0  0
 14 15  1  0  0  0
 15 16  1  0  0  0
 16 17  1  0  0  0
 17 18  1  0  0  0
 18 19  1  0  0  0
  4 24  1  0  0  0
 24 25  2  0  0  0
 25 26  1  0  0  0
 26 27  2  0  0  0
 27 28  1  0  0  0
 28 29  2  0  0  0
 28 37  1  0  0  0
 37 38  1  0  0  0
 37 39  1  0  0  0
 37 40  1  0  0  0
 26 30  1  0  0  0
 30 31  1  0  0  0
 31 32  1  0  0  0
 32 33  1  0  0  0
 33 34  1  0  0  0
 33 35  1  0  0  0
 33 36  1  0  0  0
  7  2  1  0  0  0
 13  8  1  0  0  0
 19 14  1  0  0  0
 29 24  1  0  0  0
 36 30  1  0  0  0
M  END
> <minimizedAffinity>
-6.69731

> <CNNscore>
0.4486165345

> <CNNaffinity>
6.2168221474

> <CNN_VS>
2.7889692783

> <CNNaffinity_variance>
0.0315118060

$$$$
[H]c1c(N2C([H])([H])C([H])([H])OC([H])([H])C2([H])[H])nc(C(F)(F)F)nc1N1C([H])([H])C([H])([H])N(c2c([H])c(N3C([H])([H])C([H])([H])C(F)(F)C3([H])[H])nc(C(F)(F)F)c2[H])C([H])([H])[C@@]1([H])C([H])([H])[H]


 40 44  0  0  0  0  0  0  0  0999 V2000
  153.9684  135.5681  185.3112 C   0  0  0  0  0  0  0  0  0  0  0  0
  153.5605  136.3567  186.5283 C   0  0  0  0  0  0  0  0  0  0  0  0
  153.0471  137.7192  186.0624 C   0  0  0  0  0  0  0  0  0  0  0  0
  154.1171  138.4115  185.4126 N   0  0  0  0  0  0  0  0  0  0  0  0
  155.4414  138.4404  185.9419 C   0  0  0  0  0  0  0  0  0  0  0  0
  155.7636  137.4558  187.0119 C   0  0  0  0  0  0  0  0  0  0  0  0
  154.6548  136.6281  187.4239 N   0  0  0  0  0  0  0  0  0  0  0  0
  154.6584  136.1148  188.7394 C   0  0  0  0  0  0  0  0  0  0  0  0
  153.5440  136.0903  189.5650 C   0  0  0  0  0  0  0  0  0  0  0  0
  153.5440  135.5379  190.8264 C   0  0  0  0  0  0  0  0  0  0  0  0
  154.7183  135.0079  191.2354 N   0  0  0  0  0  0  0  0  0  0  0  0
  155.8364  135.0059  190.4767 C   0  0  0  0  0  0  0  0  0  0  0  0
  155.7878  135.5465  189.2667 N   0  0  0  0  0  0  0  0  0  0  0  0
  152.4010  135.4729  191.6004 N   0  0  0  0  0  0  0  0  0  0  0  0
  151.4604  136.5544  191.7095 C   0  0  0  0  0  0  0  0  0  0  0  0
  151.5947  137.0339  193.1559 C   0  0  0  0  0  0  0  0  0  0  0  0
  152.3479  136.1693  193.9333 O   0  0  0  0  0  0  0  0  0  0  0  0
  152.0841  134.8419  193.8546 C   0  0  0  0  0  0  0  0  0  0  0  0
  152.0890  134.2975  192.4244 C   0  0  0  0  0  0  0  0  0  0  0  0
  157.0406  134.3762  191.0584 C   0  0  0  0  0  0  0  0  0  0  0  0
  157.3936  135.0788  192.2269 F   0  0  0  0  0  0  0  0  0  0  0  0
  156.7995  133.0831  191.4812 F   0  0  0  0  0  0  0  0  0  0  0  0
  158.1283  134.3710  190.2261 F   0  0  0  0  0  0  0  0  0  0  0  0
  153.9321  139.1159  184.1638 C   0  0  0  0  0  0  0  0  0  0  0  0
  153.1207  138.6563  183.1637 C   0  0  0  0  0  0  0  0  0  0  0  0
  152.9815  139.4066  182.0151 C   0  0  0  0  0  0  0  0  0  0  0  0
  153.6545  140.5887  181.8944 N   0  0  0  0  0  0  0  0  0  0  0  0
  154.4645  141.0864  182.8426 C   0  0  0  0  0  0  0  0  0  0  0  0
  154.5922  140.3250  183.9837 C   0  0  0  0  0  0  0  0  0  0  0  0
  152.1501  139.0060  180.9805 N   0  0  0  0  0  0  0  0  0  0  0  0
  152.0633  139.5758  179.6322 C   0  0  0  0  0  0  0  0  0  0  0  0
  150.5681  139.8984  179.6154 C   0  0  0  0  0  0  0  0  0  0  0  0
  149.9277  138.8866  180.5886 C   0  0  0  0  0  0  0  0  0  0  0  0
  149.5439  139.5562  181.7393 F   0  0  0  0  0  0  0  0  0  0  0  0
  148.9284  138.1646  180.0150 F   0  0  0  0  0  0  0  0  0  0  0  0
  151.1191  137.9883  180.9819 C   0  0  0  0  0  0  0  0  0  0  0  0
  155.1270  142.3776  182.6303 C   0  0  0  0  0  0  0  0  0  0  0  0
  155.7785  142.8517  183.7599 F   0  0  0  0  0  0  0  0  0  0  0  0
  154.2891  143.3331  182.1521 F   0  0  0  0  0  0  0  0  0  0  0  0
  156.1228  142.2007  181.6729 F   0  0  0  0  0  0  0  0  0  0  0  0
  1  2  1  0  0  0
  2  3  1  0  0  0
  3  4  1  0  0  0
  4  5  1  0  0  0
  5  6  1  0  0  0
  6  7  1  0  0  0
  7  8  1  0  0  0
  8  9  2  0  0  0
  9 10  1  0  0  0
 10 11  2  0  0  0
 11 12  1  0  0  0
 12 13  2  0  0  0
 12 20  1  0  0  0
 20 21  1  0  0  0
 20 22  1  0  0  0
 20 23  1  0  0  0
 10 14  1  0  0  0
 14 15  1  0  0  0
 15 16  1  0  0  0
 16 17  1  0  0  0
 17 18  1  0  0  0
 18 19  1  0  0  0
  4 24  1  0  0  0
 24 25  2  0  0  0
 25 26  1  0  0  0
 26 27  2  0  0  0
 27 28  1  0  0  0
 28 29  2  0  0  0
 28 37  1  0  0  0
 37 38  1  0  0  0
 37 39  1  0  0  0
 37 40  1  0  0  0
 26 30  1  0  0  0
 30 31  1  0  0  0
 31 32  1  0  0  0
 32 33  1  0  0  0
 33 34  1  0  0  0
 33 35  1  0  0  0
 33 36  1  0  0  0
  7  2  1  0  0  0
 13  8  1  0  0  0
 19 14  1  0  0  0
 29 24  1  0  0  0
 36 30  1  0  0  0
M  END
> <minimizedAffinity>
-8.72914

> <CNNscore>
0.4382477105

> <CNNaffinity>
6.4379820824

> <CNN_VS>
2.8214309216

> <CNNaffinity_variance>
0.0956520215

$$$$
[H]c1c(N2C([H])([H])C([H])([H])OC([H])([H])C2([H])[H])nc(C(F)(F)F)nc1N1C([H])([H])C([H])([H])N(c2c([H])c(N3C([H])([H])C([H])([H])C(F)(F)C3([H])[H])nc(C(F)(F)F)c2[H])C([H])([H])[C@@]1([H])C([H])([H])[H]


 40 44  0  0  0  0  0  0  0  0999 V2000
  153.8909  136.2573  185.3064 C   0  0  0  0  0  0  0  0  0  0  0  0
  153.6266  137.1478  186.4924 C   0  0  0  0  0  0  0  0  0  0  0  0
  153.3851  138.5668  185.9776 C   0  0  0  0  0  0  0  0  0  0  0  0
  154.5737  139.0234  185.3253 N   0  0  0  0  0  0  0  0  0  0  0  0
  155.8738  138.8190  185.8755 C   0  0  0  0  0  0  0  0  0  0  0  0
  155.9925  137.8265  186.9796 C   0  0  0  0  0  0  0  0  0  0  0  0
  154.7428  137.2367  187.3976 N   0  0  0  0  0  0  0  0  0  0  0  0
  154.6352  136.7749  188.7277 C   0  0  0  0  0  0  0  0  0  0  0  0
  153.4989  136.9216  189.5097 C   0  0  0  0  0  0  0  0  0  0  0  0
  153.3846  136.4196  190.7868 C   0  0  0  0  0  0  0  0  0  0  0  0
  154.4666  135.7602  191.2577 N   0  0  0  0  0  0  0  0  0  0  0  0
  155.6008  135.5892  190.5435 C   0  0  0  0  0  0  0  0  0  0  0  0
  155.6637  136.0876  189.3161 N   0  0  0  0  0  0  0  0  0  0  0  0
  152.2166  136.5279  191.5175 N   0  0  0  0  0  0  0  0  0  0  0  0
  152.1278  137.2452  192.7600 C   0  0  0  0  0  0  0  0  0  0  0  0
  151.8844  136.1610  193.8112 C   0  0  0  0  0  0  0  0  0  0  0  0
  151.5905  134.9309  193.2460 O   0  0  0  0  0  0  0  0  0  0  0  0
  150.6794  134.8877  192.2432 C   0  0  0  0  0  0  0  0  0  0  0  0
  150.9765  135.8603  191.0997 C   0  0  0  0  0  0  0  0  0  0  0  0
  156.6937  134.8335  191.1911 C   0  0  0  0  0  0  0  0  0  0  0  0
  156.2082  133.5602  191.5475 F   0  0  0  0  0  0  0  0  0  0  0  0
  157.7399  134.5841  190.3236 F   0  0  0  0  0  0  0  0  0  0  0  0
  157.1915  135.4252  192.3216 F   0  0  0  0  0  0  0  0  0  0  0  0
  154.5387  139.7091  184.0532 C   0  0  0  0  0  0  0  0  0  0  0  0
  155.5211  140.5676  183.6437 C   0  0  0  0  0  0  0  0  0  0  0  0
  155.4203  141.1585  182.4018 C   0  0  0  0  0  0  0  0  0  0  0  0
  154.3458  140.8804  181.6063 N   0  0  0  0  0  0  0  0  0  0  0  0
  153.3528  140.0477  181.9577 C   0  0  0  0  0  0  0  0  0  0  0  0
  153.4688  139.4656  183.2009 C   0  0  0  0  0  0  0  0  0  0  0  0
  156.3999  142.0139  181.9212 N   0  0  0  0  0  0  0  0  0  0  0  0
  157.3662  141.7536  180.8496 C   0  0  0  0  0  0  0  0  0  0  0  0
  158.6526  142.0395  181.6264 C   0  0  0  0  0  0  0  0  0  0  0  0
  158.2442  143.0434  182.7247 C   0  0  0  0  0  0  0  0  0  0  0  0
  158.2493  142.3925  183.9479 F   0  0  0  0  0  0  0  0  0  0  0  0
  158.9920  144.1788  182.7045 F   0  0  0  0  0  0  0  0  0  0  0  0
  156.7662  143.3348  182.3902 C   0  0  0  0  0  0  0  0  0  0  0  0
  152.2504  139.7939  181.0243 C   0  0  0  0  0  0  0  0  0  0  0  0
  152.6615  139.2031  179.8380 F   0  0  0  0  0  0  0  0  0  0  0  0
  151.5183  140.9046  180.7511 F   0  0  0  0  0  0  0  0  0  0  0  0
  151.3846  138.8776  181.6161 F   0  0  0  0  0  0  0  0  0  0  0  0
  1  2  1  0  0  0
  2  3  1  0  0  0
  3  4  1  0  0  0
  4  5  1  0  0  0
  5  6  1  0  0  0
  6  7  1  0  0  0
  7  8  1  0  0  0
  8  9  2  0  0  0
  9 10  1  0  0  0
 10 11  2  0  0  0
 11 12  1  0  0  0
 12 13  2  0  0  0
 12 20  1  0  0  0
 20 21  1  0  0  0
 20 22  1  0  0  0
 20 23  1  0  0  0
 10 14  1  0  0  0
 14 15  1  0  0  0
 15 16  1  0  0  0
 16 17  1  0  0  0
 17 18  1  0  0  0
 18 19  1  0  0  0
  4 24  1  0  0  0
 24 25  2  0  0  0
 25 26  1  0  0  0
 26 27  2  0  0  0
 27 28  1  0  0  0
 28 29  2  0  0  0
 28 37  1  0  0  0
 37 38  1  0  0  0
 37 39  1  0  0  0
 37 40  1  0  0  0
 26 30  1  0  0  0
 30 31  1  0  0  0
 31 32  1  0  0  0
 32 33  1  0  0  0
 33 34  1  0  0  0
 33 35  1  0  0  0
 33 36  1  0  0  0
  7  2  1  0  0  0
 13  8  1  0  0  0
 19 14  1  0  0  0
 29 24  1  0  0  0
 36 30  1  0  0  0
M  END
> <minimizedAffinity>
-9.04942

> <CNNscore>
0.4064285159

> <CNNaffinity>
6.7020492554

> <CNN_VS>
2.7239038944

> <CNNaffinity_variance>
0.0121087637

$$$$
[H]c1c(N2C([H])([H])C([H])([H])OC([H])([H])C2([H])[H])nc(C(F)(F)F)nc1N1C([H])([H])C([H])([H])N(c2c([H])c(N3C([H])([H])C([H])([H])C(F)(F)C3([H])[H])nc(C(F)(F)F)c2[H])C([H])([H])[C@@]1([H])C([H])([H])[H]


 40 44  0  0  0  0  0  0  0  0999 V2000
  153.8074  135.5334  185.1332 C   0  0  0  0  0  0  0  0  0  0  0  0
  153.3156  136.2574  186.3594 C   0  0  0  0  0  0  0  0  0  0  0  0
  152.7745  137.6190  185.9230 C   0  0  0  0  0  0  0  0  0  0  0  0
  153.8471  138.3738  185.3519 N   0  0  0  0  0  0  0  0  0  0  0  0
  155.1438  138.4273  185.9439 C   0  0  0  0  0  0  0  0  0  0  0  0
  155.4525  137.4119  186.9889 C   0  0  0  0  0  0  0  0  0  0  0  0
  154.3569  136.5302  187.3156 N   0  0  0  0  0  0  0  0  0  0  0  0
  154.3191  135.9644  188.6088 C   0  0  0  0  0  0  0  0  0  0  0  0
  153.3769  135.0332  189.0202 C   0  0  0  0  0  0  0  0  0  0  0  0
  153.3811  134.4465  190.2660 C   0  0  0  0  0  0  0  0  0  0  0  0
  154.3752  134.8357  191.0951 N   0  0  0  0  0  0  0  0  0  0  0  0
  155.3179  135.7403  190.7506 C   0  0  0  0  0  0  0  0  0  0  0  0
  155.2755  136.2766  189.5385 N   0  0  0  0  0  0  0  0  0  0  0  0
  152.4654  133.4754  190.6243 N   0  0  0  0  0  0  0  0  0  0  0  0
  152.7110  132.0670  190.4746 C   0  0  0  0  0  0  0  0  0  0  0  0
  151.7348  131.6222  189.3841 C   0  0  0  0  0  0  0  0  0  0  0  0
  150.8011  132.5986  189.0779 O   0  0  0  0  0  0  0  0  0  0  0  0
  150.1750  133.2300  190.1012 C   0  0  0  0  0  0  0  0  0  0  0  0
  151.1331  133.8188  191.1391 C   0  0  0  0  0  0  0  0  0  0  0  0
  156.3486  136.0535  191.7629 C   0  0  0  0  0  0  0  0  0  0  0  0
  155.7444  136.0451  193.0352 F   0  0  0  0  0  0  0  0  0  0  0  0
  157.3271  135.0801  191.8284 F   0  0  0  0  0  0  0  0  0  0  0  0
  156.9510  137.2716  191.5916 F   0  0  0  0  0  0  0  0  0  0  0  0
  153.6940  139.1214  184.1241 C   0  0  0  0  0  0  0  0  0  0  0  0
  152.9439  138.6763  183.0709 C   0  0  0  0  0  0  0  0  0  0  0  0
  152.8304  139.4671  181.9469 C   0  0  0  0  0  0  0  0  0  0  0  0
  153.4674  140.6742  181.9029 N   0  0  0  0  0  0  0  0  0  0  0  0
  154.2171  141.1594  182.9057 C   0  0  0  0  0  0  0  0  0  0  0  0
  154.3198  140.3574  184.0211 C   0  0  0  0  0  0  0  0  0  0  0  0
  152.0600  139.0817  180.8607 N   0  0  0  0  0  0  0  0  0  0  0  0
  152.0484  139.6726  179.5188 C   0  0  0  0  0  0  0  0  0  0  0  0
  150.5557  139.9931  179.4222 C   0  0  0  0  0  0  0  0  0  0  0  0
  149.8636  138.9651  180.3415 C   0  0  0  0  0  0  0  0  0  0  0  0
  149.4136  139.6160  181.4789 F   0  0  0  0  0  0  0  0  0  0  0  0
  148.9002  138.2508  179.7009 F   0  0  0  0  0  0  0  0  0  0  0  0
  151.0330  138.0625  180.7877 C   0  0  0  0  0  0  0  0  0  0  0  0
  154.8440  142.4788  182.7739 C   0  0  0  0  0  0  0  0  0  0  0  0
  153.9325  143.4975  182.5361 F   0  0  0  0  0  0  0  0  0  0  0  0
  155.8211  142.5117  181.8315 F   0  0  0  0  0  0  0  0  0  0  0  0
  155.4468  142.7946  183.9889 F   0  0  0  0  0  0  0  0  0  0  0  0
  1  2  1  0  0  0
  2  3  1  0  0  0
  3  4  1  0  0  0
  4  5  1  0  0  0
  5  6  1  0  0  0
  6  7  1  0  0  0
  7  8  1  0  0  0
  8  9  2  0  0  0
  9 10  1  0  0  0
 10 11  2  0  0  0
 11 12  1  0  0  0
 12 13  2  0  0  0
 12 20  1  0  0  0
 20 21  1  0  0  0
 20 22  1  0  0  0
 20 23  1  0  0  0
 10 14  1  0  0  0
 14 15  1  0  0  0
 15 16  1  0  0  0
 16 17  1  0  0  0
 17 18  1  0  0  0
 18 19  1  0  0  0
  4 24  1  0  0  0
 24 25  2  0  0  0
 25 26  1  0  0  0
 26 27  2  0  0  0
 27 28  1  0  0  0
 28 29  2  0  0  0
 28 37  1  0  0  0
 37 38  1  0  0  0
 37 39  1  0  0  0
 37 40  1  0  0  0
 26 30  1  0  0  0
 30 31  1  0  0  0
 31 32  1  0  0  0
 32 33  1  0  0  0
 33 34  1  0  0  0
 33 35  1  0  0  0
 33 36  1  0  0  0
  7  2  1  0  0  0
 13  8  1  0  0  0
 19 14  1  0  0  0
 29 24  1  0  0  0
 36 30  1  0  0  0
M  END
> <minimizedAffinity>
-7.68182

> <CNNscore>
0.3693417907

> <CNNaffinity>
6.2920603752

> <CNN_VS>
2.3239209652

> <CNNaffinity_variance>
0.1458747089

$$$$
[H]c1c(N2C([H])([H])C([H])([H])OC([H])([H])C2([H])[H])nc(C(F)(F)F)nc1N1C([H])([H])C([H])([H])N(c2c([H])c(N3C([H])([H])C([H])([H])C(F)(F)C3([H])[H])nc(C(F)(F)F)c2[H])C([H])([H])[C@@]1([H])C([H])([H])[H]


 40 44  0  0  0  0  0  0  0  0999 V2000
  153.5912  137.6890  185.4943 C   0  0  0  0  0  0  0  0  0  0  0  0
  152.2346  137.0524  185.3391 C   0  0  0  0  0  0  0  0  0  0  0  0
  151.6094  136.9201  186.7278 C   0  0  0  0  0  0  0  0  0  0  0  0
  152.4289  136.0517  187.5156 N   0  0  0  0  0  0  0  0  0  0  0  0
  152.9656  134.8338  187.0024 C   0  0  0  0  0  0  0  0  0  0  0  0
  152.9307  134.6490  185.5249 C   0  0  0  0  0  0  0  0  0  0  0  0
  152.2899  135.7193  184.7981 N   0  0  0  0  0  0  0  0  0  0  0  0
  151.6933  135.4170  183.5544 C   0  0  0  0  0  0  0  0  0  0  0  0
  150.8120  136.2591  182.8924 C   0  0  0  0  0  0  0  0  0  0  0  0
  150.2780  135.9796  181.6542 C   0  0  0  0  0  0  0  0  0  0  0  0
  150.6625  134.8084  181.0996 N   0  0  0  0  0  0  0  0  0  0  0  0
  151.5147  133.9476  181.6985 C   0  0  0  0  0  0  0  0  0  0  0  0
  152.0063  134.2609  182.8897 N   0  0  0  0  0  0  0  0  0  0  0  0
  149.4514  136.8678  180.9926 N   0  0  0  0  0  0  0  0  0  0  0  0
  149.9296  138.0639  180.3547 C   0  0  0  0  0  0  0  0  0  0  0  0
  149.3504  139.2034  181.1949 C   0  0  0  0  0  0  0  0  0  0  0  0
  148.3987  138.7638  182.1004 O   0  0  0  0  0  0  0  0  0  0  0  0
  147.4404  137.9120  181.6600 C   0  0  0  0  0  0  0  0  0  0  0  0
  147.9954  136.6802  180.9413 C   0  0  0  0  0  0  0  0  0  0  0  0
  151.8501  132.7123  180.9591 C   0  0  0  0  0  0  0  0  0  0  0  0
  152.7816  131.9757  181.7164 F   0  0  0  0  0  0  0  0  0  0  0  0
  150.7602  131.8738  180.8244 F   0  0  0  0  0  0  0  0  0  0  0  0
  152.3931  132.9299  179.7207 F   0  0  0  0  0  0  0  0  0  0  0  0
  152.7836  136.3589  188.8830 C   0  0  0  0  0  0  0  0  0  0  0  0
  152.0788  135.8909  189.9573 C   0  0  0  0  0  0  0  0  0  0  0  0
  152.5039  136.2116  191.2293 C   0  0  0  0  0  0  0  0  0  0  0  0
  153.6142  136.9891  191.3948 N   0  0  0  0  0  0  0  0  0  0  0  0
  154.3424  137.4765  190.3773 C   0  0  0  0  0  0  0  0  0  0  0  0
  153.9046  137.1465  189.1134 C   0  0  0  0  0  0  0  0  0  0  0  0
  151.8470  135.7419  192.3562 N   0  0  0  0  0  0  0  0  0  0  0  0
  151.7309  136.3990  193.6619 C   0  0  0  0  0  0  0  0  0  0  0  0
  152.3041  135.2802  194.5335 C   0  0  0  0  0  0  0  0  0  0  0  0
  152.0124  133.9779  193.7591 C   0  0  0  0  0  0  0  0  0  0  0  0
  153.2013  133.4927  193.2386 F   0  0  0  0  0  0  0  0  0  0  0  0
  151.3260  133.0675  194.5000 F   0  0  0  0  0  0  0  0  0  0  0  0
  151.1786  134.4725  192.5586 C   0  0  0  0  0  0  0  0  0  0  0  0
  155.5342  138.2845  190.6561 C   0  0  0  0  0  0  0  0  0  0  0  0
  156.5104  137.5962  191.3622 F   0  0  0  0  0  0  0  0  0  0  0  0
  155.2495  139.4511  191.2902 F   0  0  0  0  0  0  0  0  0  0  0  0
  156.1226  138.6216  189.4397 F   0  0  0  0  0  0  0  0  0  0  0  0
  1  2  1  0  0  0
  2  3  1  0  0  0
  3  4  1  0  0  0
  4  5  1  0  0  0
  5  6  1  0  0  0
  6  7  1  0  0  0
  7  8  1  0  0  0
  8  9  2  0  0  0
  9 10  1  0  0  0
 10 11  2  0  0  0
 11 12  1  0  0  0
 12 13  2  0  0  0
 12 20  1  0  0  0
 20 21  1  0  0  0
 20 22  1  0  0  0
 20 23  1  0  0  0
 10 14  1  0  0  0
 14 15  1  0  0  0
 15 16  1  0  0  0
 16 17  1  0  0  0
 17 18  1  0  0  0
 18 19  1  0  0  0
  4 24  1  0  0  0
 24 25  2  0  0  0
 25 26  1  0  0  0
 26 27  2  0  0  0
 27 28  1  0  0  0
 28 29  2  0  0  0
 28 37  1  0  0  0
 37 38  1  0  0  0
 37 39  1  0  0  0
 37 40  1  0  0  0
 26 30  1  0  0  0
 30 31  1  0  0  0
 31 32  1  0  0  0
 32 33  1  0  0  0
 33 34  1  0  0  0
 33 35  1  0  0  0
 33 36  1  0  0  0
  7  2  1  0  0  0
 13  8  1  0  0  0
 19 14  1  0  0  0
 29 24  1  0  0  0
 36 30  1  0  0  0
M  END
> <minimizedAffinity>
-6.34965

> <CNNscore>
0.3674483001

> <CNNaffinity>
6.0993132591

> <CNN_VS>
2.2411823273

> <CNNaffinity_variance>
0.0254630409

$$$$
[H]c1c(N2C([H])([H])C([H])([H])OC([H])([H])C2([H])[H])nc(C(F)(F)F)nc1N1C([H])([H])C([H])([H])N(c2c([H])c(N3C([H])([H])C([H])([H])C(F)(F)C3([H])[H])nc(C(F)(F)F)c2[H])C([H])([H])[C@@]1([H])C([H])([H])[H]


 40 44  0  0  0  0  0  0  0  0999 V2000
  156.2446  138.1007  186.9561 C   0  0  0  0  0  0  0  0  0  0  0  0
  155.2919  136.9358  187.0258 C   0  0  0  0  0  0  0  0  0  0  0  0
  154.4982  136.8913  185.7201 C   0  0  0  0  0  0  0  0  0  0  0  0
  153.7332  138.0951  185.6106 N   0  0  0  0  0  0  0  0  0  0  0  0
  153.0099  138.6436  186.7110 C   0  0  0  0  0  0  0  0  0  0  0  0
  153.3380  138.1179  188.0653 C   0  0  0  0  0  0  0  0  0  0  0  0
  154.3188  137.0584  188.0799 N   0  0  0  0  0  0  0  0  0  0  0  0
  154.2799  136.1282  189.1416 C   0  0  0  0  0  0  0  0  0  0  0  0
  154.9138  134.8948  189.1151 C   0  0  0  0  0  0  0  0  0  0  0  0
  154.9156  134.0176  190.1766 C   0  0  0  0  0  0  0  0  0  0  0  0
  154.2468  134.4268  191.2777 N   0  0  0  0  0  0  0  0  0  0  0  0
  153.6085  135.6149  191.3600 C   0  0  0  0  0  0  0  0  0  0  0  0
  153.6368  136.4287  190.3132 N   0  0  0  0  0  0  0  0  0  0  0  0
  155.6091  132.8228  190.1418 N   0  0  0  0  0  0  0  0  0  0  0  0
  155.5290  131.8344  191.1824 C   0  0  0  0  0  0  0  0  0  0  0  0
  156.9182  131.8395  191.8229 C   0  0  0  0  0  0  0  0  0  0  0  0
  157.8392  132.5655  191.0856 O   0  0  0  0  0  0  0  0  0  0  0  0
  157.8919  132.3615  189.7464 C   0  0  0  0  0  0  0  0  0  0  0  0
  156.5359  132.4963  189.0499 C   0  0  0  0  0  0  0  0  0  0  0  0
  152.9320  135.9259  192.6370 C   0  0  0  0  0  0  0  0  0  0  0  0
  152.8657  137.3256  192.7797 F   0  0  0  0  0  0  0  0  0  0  0  0
  151.6158  135.5058  192.6450 F   0  0  0  0  0  0  0  0  0  0  0  0
  153.5617  135.4199  193.7430 F   0  0  0  0  0  0  0  0  0  0  0  0
  153.6551  138.8483  184.3792 C   0  0  0  0  0  0  0  0  0  0  0  0
  152.9236  138.4356  183.3000 C   0  0  0  0  0  0  0  0  0  0  0  0
  152.8834  139.2303  182.1738 C   0  0  0  0  0  0  0  0  0  0  0  0
  153.5729  140.4089  182.1534 N   0  0  0  0  0  0  0  0  0  0  0  0
  154.3074  140.8617  183.1822 C   0  0  0  0  0  0  0  0  0  0  0  0
  154.3367  140.0563  184.2995 C   0  0  0  0  0  0  0  0  0  0  0  0
  152.1354  138.8782  181.0609 N   0  0  0  0  0  0  0  0  0  0  0  0
  152.1893  139.4748  179.7226 C   0  0  0  0  0  0  0  0  0  0  0  0
  150.7134  139.8505  179.5793 C   0  0  0  0  0  0  0  0  0  0  0  0
  149.9544  138.8447  180.4699 C   0  0  0  0  0  0  0  0  0  0  0  0
  149.4915  139.5067  181.5956 F   0  0  0  0  0  0  0  0  0  0  0  0
  148.9870  138.1690  179.7943 F   0  0  0  0  0  0  0  0  0  0  0  0
  151.0747  137.8978  180.9489 C   0  0  0  0  0  0  0  0  0  0  0  0
  154.9946  142.1528  183.0740 C   0  0  0  0  0  0  0  0  0  0  0  0
  154.9145  142.9152  184.2306 F   0  0  0  0  0  0  0  0  0  0  0  0
  154.5782  142.8897  182.0121 F   0  0  0  0  0  0  0  0  0  0  0  0
  156.3520  141.9059  182.8842 F   0  0  0  0  0  0  0  0  0  0  0  0
  1  2  1  0  0  0
  2  3  1  0  0  0
  3  4  1  0  0  0
  4  5  1  0  0  0
  5  6  1  0  0  0
  6  7  1  0  0  0
  7  8  1  0  0  0
  8  9  2  0  0  0
  9 10  1  0  0  0
 10 11  2  0  0  0
 11 12  1  0  0  0
 12 13  2  0  0  0
 12 20  1  0  0  0
 20 21  1  0  0  0
 20 22  1  0  0  0
 20 23  1  0  0  0
 10 14  1  0  0  0
 14 15  1  0  0  0
 15 16  1  0  0  0
 16 17  1  0  0  0
 17 18  1  0  0  0
 18 19  1  0  0  0
  4 24  1  0  0  0
 24 25  2  0  0  0
 25 26  1  0  0  0
 26 27  2  0  0  0
 27 28  1  0  0  0
 28 29  2  0  0  0
 28 37  1  0  0  0
 37 38  1  0  0  0
 37 39  1  0  0  0
 37 40  1  0  0  0
 26 30  1  0  0  0
 30 31  1  0  0  0
 31 32  1  0  0  0
 32 33  1  0  0  0
 33 34  1  0  0  0
 33 35  1  0  0  0
 33 36  1  0  0  0
  7  2  1  0  0  0
 13  8  1  0  0  0
 19 14  1  0  0  0
 29 24  1  0  0  0
 36 30  1  0  0  0
M  END
> <minimizedAffinity>
-8.01484

> <CNNscore>
0.3623924553

> <CNNaffinity>
6.4341073036

> <CNN_VS>
2.3316719532

> <CNNaffinity_variance>
0.0643475801

$$$$
[H]c1c(N2C([H])([H])C([H])([H])OC([H])([H])C2([H])[H])nc(C(F)(F)F)nc1N1C([H])([H])C([H])([H])N(c2c([H])c(N3C([H])([H])C([H])([H])C(F)(F)C3([H])[H])nc(C(F)(F)F)c2[H])C([H])([H])[C@@]1([H])C([H])([H])[H]


 40 44  0  0  0  0  0  0  0  0999 V2000
  156.5815  138.1175  187.2430 C   0  0  0  0  0  0  0  0  0  0  0  0
  155.6344  136.9739  187.4976 C   0  0  0  0  0  0  0  0  0  0  0  0
  154.7850  136.7710  186.2429 C   0  0  0  0  0  0  0  0  0  0  0  0
  154.0142  137.9549  186.0181 N   0  0  0  0  0  0  0  0  0  0  0  0
  153.3384  138.6384  187.0721 C   0  0  0  0  0  0  0  0  0  0  0  0
  153.7256  138.2833  188.4657 C   0  0  0  0  0  0  0  0  0  0  0  0
  154.7076  137.2300  188.5693 N   0  0  0  0  0  0  0  0  0  0  0  0
  154.7160  136.4387  189.7388 C   0  0  0  0  0  0  0  0  0  0  0  0
  153.8185  136.5924  190.7852 C   0  0  0  0  0  0  0  0  0  0  0  0
  153.8003  135.7803  191.8971 C   0  0  0  0  0  0  0  0  0  0  0  0
  154.7293  134.7988  191.9226 N   0  0  0  0  0  0  0  0  0  0  0  0
  155.6304  134.6033  190.9349 C   0  0  0  0  0  0  0  0  0  0  0  0
  155.6076  135.4086  189.8815 N   0  0  0  0  0  0  0  0  0  0  0  0
  152.8533  135.9197  192.8938 N   0  0  0  0  0  0  0  0  0  0  0  0
  152.6803  134.9662  193.9555 C   0  0  0  0  0  0  0  0  0  0  0  0
  151.3139  134.3345  193.6836 C   0  0  0  0  0  0  0  0  0  0  0  0
  150.6011  135.0122  192.7081 O   0  0  0  0  0  0  0  0  0  0  0  0
  150.5358  136.3640  192.7849 C   0  0  0  0  0  0  0  0  0  0  0  0
  151.9032  137.0399  192.9088 C   0  0  0  0  0  0  0  0  0  0  0  0
  156.5749  133.4785  191.1015 C   0  0  0  0  0  0  0  0  0  0  0  0
  157.0771  133.1236  189.8344 F   0  0  0  0  0  0  0  0  0  0  0  0
  157.6884  133.8380  191.8364 F   0  0  0  0  0  0  0  0  0  0  0  0
  156.0204  132.3590  191.6627 F   0  0  0  0  0  0  0  0  0  0  0  0
  153.8818  138.5500  184.7073 C   0  0  0  0  0  0  0  0  0  0  0  0
  154.6865  139.5637  184.2659 C   0  0  0  0  0  0  0  0  0  0  0  0
  154.5076  140.0544  182.9896 C   0  0  0  0  0  0  0  0  0  0  0  0
  153.5335  139.5249  182.1924 N   0  0  0  0  0  0  0  0  0  0  0  0
  152.7150  138.5313  182.5742 C   0  0  0  0  0  0  0  0  0  0  0  0
  152.9071  138.0522  183.8515 C   0  0  0  0  0  0  0  0  0  0  0  0
  155.3121  141.0606  182.4774 N   0  0  0  0  0  0  0  0  0  0  0  0
  156.7773  141.0993  182.4360 C   0  0  0  0  0  0  0  0  0  0  0  0
  156.9926  142.4246  183.1689 C   0  0  0  0  0  0  0  0  0  0  0  0
  155.7124  143.2438  182.9024 C   0  0  0  0  0  0  0  0  0  0  0  0
  154.9682  143.3006  184.0697 F   0  0  0  0  0  0  0  0  0  0  0  0
  155.9711  144.4622  182.3571 F   0  0  0  0  0  0  0  0  0  0  0  0
  154.9266  142.3437  181.9259 C   0  0  0  0  0  0  0  0  0  0  0  0
  151.7128  138.0126  181.6374 C   0  0  0  0  0  0  0  0  0  0  0  0
  150.4258  138.4519  181.9127 F   0  0  0  0  0  0  0  0  0  0  0  0
  151.7224  136.6579  181.5444 F   0  0  0  0  0  0  0  0  0  0  0  0
  152.0107  138.5045  180.3690 F   0  0  0  0  0  0  0  0  0  0  0  0
  1  2  1  0  0  0
  2  3  1  0  0  0
  3  4  1  0  0  0
  4  5  1  0  0  0
  5  6  1  0  0  0
  6  7  1  0  0  0
  7  8  1  0  0  0
  8  9  2  0  0  0
  9 10  1  0  0  0
 10 11  2  0  0  0
 11 12  1  0  0  0
 12 13  2  0  0  0
 12 20  1  0  0  0
 20 21  1  0  0  0
 20 22  1  0  0  0
 20 23  1  0  0  0
 10 14  1  0  0  0
 14 15  1  0  0  0
 15 16  1  0  0  0
 16 17  1  0  0  0
 17 18  1  0  0  0
 18 19  1  0  0  0
  4 24  1  0  0  0
 24 25  2  0  0  0
 25 26  1  0  0  0
 26 27  2  0  0  0
 27 28  1  0  0  0
 28 29  2  0  0  0
 28 37  1  0  0  0
 37 38  1  0  0  0
 37 39  1  0  0  0
 37 40  1  0  0  0
 26 30  1  0  0  0
 30 31  1  0  0  0
 31 32  1  0  0  0
 32 33  1  0  0  0
 33 34  1  0  0  0
 33 35  1  0  0  0
 33 36  1  0  0  0
  7  2  1  0  0  0
 13  8  1  0  0  0
 19 14  1  0  0  0
 29 24  1  0  0  0
 36 30  1  0  0  0
M  END
> <minimizedAffinity>
-8.20597

> <CNNscore>
0.3430041671

> <CNNaffinity>
6.6356000900

> <CNN_VS>
2.2760384083

> <CNNaffinity_variance>
0.0861359984

$$$$
[H]c1c(C(=O)N([H])c2c([H])c([H])c(C(F)(F)F)c([H])c2[H])nc(C(F)(F)F)nc1N1C([H])([H])C([H])([H])N(S(=O)(=O)N2C([H])([H])C([H])([H])C([H])([H])C2([H])[H])C([H])([H])[C@@]1([H])C([H])([H])[H]


 39 42  0  0  0  0  0  0  0  0999 V2000
  152.9828  135.4651  189.0983 C   0  0  0  0  0  0  0  0  0  0  0  0
  152.2444  135.7438  187.9645 C   0  0  0  0  0  0  0  0  0  0  0  0
  152.7576  136.6123  187.0466 C   0  0  0  0  0  0  0  0  0  0  0  0
  153.9707  137.1930  187.2489 N   0  0  0  0  0  0  0  0  0  0  0  0
  154.7068  136.9408  188.3516 C   0  0  0  0  0  0  0  0  0  0  0  0
  154.1925  136.0916  189.2336 N   0  0  0  0  0  0  0  0  0  0  0  0
  151.7652  136.5957  191.4052 C   0  0  0  0  0  0  0  0  0  0  0  0
  151.8838  135.1176  191.3231 C   0  0  0  0  0  0  0  0  0  0  0  0
  152.7207  134.5632  192.4988 C   0  0  0  0  0  0  0  0  0  0  0  0
  152.5225  133.1525  192.5216 N   0  0  0  0  0  0  0  0  0  0  0  0
  152.0038  132.5914  191.3214 C   0  0  0  0  0  0  0  0  0  0  0  0
  152.6923  133.1723  190.0880 C   0  0  0  0  0  0  0  0  0  0  0  0
  152.5346  134.6115  190.1272 N   0  0  0  0  0  0  0  0  0  0  0  0
  151.7876  132.6370  193.9615 S   0  0  0  0  0  0  0  0  0  0  0  0
  152.4474  131.3498  194.4917 O   0  0  0  0  0  0  0  0  0  0  0  0
  152.2262  133.6586  195.0506 O   0  0  0  0  0  0  0  0  0  0  0  0
  150.1279  132.6041  194.0203 N   0  0  0  0  0  0  0  0  0  0  0  0
  149.4566  131.3986  193.7122 C   0  0  0  0  0  0  0  0  0  0  0  0
  148.6364  131.7808  192.4592 C   0  0  0  0  0  0  0  0  0  0  0  0
  148.3400  133.2388  192.6180 C   0  0  0  0  0  0  0  0  0  0  0  0
  149.3211  133.6890  193.6814 C   0  0  0  0  0  0  0  0  0  0  0  0
  156.0384  137.6274  188.5588 C   0  0  0  0  0  0  0  0  0  0  0  0
  156.9276  136.7477  189.0705 F   0  0  0  0  0  0  0  0  0  0  0  0
  156.4038  138.2729  187.4088 F   0  0  0  0  0  0  0  0  0  0  0  0
  155.8033  138.5793  189.5663 F   0  0  0  0  0  0  0  0  0  0  0  0
  152.0325  137.0747  185.8312 C   0  0  0  0  0  0  0  0  0  0  0  0
  150.7913  137.2079  185.8546 O   0  0  0  0  0  0  0  0  0  0  0  0
  152.7911  137.3590  184.6907 N   0  0  0  0  0  0  0  0  0  0  0  0
  153.8632  137.1519  184.8158 H   0  0  0  0  0  0  0  0  0  0  0  0
  152.4658  137.8651  183.4379 C   0  0  0  0  0  0  0  0  0  0  0  0
  152.9122  139.0532  182.9611 C   0  0  0  0  0  0  0  0  0  0  0  0
  152.4420  139.5891  181.7758 C   0  0  0  0  0  0  0  0  0  0  0  0
  151.5139  138.9523  181.0111 C   0  0  0  0  0  0  0  0  0  0  0  0
  151.0377  137.7131  181.4723 C   0  0  0  0  0  0  0  0  0  0  0  0
  151.5155  137.2045  182.6533 C   0  0  0  0  0  0  0  0  0  0  0  0
  150.9925  139.5367  179.7428 C   0  0  0  0  0  0  0  0  0  0  0  0
  152.0419  140.0297  178.9681 F   0  0  0  0  0  0  0  0  0  0  0  0
  150.2665  140.6859  180.0808 F   0  0  0  0  0  0  0  0  0  0  0  0
  150.1629  138.7000  179.0641 F   0  0  0  0  0  0  0  0  0  0  0  0
  7  8  1  0  0  0
  8  9  1  0  0  0
  9 10  1  0  0  0
 10 11  1  0  0  0
 11 12  1  0  0  0
 12 13  1  0  0  0
 13  1  1  0  0  0
  1  2  2  0  0  0
  2  3  1  0  0  0
  3  4  2  0  0  0
  4  5  1  0  0  0
  5  6  2  0  0  0
  5 22  1  0  0  0
 22 23  1  0  0  0
 22 24  1  0  0  0
 22 25  1  0  0  0
  3 26  1  0  0  0
 26 27  2  0  0  0
 26 28  1  0  0  0
 28 30  1  0  0  0
 30 31  2  0  0  0
 31 32  1  0  0  0
 32 33  2  0  0  0
 33 34  1  0  0  0
 34 35  2  0  0  0
 33 36  1  0  0  0
 36 37  1  0  0  0
 36 38  1  0  0  0
 36 39  1  0  0  0
 10 14  1  0  0  0
 14 15  2  0  0  0
 14 16  2  0  0  0
 14 17  1  0  0  0
 17 18  1  0  0  0
 18 19  1  0  0  0
 19 20  1  0  0  0
 20 21  1  0  0  0
 13  8  1  0  0  0
  6  1  1  0  0  0
 35 30  1  0  0  0
 21 17  1  0  0  0
 28 29  1  0  0  0
M  END
> <minimizedAffinity>
-6.40939

> <CNNscore>
0.3238303661

> <CNNaffinity>
5.8548603058

> <CNN_VS>
1.8959815502

> <CNNaffinity_variance>
0.0505709574

$$$$
[H]c1c(C(=O)N([H])c2c([H])c([H])c(C(F)(F)F)c([H])c2[H])nc(C(F)(F)F)nc1N1C([H])([H])C([H])([H])N(S(=O)(=O)N2C([H])([H])C([H])([H])C([H])([H])C2([H])[H])C([H])([H])[C@@]1([H])C([H])([H])[H]


 39 42  0  0  0  0  0  0  0  0999 V2000
  151.7637  136.8920  184.2356 C   0  0  0  0  0  0  0  0  0  0  0  0
  152.9163  137.6312  184.4196 C   0  0  0  0  0  0  0  0  0  0  0  0
  153.1981  138.6337  183.5389 C   0  0  0  0  0  0  0  0  0  0  0  0
  152.3607  138.8949  182.4996 N   0  0  0  0  0  0  0  0  0  0  0  0
  151.2327  138.1823  182.2963 C   0  0  0  0  0  0  0  0  0  0  0  0
  150.9733  137.2113  183.1645 N   0  0  0  0  0  0  0  0  0  0  0  0
  149.7348  137.2769  186.1894 C   0  0  0  0  0  0  0  0  0  0  0  0
  150.3493  135.9304  186.0666 C   0  0  0  0  0  0  0  0  0  0  0  0
  151.0202  135.5050  187.3929 C   0  0  0  0  0  0  0  0  0  0  0  0
  151.2981  134.1113  187.2900 N   0  0  0  0  0  0  0  0  0  0  0  0
  151.2912  133.5854  185.9680 C   0  0  0  0  0  0  0  0  0  0  0  0
  152.0200  134.5087  184.9939 C   0  0  0  0  0  0  0  0  0  0  0  0
  151.3927  135.8123  185.0630 N   0  0  0  0  0  0  0  0  0  0  0  0
  150.4566  133.2078  188.4540 S   0  0  0  0  0  0  0  0  0  0  0  0
  150.0436  131.8321  187.8969 O   0  0  0  0  0  0  0  0  0  0  0  0
  151.5176  132.7865  189.5119 O   0  0  0  0  0  0  0  0  0  0  0  0
  149.2505  133.9672  189.3069 N   0  0  0  0  0  0  0  0  0  0  0  0
  149.5378  134.4708  190.5963 C   0  0  0  0  0  0  0  0  0  0  0  0
  148.5967  133.6412  191.4991 C   0  0  0  0  0  0  0  0  0  0  0  0
  147.4134  133.3235  190.6400 C   0  0  0  0  0  0  0  0  0  0  0  0
  147.9068  133.6037  189.2349 C   0  0  0  0  0  0  0  0  0  0  0  0
  150.3396  138.4803  181.1127 C   0  0  0  0  0  0  0  0  0  0  0  0
  150.7576  139.6113  180.5025 F   0  0  0  0  0  0  0  0  0  0  0  0
  150.2302  137.3632  180.3299 F   0  0  0  0  0  0  0  0  0  0  0  0
  149.0837  138.7762  181.6708 F   0  0  0  0  0  0  0  0  0  0  0  0
  154.4469  139.4442  183.5609 C   0  0  0  0  0  0  0  0  0  0  0  0
  155.3599  139.1669  184.3662 O   0  0  0  0  0  0  0  0  0  0  0  0
  154.5528  140.4996  182.6488 N   0  0  0  0  0  0  0  0  0  0  0  0
  153.6504  140.6417  182.0378 H   0  0  0  0  0  0  0  0  0  0  0  0
  155.5736  141.3936  182.3481 C   0  0  0  0  0  0  0  0  0  0  0  0
  156.8634  141.0301  182.1425 C   0  0  0  0  0  0  0  0  0  0  0  0
  157.8730  141.9646  181.9989 C   0  0  0  0  0  0  0  0  0  0  0  0
  157.6321  143.3032  182.0426 C   0  0  0  0  0  0  0  0  0  0  0  0
  156.3032  143.7137  182.2442 C   0  0  0  0  0  0  0  0  0  0  0  0
  155.3201  142.7680  182.3889 C   0  0  0  0  0  0  0  0  0  0  0  0
  158.7212  144.3118  181.9061 C   0  0  0  0  0  0  0  0  0  0  0  0
  159.3314  144.2013  180.6573 F   0  0  0  0  0  0  0  0  0  0  0  0
  159.7374  143.9514  182.8004 F   0  0  0  0  0  0  0  0  0  0  0  0
  158.3256  145.5773  182.2074 F   0  0  0  0  0  0  0  0  0  0  0  0
  7  8  1  0  0  0
  8  9  1  0  0  0
  9 10  1  0  0  0
 10 11  1  0  0  0
 11 12  1  0  0  0
 12 13  1  0  0  0
 13  1  1  0  0  0
  1  2  2  0  0  0
  2  3  1  0  0  0
  3  4  2  0  0  0
  4  5  1  0  0  0
  5  6  2  0  0  0
  5 22  1  0  0  0
 22 23  1  0  0  0
 22 24  1  0  0  0
 22 25  1  0  0  0
  3 26  1  0  0  0
 26 27  2  0  0  0
 26 28  1  0  0  0
 28 30  1  0  0  0
 30 31  2  0  0  0
 31 32  1  0  0  0
 32 33  2  0  0  0
 33 34  1  0  0  0
 34 35  2  0  0  0
 33 36  1  0  0  0
 36 37  1  0  0  0
 36 38  1  0  0  0
 36 39  1  0  0  0
 10 14  1  0  0  0
 14 15  2  0  0  0
 14 16  2  0  0  0
 14 17  1  0  0  0
 17 18  1  0  0  0
 18 19  1  0  0  0
 19 20  1  0  0  0
 20 21  1  0  0  0
 13  8  1  0  0  0
  6  1  1  0  0  0
 35 30  1  0  0  0
 21 17  1  0  0  0
 28 29  1  0  0  0
M  END
> <minimizedAffinity>
-6.74738

> <CNNscore>
0.3183183968

> <CNNaffinity>
6.2500700951

> <CNN_VS>
1.9895123243

> <CNNaffinity_variance>
0.1210497171

$$$$
[H]c1c(C(=O)N([H])c2c([H])c([H])c(C(F)(F)F)c([H])c2[H])nc(C(F)(F)F)nc1N1C([H])([H])C([H])([H])N(S(=O)(=O)N2C([H])([H])C([H])([H])C([H])([H])C2([H])[H])C([H])([H])[C@@]1([H])C([H])([H])[H]


 39 42  0  0  0  0  0  0  0  0999 V2000
  153.2007  136.3393  186.5043 C   0  0  0  0  0  0  0  0  0  0  0  0
  153.6020  137.0434  185.3855 C   0  0  0  0  0  0  0  0  0  0  0  0
  154.5255  138.0361  185.5338 C   0  0  0  0  0  0  0  0  0  0  0  0
  155.0358  138.3263  186.7606 N   0  0  0  0  0  0  0  0  0  0  0  0
  154.6542  137.6563  187.8682 C   0  0  0  0  0  0  0  0  0  0  0  0
  153.7557  136.6920  187.7049 N   0  0  0  0  0  0  0  0  0  0  0  0
  150.4495  137.0414  186.6469 C   0  0  0  0  0  0  0  0  0  0  0  0
  150.8051  135.6052  186.5188 C   0  0  0  0  0  0  0  0  0  0  0  0
  150.2727  134.7936  187.7222 C   0  0  0  0  0  0  0  0  0  0  0  0
  150.3760  133.4161  187.3732 N   0  0  0  0  0  0  0  0  0  0  0  0
  151.2534  133.1266  186.2912 C   0  0  0  0  0  0  0  0  0  0  0  0
  152.5594  133.9103  186.4037 C   0  0  0  0  0  0  0  0  0  0  0  0
  152.2283  135.3186  186.4726 N   0  0  0  0  0  0  0  0  0  0  0  0
  148.8590  132.6574  187.3236 S   0  0  0  0  0  0  0  0  0  0  0  0
  148.9951  131.1324  187.4946 O   0  0  0  0  0  0  0  0  0  0  0  0
  148.1512  133.0376  188.6566 O   0  0  0  0  0  0  0  0  0  0  0  0
  147.8069  133.0981  186.1161 N   0  0  0  0  0  0  0  0  0  0  0  0
  147.9937  132.5671  184.8192 C   0  0  0  0  0  0  0  0  0  0  0  0
  148.2788  133.8307  183.9760 C   0  0  0  0  0  0  0  0  0  0  0  0
  147.5271  134.9308  184.6570 C   0  0  0  0  0  0  0  0  0  0  0  0
  147.2187  134.3585  186.0257 C   0  0  0  0  0  0  0  0  0  0  0  0
  155.2198  138.0255  189.2214 C   0  0  0  0  0  0  0  0  0  0  0  0
  154.9569  137.0394  190.1073 F   0  0  0  0  0  0  0  0  0  0  0  0
  156.5301  138.3955  189.0837 F   0  0  0  0  0  0  0  0  0  0  0  0
  154.4684  139.1383  189.6378 F   0  0  0  0  0  0  0  0  0  0  0  0
  154.9759  138.9346  184.4353 C   0  0  0  0  0  0  0  0  0  0  0  0
  154.2250  139.1625  183.4642 O   0  0  0  0  0  0  0  0  0  0  0  0
  156.2466  139.5092  184.5456 N   0  0  0  0  0  0  0  0  0  0  0  0
  156.8005  139.1781  185.4353 H   0  0  0  0  0  0  0  0  0  0  0  0
  156.9433  140.4256  183.7668 C   0  0  0  0  0  0  0  0  0  0  0  0
  156.7685  141.7682  183.8376 C   0  0  0  0  0  0  0  0  0  0  0  0
  157.3680  142.6324  182.9393 C   0  0  0  0  0  0  0  0  0  0  0  0
  158.1781  142.1901  181.9395 C   0  0  0  0  0  0  0  0  0  0  0  0
  158.3883  140.8038  181.8446 C   0  0  0  0  0  0  0  0  0  0  0  0
  157.7789  139.9664  182.7441 C   0  0  0  0  0  0  0  0  0  0  0  0
  158.8106  143.1182  180.9594 C   0  0  0  0  0  0  0  0  0  0  0  0
  159.1718  144.3113  181.5842 F   0  0  0  0  0  0  0  0  0  0  0  0
  157.8156  143.5103  180.0546 F   0  0  0  0  0  0  0  0  0  0  0  0
  159.8216  142.5481  180.2511 F   0  0  0  0  0  0  0  0  0  0  0  0
  7  8  1  0  0  0
  8  9  1  0  0  0
  9 10  1  0  0  0
 10 11  1  0  0  0
 11 12  1  0  0  0
 12 13  1  0  0  0
 13  1  1  0  0  0
  1  2  2  0  0  0
  2  3  1  0  0  0
  3  4  2  0  0  0
  4  5  1  0  0  0
  5  6  2  0  0  0
  5 22  1  0  0  0
 22 23  1  0  0  0
 22 24  1  0  0  0
 22 25  1  0  0  0
  3 26  1  0  0  0
 26 27  2  0  0  0
 26 28  1  0  0  0
 28 30  1  0  0  0
 30 31  2  0  0  0
 31 32  1  0  0  0
 32 33  2  0  0  0
 33 34  1  0  0  0
 34 35  2  0  0  0
 33 36  1  0  0  0
 36 37  1  0  0  0
 36 38  1  0  0  0
 36 39  1  0  0  0
 10 14  1  0  0  0
 14 15  2  0  0  0
 14 16  2  0  0  0
 14 17  1  0  0  0
 17 18  1  0  0  0
 18 19  1  0  0  0
 19 20  1  0  0  0
 20 21  1  0  0  0
 13  8  1  0  0  0
  6  1  1  0  0  0
 35 30  1  0  0  0
 21 17  1  0  0  0
 28 29  1  0  0  0
M  END
> <minimizedAffinity>
-6.65067

> <CNNscore>
0.2865570486

> <CNNaffinity>
6.4201469421

> <CNN_VS>
1.8397383690

> <CNNaffinity_variance>
0.2792418003

$$$$
[H]c1c(C(=O)N([H])c2c([H])c([H])c(C(F)(F)F)c([H])c2[H])nc(C(F)(F)F)nc1N1C([H])([H])C([H])([H])N(S(=O)(=O)N2C([H])([H])C([H])([H])C([H])([H])C2([H])[H])C([H])([H])[C@@]1([H])C([H])([H])[H]


 39 42  0  0  0  0  0  0  0  0999 V2000
  153.8214  139.2128  183.0697 C   0  0  0  0  0  0  0  0  0  0  0  0
  153.1674  138.3414  183.9192 C   0  0  0  0  0  0  0  0  0  0  0  0
  151.9505  137.8524  183.5447 C   0  0  0  0  0  0  0  0  0  0  0  0
  151.3939  138.2204  182.3597 N   0  0  0  0  0  0  0  0  0  0  0  0
  152.0111  139.0748  181.5168 C   0  0  0  0  0  0  0  0  0  0  0  0
  153.1957  139.5396  181.8968 N   0  0  0  0  0  0  0  0  0  0  0  0
  154.3160  141.8896  182.2497 C   0  0  0  0  0  0  0  0  0  0  0  0
  155.3780  141.1751  183.0030 C   0  0  0  0  0  0  0  0  0  0  0  0
  156.6773  141.0785  182.1708 C   0  0  0  0  0  0  0  0  0  0  0  0
  157.7129  140.6741  183.0621 N   0  0  0  0  0  0  0  0  0  0  0  0
  157.2718  140.0946  184.2843 C   0  0  0  0  0  0  0  0  0  0  0  0
  156.1315  139.1046  184.0559 C   0  0  0  0  0  0  0  0  0  0  0  0
  155.0649  139.8053  183.3710 N   0  0  0  0  0  0  0  0  0  0  0  0
  158.9330  141.8461  183.1925 S   0  0  0  0  0  0  0  0  0  0  0  0
  159.5642  142.1454  181.8194 O   0  0  0  0  0  0  0  0  0  0  0  0
  158.2011  143.1901  183.4755 O   0  0  0  0  0  0  0  0  0  0  0  0
  160.0477  141.6773  184.4122 N   0  0  0  0  0  0  0  0  0  0  0  0
  159.8374  142.3634  185.6304 C   0  0  0  0  0  0  0  0  0  0  0  0
  161.0539  143.3145  185.6955 C   0  0  0  0  0  0  0  0  0  0  0  0
  162.1477  142.5977  184.9683 C   0  0  0  0  0  0  0  0  0  0  0  0
  161.4154  141.5213  184.1929 C   0  0  0  0  0  0  0  0  0  0  0  0
  151.3495  139.4862  180.2206 C   0  0  0  0  0  0  0  0  0  0  0  0
  150.4148  140.4304  180.4681 F   0  0  0  0  0  0  0  0  0  0  0  0
  152.3092  139.7980  179.2962 F   0  0  0  0  0  0  0  0  0  0  0  0
  150.6504  138.3445  179.7913 F   0  0  0  0  0  0  0  0  0  0  0  0
  151.0953  136.9843  184.4000 C   0  0  0  0  0  0  0  0  0  0  0  0
  150.3064  136.1704  183.8763 O   0  0  0  0  0  0  0  0  0  0  0  0
  151.2229  137.1109  185.7874 N   0  0  0  0  0  0  0  0  0  0  0  0
  151.9266  137.8984  186.0917 H   0  0  0  0  0  0  0  0  0  0  0  0
  150.6526  136.4320  186.8575 C   0  0  0  0  0  0  0  0  0  0  0  0
  149.3233  136.4170  187.1240 C   0  0  0  0  0  0  0  0  0  0  0  0
  148.8157  135.8588  188.2833 C   0  0  0  0  0  0  0  0  0  0  0  0
  149.6164  135.2806  189.2194 C   0  0  0  0  0  0  0  0  0  0  0  0
  150.9992  135.2703  188.9686 C   0  0  0  0  0  0  0  0  0  0  0  0
  151.4791  135.8347  187.8140 C   0  0  0  0  0  0  0  0  0  0  0  0
  149.0731  134.6946  190.4777 C   0  0  0  0  0  0  0  0  0  0  0  0
  149.4852  133.3695  190.6136 F   0  0  0  0  0  0  0  0  0  0  0  0
  147.6846  134.5919  190.3241 F   0  0  0  0  0  0  0  0  0  0  0  0
  149.3191  135.4555  191.5775 F   0  0  0  0  0  0  0  0  0  0  0  0
  7  8  1  0  0  0
  8  9  1  0  0  0
  9 10  1  0  0  0
 10 11  1  0  0  0
 11 12  1  0  0  0
 12 13  1  0  0  0
 13  1  1  0  0  0
  1  2  2  0  0  0
  2  3  1  0  0  0
  3  4  2  0  0  0
  4  5  1  0  0  0
  5  6  2  0  0  0
  5 22  1  0  0  0
 22 23  1  0  0  0
 22 24  1  0  0  0
 22 25  1  0  0  0
  3 26  1  0  0  0
 26 27  2  0  0  0
 26 28  1  0  0  0
 28 30  1  0  0  0
 30 31  2  0  0  0
 31 32  1  0  0  0
 32 33  2  0  0  0
 33 34  1  0  0  0
 34 35  2  0  0  0
 33 36  1  0  0  0
 36 37  1  0  0  0
 36 38  1  0  0  0
 36 39  1  0  0  0
 10 14  1  0  0  0
 14 15  2  0  0  0
 14 16  2  0  0  0
 14 17  1  0  0  0
 17 18  1  0  0  0
 18 19  1  0  0  0
 19 20  1  0  0  0
 20 21  1  0  0  0
 13  8  1  0  0  0
  6  1  1  0  0  0
 35 30  1  0  0  0
 21 17  1  0  0  0
 28 29  1  0  0  0
M  END
> <minimizedAffinity>
-8.20030

> <CNNscore>
0.2793142200

> <CNNaffinity>
6.4043436050

> <CNN_VS>
1.7888242006

> <CNNaffinity_variance>
0.0611690357

$$$$
[H]c1c(C(=O)N([H])c2c([H])c([H])c(C(F)(F)F)c([H])c2[H])nc(C(F)(F)F)nc1N1C([H])([H])C([H])([H])N(S(=O)(=O)N2C([H])([H])C([H])([H])C([H])([H])C2([H])[H])C([H])([H])[C@@]1([H])C([H])([H])[H]


 39 42  0  0  0  0  0  0  0  0999 V2000
  153.9393  139.8806  182.7706 C   0  0  0  0  0  0  0  0  0  0  0  0
  154.4204  139.3302  183.9429 C   0  0  0  0  0  0  0  0  0  0  0  0
  155.6595  139.6983  184.3781 C   0  0  0  0  0  0  0  0  0  0  0  0
  156.4048  140.5868  183.6676 N   0  0  0  0  0  0  0  0  0  0  0  0
  155.9582  141.1325  182.5169 C   0  0  0  0  0  0  0  0  0  0  0  0
  154.7491  140.7641  182.1092 N   0  0  0  0  0  0  0  0  0  0  0  0
  152.5004  137.6640  183.8187 C   0  0  0  0  0  0  0  0  0  0  0  0
  151.8894  138.4410  182.7102 C   0  0  0  0  0  0  0  0  0  0  0  0
  151.6358  137.5421  181.4782 C   0  0  0  0  0  0  0  0  0  0  0  0
  150.7803  138.2698  180.6014 N   0  0  0  0  0  0  0  0  0  0  0  0
  150.7184  139.6716  180.8367 C   0  0  0  0  0  0  0  0  0  0  0  0
  152.1047  140.2586  181.0936 C   0  0  0  0  0  0  0  0  0  0  0  0
  152.6893  139.5458  182.2107 N   0  0  0  0  0  0  0  0  0  0  0  0
  149.2920  137.4879  180.3715 S   0  0  0  0  0  0  0  0  0  0  0  0
  148.1475  138.2611  181.0540 O   0  0  0  0  0  0  0  0  0  0  0  0
  148.9306  137.6968  178.8722 O   0  0  0  0  0  0  0  0  0  0  0  0
  149.2270  135.8475  180.6238 N   0  0  0  0  0  0  0  0  0  0  0  0
  148.7465  135.0149  179.5871 C   0  0  0  0  0  0  0  0  0  0  0  0
  147.4844  134.3849  180.2191 C   0  0  0  0  0  0  0  0  0  0  0  0
  147.7733  134.3227  181.6859 C   0  0  0  0  0  0  0  0  0  0  0  0
  148.9462  135.2663  181.8592 C   0  0  0  0  0  0  0  0  0  0  0  0
  156.8258  142.0945  181.7365 C   0  0  0  0  0  0  0  0  0  0  0  0
  157.9562  142.3516  182.4311 F   0  0  0  0  0  0  0  0  0  0  0  0
  156.9812  141.6350  180.4568 F   0  0  0  0  0  0  0  0  0  0  0  0
  156.0996  143.2979  181.7085 F   0  0  0  0  0  0  0  0  0  0  0  0
  156.3387  139.1156  185.5681 C   0  0  0  0  0  0  0  0  0  0  0  0
  157.5581  139.3111  185.7521 O   0  0  0  0  0  0  0  0  0  0  0  0
  155.5616  138.3661  186.4576 N   0  0  0  0  0  0  0  0  0  0  0  0
  154.5173  138.2499  186.1353 H   0  0  0  0  0  0  0  0  0  0  0  0
  155.8389  137.7528  187.6736 C   0  0  0  0  0  0  0  0  0  0  0  0
  156.5108  136.5816  187.7960 C   0  0  0  0  0  0  0  0  0  0  0  0
  156.6300  135.9299  189.0103 C   0  0  0  0  0  0  0  0  0  0  0  0
  156.0922  136.4296  190.1560 C   0  0  0  0  0  0  0  0  0  0  0  0
  155.3977  137.6479  190.0653 C   0  0  0  0  0  0  0  0  0  0  0  0
  155.2886  138.2728  188.8490 C   0  0  0  0  0  0  0  0  0  0  0  0
  156.2041  135.7199  191.4621 C   0  0  0  0  0  0  0  0  0  0  0  0
  154.9478  135.5898  192.0530 F   0  0  0  0  0  0  0  0  0  0  0  0
  156.8927  136.5674  192.3394 F   0  0  0  0  0  0  0  0  0  0  0  0
  156.8911  134.5491  191.3829 F   0  0  0  0  0  0  0  0  0  0  0  0
  7  8  1  0  0  0
  8  9  1  0  0  0
  9 10  1  0  0  0
 10 11  1  0  0  0
 11 12  1  0  0  0
 12 13  1  0  0  0
 13  1  1  0  0  0
  1  2  2  0  0  0
  2  3  1  0  0  0
  3  4  2  0  0  0
  4  5  1  0  0  0
  5  6  2  0  0  0
  5 22  1  0  0  0
 22 23  1  0  0  0
 22 24  1  0  0  0
 22 25  1  0  0  0
  3 26  1  0  0  0
 26 27  2  0  0  0
 26 28  1  0  0  0
 28 30  1  0  0  0
 30 31  2  0  0  0
 31 32  1  0  0  0
 32 33  2  0  0  0
 33 34  1  0  0  0
 34 35  2  0  0  0
 33 36  1  0  0  0
 36 37  1  0  0  0
 36 38  1  0  0  0
 36 39  1  0  0  0
 10 14  1  0  0  0
 14 15  2  0  0  0
 14 16  2  0  0  0
 14 17  1  0  0  0
 17 18  1  0  0  0
 18 19  1  0  0  0
 19 20  1  0  0  0
 20 21  1  0  0  0
 13  8  1  0  0  0
  6  1  1  0  0  0
 35 30  1  0  0  0
 21 17  1  0  0  0
 28 29  1  0  0  0
M  END
> <minimizedAffinity>
-7.54136

> <CNNscore>
0.2607801259

> <CNNaffinity>
6.1590104103

> <CNN_VS>
1.6061475277

> <CNNaffinity_variance>
0.0738408640

$$$$
[H]c1c(C(=O)N([H])c2c([H])c([H])c(C(F)(F)F)c([H])c2[H])nc(C(F)(F)F)nc1N1C([H])([H])C([H])([H])N(S(=O)(=O)N2C([H])([H])C([H])([H])C([H])([H])C2([H])[H])C([H])([H])[C@@]1([H])C([H])([H])[H]


 39 42  0  0  0  0  0  0  0  0999 V2000
  153.0755  138.1690  184.3076 C   0  0  0  0  0  0  0  0  0  0  0  0
  154.2396  138.8990  184.4513 C   0  0  0  0  0  0  0  0  0  0  0  0
  154.5963  139.7636  183.4586 C   0  0  0  0  0  0  0  0  0  0  0  0
  153.8209  139.8987  182.3495 N   0  0  0  0  0  0  0  0  0  0  0  0
  152.6832  139.1917  182.1845 C   0  0  0  0  0  0  0  0  0  0  0  0
  152.3504  138.3562  183.1617 N   0  0  0  0  0  0  0  0  0  0  0  0
  153.6947  135.4220  183.9169 C   0  0  0  0  0  0  0  0  0  0  0  0
  152.9285  135.8067  185.1296 C   0  0  0  0  0  0  0  0  0  0  0  0
  151.5518  135.1037  185.1606 C   0  0  0  0  0  0  0  0  0  0  0  0
  151.0283  135.2724  186.4750 N   0  0  0  0  0  0  0  0  0  0  0  0
  151.6312  136.3082  187.2418 C   0  0  0  0  0  0  0  0  0  0  0  0
  151.8349  137.5739  186.4118 C   0  0  0  0  0  0  0  0  0  0  0  0
  152.6300  137.2228  185.2533 N   0  0  0  0  0  0  0  0  0  0  0  0
  150.8134  133.7883  187.2690 S   0  0  0  0  0  0  0  0  0  0  0  0
  150.4726  132.6676  186.2683 O   0  0  0  0  0  0  0  0  0  0  0  0
  152.2323  133.3450  187.7300 O   0  0  0  0  0  0  0  0  0  0  0  0
  149.8706  133.7658  188.6363 N   0  0  0  0  0  0  0  0  0  0  0  0
  148.5135  134.1499  188.5373 C   0  0  0  0  0  0  0  0  0  0  0  0
  148.4499  135.3983  189.4464 C   0  0  0  0  0  0  0  0  0  0  0  0
  149.4937  135.1704  190.4940 C   0  0  0  0  0  0  0  0  0  0  0  0
  150.3501  134.0649  189.9104 C   0  0  0  0  0  0  0  0  0  0  0  0
  151.8606  139.3447  180.9247 C   0  0  0  0  0  0  0  0  0  0  0  0
  152.5098  138.7723  179.8868 F   0  0  0  0  0  0  0  0  0  0  0  0
  150.5811  138.9198  181.1596 F   0  0  0  0  0  0  0  0  0  0  0  0
  151.8466  140.7263  180.6655 F   0  0  0  0  0  0  0  0  0  0  0  0
  155.8668  140.5396  183.4375 C   0  0  0  0  0  0  0  0  0  0  0  0
  155.9810  141.5350  182.6926 O   0  0  0  0  0  0  0  0  0  0  0  0
  156.8995  140.1184  184.2820 N   0  0  0  0  0  0  0  0  0  0  0  0
  156.6605  139.2038  184.8426 H   0  0  0  0  0  0  0  0  0  0  0  0
  158.1593  140.6313  184.5673 C   0  0  0  0  0  0  0  0  0  0  0  0
  158.4361  141.4058  185.6451 C   0  0  0  0  0  0  0  0  0  0  0  0
  159.6642  142.0210  185.8080 C   0  0  0  0  0  0  0  0  0  0  0  0
  160.6718  141.8768  184.9048 C   0  0  0  0  0  0  0  0  0  0  0  0
  160.4206  141.0717  183.7807 C   0  0  0  0  0  0  0  0  0  0  0  0
  159.1930  140.4761  183.6387 C   0  0  0  0  0  0  0  0  0  0  0  0
  161.9897  142.5535  185.0694 C   0  0  0  0  0  0  0  0  0  0  0  0
  162.3595  142.5758  186.4137 F   0  0  0  0  0  0  0  0  0  0  0  0
  161.8053  143.9066  184.7578 F   0  0  0  0  0  0  0  0  0  0  0  0
  162.9554  142.0610  184.2485 F   0  0  0  0  0  0  0  0  0  0  0  0
  7  8  1  0  0  0
  8  9  1  0  0  0
  9 10  1  0  0  0
 10 11  1  0  0  0
 11 12  1  0  0  0
 12 13  1  0  0  0
 13  1  1  0  0  0
  1  2  2  0  0  0
  2  3  1  0  0  0
  3  4  2  0  0  0
  4  5  1  0  0  0
  5  6  2  0  0  0
  5 22  1  0  0  0
 22 23  1  0  0  0
 22 24  1  0  0  0
 22 25  1  0  0  0
  3 26  1  0  0  0
 26 27  2  0  0  0
 26 28  1  0  0  0
 28 30  1  0  0  0
 30 31  2  0  0  0
 31 32  1  0  0  0
 32 33  2  0  0  0
 33 34  1  0  0  0
 34 35  2  0  0  0
 33 36  1  0  0  0
 36 37  1  0  0  0
 36 38  1  0  0  0
 36 39  1  0  0  0
 10 14  1  0  0  0
 14 15  2  0  0  0
 14 16  2  0  0  0
 14 17  1  0  0  0
 17 18  1  0  0  0
 18 19  1  0  0  0
 19 20  1  0  0  0
 20 21  1  0  0  0
 13  8  1  0  0  0
  6  1  1  0  0  0
 35 30  1  0  0  0
 21 17  1  0  0  0
 28 29  1  0  0  0
M  END
> <minimizedAffinity>
-8.59101

> <CNNscore>
0.2308434844

> <CNNaffinity>
6.2727675438

> <CNN_VS>
1.4480274916

> <CNNaffinity_variance>
0.0740720034

$$$$
[H]c1c(C(=O)N([H])c2c([H])c([H])c(C(F)(F)F)c([H])c2[H])nc(C(F)(F)F)nc1N1C([H])([H])C([H])([H])N(S(=O)(=O)N2C([H])([H])C([H])([H])C([H])([H])C2([H])[H])C([H])([H])[C@@]1([H])C([H])([H])[H]


 39 42  0  0  0  0  0  0  0  0999 V2000
  153.1573  138.0627  184.1272 C   0  0  0  0  0  0  0  0  0  0  0  0
  154.3172  138.7921  184.3038 C   0  0  0  0  0  0  0  0  0  0  0  0
  154.6553  139.7210  183.3640 C   0  0  0  0  0  0  0  0  0  0  0  0
  153.8656  139.9196  182.2747 N   0  0  0  0  0  0  0  0  0  0  0  0
  152.7316  139.2147  182.0780 C   0  0  0  0  0  0  0  0  0  0  0  0
  152.4172  138.3160  183.0038 N   0  0  0  0  0  0  0  0  0  0  0  0
  153.9498  135.3735  183.6557 C   0  0  0  0  0  0  0  0  0  0  0  0
  153.1153  135.6638  184.8494 C   0  0  0  0  0  0  0  0  0  0  0  0
  151.7817  134.8837  184.7955 C   0  0  0  0  0  0  0  0  0  0  0  0
  151.1978  134.9680  186.0925 N   0  0  0  0  0  0  0  0  0  0  0  0
  151.7090  136.0034  186.9237 C   0  0  0  0  0  0  0  0  0  0  0  0
  151.8714  137.3120  186.1530 C   0  0  0  0  0  0  0  0  0  0  0  0
  152.7305  137.0545  185.0158 N   0  0  0  0  0  0  0  0  0  0  0  0
  151.0384  133.4425  186.8183 S   0  0  0  0  0  0  0  0  0  0  0  0
  152.4071  132.8947  187.2654 O   0  0  0  0  0  0  0  0  0  0  0  0
  150.3628  133.6975  188.1969 O   0  0  0  0  0  0  0  0  0  0  0  0
  150.0888  132.3128  186.0560 N   0  0  0  0  0  0  0  0  0  0  0  0
  150.7130  131.2773  185.3232 C   0  0  0  0  0  0  0  0  0  0  0  0
  150.2167  131.5379  183.8829 C   0  0  0  0  0  0  0  0  0  0  0  0
  148.8667  132.1629  184.0435 C   0  0  0  0  0  0  0  0  0  0  0  0
  148.8461  132.6005  185.4941 C   0  0  0  0  0  0  0  0  0  0  0  0
  151.8929  139.4403  180.8399 C   0  0  0  0  0  0  0  0  0  0  0  0
  151.6244  140.7581  180.7078 F   0  0  0  0  0  0  0  0  0  0  0  0
  152.4814  138.8221  179.7702 F   0  0  0  0  0  0  0  0  0  0  0  0
  150.6643  138.8146  181.1145 F   0  0  0  0  0  0  0  0  0  0  0  0
  155.9193  140.5077  183.3779 C   0  0  0  0  0  0  0  0  0  0  0  0
  156.0523  141.4936  182.6235 O   0  0  0  0  0  0  0  0  0  0  0  0
  156.9241  140.1074  184.2652 N   0  0  0  0  0  0  0  0  0  0  0  0
  156.6723  139.1986  184.8297 H   0  0  0  0  0  0  0  0  0  0  0  0
  158.1684  140.6352  184.5885 C   0  0  0  0  0  0  0  0  0  0  0  0
  158.4091  141.3892  185.6893 C   0  0  0  0  0  0  0  0  0  0  0  0
  159.6225  142.0215  185.8920 C   0  0  0  0  0  0  0  0  0  0  0  0
  160.6509  141.9157  185.0071 C   0  0  0  0  0  0  0  0  0  0  0  0
  160.4373  141.1326  183.8599 C   0  0  0  0  0  0  0  0  0  0  0  0
  159.2236  140.5194  183.6786 C   0  0  0  0  0  0  0  0  0  0  0  0
  161.9529  142.6110  185.2148 C   0  0  0  0  0  0  0  0  0  0  0  0
  162.2855  142.6246  186.5688 F   0  0  0  0  0  0  0  0  0  0  0  0
  161.7556  143.9644  184.9122 F   0  0  0  0  0  0  0  0  0  0  0  0
  162.9483  142.1425  184.4157 F   0  0  0  0  0  0  0  0  0  0  0  0
  7  8  1  0  0  0
  8  9  1  0  0  0
  9 10  1  0  0  0
 10 11  1  0  0  0
 11 12  1  0  0  0
 12 13  1  0  0  0
 13  1  1  0  0  0
  1  2  2  0  0  0
  2  3  1  0  0  0
  3  4  2  0  0  0
  4  5  1  0  0  0
  5  6  2  0  0  0
  5 22  1  0  0  0
 22 23  1  0  0  0
 22 24  1  0  0  0
 22 25  1  0  0  0
  3 26  1  0  0  0
 26 27  2  0  0  0
 26 28  1  0  0  0
 28 30  1  0  0  0
 30 31  2  0  0  0
 31 32  1  0  0  0
 32 33  2  0  0  0
 33 34  1  0  0  0
 34 35  2  0  0  0
 33 36  1  0  0  0
 36 37  1  0  0  0
 36 38  1  0  0  0
 36 39  1  0  0  0
 10 14  1  0  0  0
 14 15  2  0  0  0
 14 16  2  0  0  0
 14 17  1  0  0  0
 17 18  1  0  0  0
 18 19  1  0  0  0
 19 20  1  0  0  0
 20 21  1  0  0  0
 13  8  1  0  0  0
  6  1  1  0  0  0
 35 30  1  0  0  0
 21 17  1  0  0  0
 28 29  1  0  0  0
M  END
> <minimizedAffinity>
-8.14636

> <CNNscore>
0.2296866775

> <CNNaffinity>
6.3347816467

> <CNN_VS>
1.4550149441

> <CNNaffinity_variance>
0.1445520222

$$$$
[H]c1c(C(=O)N([H])c2c([H])c([H])c(C(F)(F)F)c([H])c2[H])nc(C(F)(F)F)nc1N1C([H])([H])C([H])([H])N(S(=O)(=O)N2C([H])([H])C([H])([H])C([H])([H])C2([H])[H])C([H])([H])[C@@]1([H])C([H])([H])[H]


 39 42  0  0  0  0  0  0  0  0999 V2000
  153.4126  136.9242  186.0194 C   0  0  0  0  0  0  0  0  0  0  0  0
  154.4551  137.8261  185.9279 C   0  0  0  0  0  0  0  0  0  0  0  0
  154.5611  138.5916  184.8041 C   0  0  0  0  0  0  0  0  0  0  0  0
  153.6587  138.4640  183.7946 N   0  0  0  0  0  0  0  0  0  0  0  0
  152.6361  137.5856  183.8591 C   0  0  0  0  0  0  0  0  0  0  0  0
  152.5474  136.8499  184.9612 N   0  0  0  0  0  0  0  0  0  0  0  0
  153.5716  137.9781  188.6550 C   0  0  0  0  0  0  0  0  0  0  0  0
  153.2725  136.5327  188.4903 C   0  0  0  0  0  0  0  0  0  0  0  0
  154.3498  135.6627  189.1778 C   0  0  0  0  0  0  0  0  0  0  0  0
  153.8325  134.3367  189.2455 N   0  0  0  0  0  0  0  0  0  0  0  0
  152.7457  134.0621  188.3693 C   0  0  0  0  0  0  0  0  0  0  0  0
  152.9899  134.6379  186.9760 C   0  0  0  0  0  0  0  0  0  0  0  0
  153.2273  136.0596  187.1178 N   0  0  0  0  0  0  0  0  0  0  0  0
  153.6485  133.8072  190.8471 S   0  0  0  0  0  0  0  0  0  0  0  0
  153.4554  132.2800  190.9081 O   0  0  0  0  0  0  0  0  0  0  0  0
  155.0520  133.9494  191.5044 O   0  0  0  0  0  0  0  0  0  0  0  0
  152.6061  134.6473  191.8302 N   0  0  0  0  0  0  0  0  0  0  0  0
  151.2198  134.5986  191.5570 C   0  0  0  0  0  0  0  0  0  0  0  0
  150.8871  136.0744  191.2401 C   0  0  0  0  0  0  0  0  0  0  0  0
  151.8594  136.8747  192.0482 C   0  0  0  0  0  0  0  0  0  0  0  0
  152.9224  135.8648  192.4307 C   0  0  0  0  0  0  0  0  0  0  0  0
  151.6684  137.4485  182.7050 C   0  0  0  0  0  0  0  0  0  0  0  0
  152.0974  138.1935  181.6623 F   0  0  0  0  0  0  0  0  0  0  0  0
  151.4351  136.1227  182.4590 F   0  0  0  0  0  0  0  0  0  0  0  0
  150.4796  138.0495  183.1544 F   0  0  0  0  0  0  0  0  0  0  0  0
  155.6829  139.5317  184.5314 C   0  0  0  0  0  0  0  0  0  0  0  0
  156.7390  139.4562  185.1932 O   0  0  0  0  0  0  0  0  0  0  0  0
  155.5077  140.4746  183.5129 N   0  0  0  0  0  0  0  0  0  0  0  0
  154.5099  140.4415  183.0534 H   0  0  0  0  0  0  0  0  0  0  0  0
  156.3449  141.4331  182.9543 C   0  0  0  0  0  0  0  0  0  0  0  0
  157.6277  141.1963  182.5849 C   0  0  0  0  0  0  0  0  0  0  0  0
  158.4715  142.2139  182.1776 C   0  0  0  0  0  0  0  0  0  0  0  0
  158.0629  143.5102  182.1109 C   0  0  0  0  0  0  0  0  0  0  0  0
  156.7350  143.7882  182.4776 C   0  0  0  0  0  0  0  0  0  0  0  0
  155.9188  142.7628  182.8828 C   0  0  0  0  0  0  0  0  0  0  0  0
  158.9759  144.6106  181.6896 C   0  0  0  0  0  0  0  0  0  0  0  0
  158.2480  145.7693  181.4215 F   0  0  0  0  0  0  0  0  0  0  0  0
  159.5040  144.2590  180.4408 F   0  0  0  0  0  0  0  0  0  0  0  0
  160.0145  144.8073  182.5448 F   0  0  0  0  0  0  0  0  0  0  0  0
  7  8  1  0  0  0
  8  9  1  0  0  0
  9 10  1  0  0  0
 10 11  1  0  0  0
 11 12  1  0  0  0
 12 13  1  0  0  0
 13  1  1  0  0  0
  1  2  2  0  0  0
  2  3  1  0  0  0
  3  4  2  0  0  0
  4  5  1  0  0  0
  5  6  2  0  0  0
  5 22  1  0  0  0
 22 23  1  0  0  0
 22 24  1  0  0  0
 22 25  1  0  0  0
  3 26  1  0  0  0
 26 27  2  0  0  0
 26 28  1  0  0  0
 28 30  1  0  0  0
 30 31  2  0  0  0
 31 32  1  0  0  0
 32 33  2  0  0  0
 33 34  1  0  0  0
 34 35  2  0  0  0
 33 36  1  0  0  0
 36 37  1  0  0  0
 36 38  1  0  0  0
 36 39  1  0  0  0
 10 14  1  0  0  0
 14 15  2  0  0  0
 14 16  2  0  0  0
 14 17  1  0  0  0
 17 18  1  0  0  0
 18 19  1  0  0  0
 19 20  1  0  0  0
 20 21  1  0  0  0
 13  8  1  0  0  0
  6  1  1  0  0  0
 35 30  1  0  0  0
 21 17  1  0  0  0
 28 29  1  0  0  0
M  END
> <minimizedAffinity>
-7.04552

> <CNNscore>
0.2187800705

> <CNNaffinity>
6.2079019547

> <CNN_VS>
1.3581652641

> <CNNaffinity_variance>
0.1083324179

$$$$
[H]c1c(C(=O)N([H])c2c([H])c([H])c(C(F)(F)F)c([H])c2[H])nc(C(F)(F)F)nc1N1C([H])([H])C([H])([H])N(S(=O)(=O)N2C([H])([H])C([H])([H])C([H])([H])C2([H])[H])C([H])([H])[C@@]1([H])C([H])([H])[H]


 39 42  0  0  0  0  0  0  0  0999 V2000
  153.3821  137.2960  185.3580 C   0  0  0  0  0  0  0  0  0  0  0  0
  153.9774  138.4489  184.8837 C   0  0  0  0  0  0  0  0  0  0  0  0
  153.7706  138.8046  183.5833 C   0  0  0  0  0  0  0  0  0  0  0  0
  152.9964  138.0350  182.7721 N   0  0  0  0  0  0  0  0  0  0  0  0
  152.4101  136.9016  183.2116 C   0  0  0  0  0  0  0  0  0  0  0  0
  152.6208  136.5717  184.4806 N   0  0  0  0  0  0  0  0  0  0  0  0
  152.8090  139.0153  187.5484 C   0  0  0  0  0  0  0  0  0  0  0  0
  153.2612  137.6307  187.8382 C   0  0  0  0  0  0  0  0  0  0  0  0
  154.5691  137.6367  188.6626 C   0  0  0  0  0  0  0  0  0  0  0  0
  154.7557  136.3132  189.1562 N   0  0  0  0  0  0  0  0  0  0  0  0
  154.0085  135.3036  188.4879 C   0  0  0  0  0  0  0  0  0  0  0  0
  154.0486  135.4874  186.9723 C   0  0  0  0  0  0  0  0  0  0  0  0
  153.5558  136.8159  186.6724 N   0  0  0  0  0  0  0  0  0  0  0  0
  154.7297  136.2577  190.8520 S   0  0  0  0  0  0  0  0  0  0  0  0
  155.9509  135.4958  191.4012 O   0  0  0  0  0  0  0  0  0  0  0  0
  155.0509  137.7041  191.3284 O   0  0  0  0  0  0  0  0  0  0  0  0
  153.3024  135.8474  191.5960 N   0  0  0  0  0  0  0  0  0  0  0  0
  152.2259  136.7633  191.5623 C   0  0  0  0  0  0  0  0  0  0  0  0
  152.0175  137.0929  193.0579 C   0  0  0  0  0  0  0  0  0  0  0  0
  152.4370  135.8577  193.7908 C   0  0  0  0  0  0  0  0  0  0  0  0
  153.2293  135.0815  192.7583 C   0  0  0  0  0  0  0  0  0  0  0  0
  151.5800  136.0537  182.2738 C   0  0  0  0  0  0  0  0  0  0  0  0
  150.7070  136.8391  181.6050 F   0  0  0  0  0  0  0  0  0  0  0  0
  152.4054  135.2678  181.5165 F   0  0  0  0  0  0  0  0  0  0  0  0
  150.8067  135.2336  183.1140 F   0  0  0  0  0  0  0  0  0  0  0  0
  154.4237  139.9644  182.9162 C   0  0  0  0  0  0  0  0  0  0  0  0
  153.9595  140.4165  181.8489 O   0  0  0  0  0  0  0  0  0  0  0  0
  155.5493  140.5199  183.5337 N   0  0  0  0  0  0  0  0  0  0  0  0
  155.8586  139.9845  184.4424 H   0  0  0  0  0  0  0  0  0  0  0  0
  156.3453  141.6207  183.2397 C   0  0  0  0  0  0  0  0  0  0  0  0
  155.9079  142.7149  182.5694 C   0  0  0  0  0  0  0  0  0  0  0  0
  156.7701  143.7176  182.1638 C   0  0  0  0  0  0  0  0  0  0  0  0
  158.1052  143.6734  182.4233 C   0  0  0  0  0  0  0  0  0  0  0  0
  158.5896  142.5567  183.1258 C   0  0  0  0  0  0  0  0  0  0  0  0
  157.7157  141.5728  183.5130 C   0  0  0  0  0  0  0  0  0  0  0  0
  159.0387  144.7440  181.9714 C   0  0  0  0  0  0  0  0  0  0  0  0
  160.0097  144.9834  182.9430 F   0  0  0  0  0  0  0  0  0  0  0  0
  158.3123  145.9411  181.9321 F   0  0  0  0  0  0  0  0  0  0  0  0
  159.5531  144.5238  180.7321 F   0  0  0  0  0  0  0  0  0  0  0  0
  7  8  1  0  0  0
  8  9  1  0  0  0
  9 10  1  0  0  0
 10 11  1  0  0  0
 11 12  1  0  0  0
 12 13  1  0  0  0
 13  1  1  0  0  0
  1  2  2  0  0  0
  2  3  1  0  0  0
  3  4  2  0  0  0
  4  5  1  0  0  0
  5  6  2  0  0  0
  5 22  1  0  0  0
 22 23  1  0  0  0
 22 24  1  0  0  0
 22 25  1  0  0  0
  3 26  1  0  0  0
 26 27  2  0  0  0
 26 28  1  0  0  0
 28 30  1  0  0  0
 30 31  2  0  0  0
 31 32  1  0  0  0
 32 33  2  0  0  0
 33 34  1  0  0  0
 34 35  2  0  0  0
 33 36  1  0  0  0
 36 37  1  0  0  0
 36 38  1  0  0  0
 36 39  1  0  0  0
 10 14  1  0  0  0
 14 15  2  0  0  0
 14 16  2  0  0  0
 14 17  1  0  0  0
 17 18  1  0  0  0
 18 19  1  0  0  0
 19 20  1  0  0  0
 20 21  1  0  0  0
 13  8  1  0  0  0
  6  1  1  0  0  0
 35 30  1  0  0  0
 21 17  1  0  0  0
 28 29  1  0  0  0
M  END
> <minimizedAffinity>
-7.92007

> <CNNscore>
0.2109973431

> <CNNaffinity>
6.3311271667

> <CNN_VS>
1.3358509541

> <CNNaffinity_variance>
0.1606945097

$$$$
[H]c1c(N([H])C(=O)c2c([H])c([H])c(N3C([H])([H])C([H])([H])N(C([H])([H])[H])C([H])([H])C3([H])[H])c([H])c2[H])nc(C(F)(F)F)nc1N1C([H])([H])C([H])([H])OC([H])([H])C1([H])[H]


 33 36  0  0  0  0  0  0  0  0999 V2000
  151.9614  136.8048  184.9511 C   0  0  0  0  0  0  0  0  0  0  0  0
  152.4511  137.6241  184.0725 O   0  0  0  0  0  0  0  0  0  0  0  0
  150.6937  136.2731  184.8093 N   0  0  0  0  0  0  0  0  0  0  0  0
  150.2640  135.6495  185.5164 H   0  0  0  0  0  0  0  0  0  0  0  0
  154.6562  135.7450  187.9527 C   0  0  0  0  0  0  0  0  0  0  0  0
  153.3039  135.9015  188.2842 C   0  0  0  0  0  0  0  0  0  0  0  0
  152.3939  136.2761  187.3014 C   0  0  0  0  0  0  0  0  0  0  0  0
  152.8584  136.4860  186.0607 C   0  0  0  0  0  0  0  0  0  0  0  0
  154.2119  136.3521  185.6819 C   0  0  0  0  0  0  0  0  0  0  0  0
  155.0953  135.9664  186.6774 C   0  0  0  0  0  0  0  0  0  0  0  0
  157.9643  132.8328  191.0150 C   0  0  0  0  0  0  0  0  0  0  0  0
  157.7441  134.1053  190.3344 N   0  0  0  0  0  0  0  0  0  0  0  0
  157.4453  133.7903  188.9669 C   0  0  0  0  0  0  0  0  0  0  0  0
  155.9881  133.8521  188.6437 C   0  0  0  0  0  0  0  0  0  0  0  0
  155.5372  135.2265  188.9212 N   0  0  0  0  0  0  0  0  0  0  0  0
  156.0179  135.8625  190.0902 C   0  0  0  0  0  0  0  0  0  0  0  0
  156.6813  134.8367  190.9926 C   0  0  0  0  0  0  0  0  0  0  0  0
  150.0157  136.4215  183.5623 C   0  0  0  0  0  0  0  0  0  0  0  0
  149.5427  135.4007  182.8331 C   0  0  0  0  0  0  0  0  0  0  0  0
  148.9420  135.5943  181.5968 C   0  0  0  0  0  0  0  0  0  0  0  0
  148.8491  136.8627  181.1354 N   0  0  0  0  0  0  0  0  0  0  0  0
  149.3398  137.8911  181.8939 C   0  0  0  0  0  0  0  0  0  0  0  0
  149.9087  137.6835  183.0688 N   0  0  0  0  0  0  0  0  0  0  0  0
  148.3084  134.4945  180.9558 N   0  0  0  0  0  0  0  0  0  0  0  0
  148.0029  133.3778  181.9172 C   0  0  0  0  0  0  0  0  0  0  0  0
  147.9901  132.0705  181.2218 C   0  0  0  0  0  0  0  0  0  0  0  0
  147.2026  132.0223  180.1074 O   0  0  0  0  0  0  0  0  0  0  0  0
  146.8117  133.2547  179.6132 C   0  0  0  0  0  0  0  0  0  0  0  0
  147.9178  134.2991  179.6211 C   0  0  0  0  0  0  0  0  0  0  0  0
  149.2148  139.2819  181.3299 C   0  0  0  0  0  0  0  0  0  0  0  0
  148.7179  139.1431  180.0411 F   0  0  0  0  0  0  0  0  0  0  0  0
  150.4165  139.8897  181.2650 F   0  0  0  0  0  0  0  0  0  0  0  0
  148.2689  139.9897  182.0248 F   0  0  0  0  0  0  0  0  0  0  0  0
 11 12  1  0  0  0
 12 13  1  0  0  0
 13 14  1  0  0  0
 14 15  1  0  0  0
 15 16  1  0  0  0
 16 17  1  0  0  0
 15  5  1  0  0  0
  5  6  2  0  0  0
  6  7  1  0  0  0
  7  8  2  0  0  0
  8  9  1  0  0  0
  9 10  2  0  0  0
  8  1  1  0  0  0
  1  2  2  0  0  0
  1  3  1  0  0  0
  3 18  1  0  0  0
 18 19  2  0  0  0
 19 20  1  0  0  0
 20 21  2  0  0  0
 21 22  1  0  0  0
 22 23  2  0  0  0
 22 30  1  0  0  0
 30 31  1  0  0  0
 30 32  1  0  0  0
 30 33  1  0  0  0
 20 24  1  0  0  0
 24 25  1  0  0  0
 25 26  1  0  0  0
 26 27  1  0  0  0
 27 28  1  0  0  0
 28 29  1  0  0  0
 17 12  1  0  0  0
 10  5  1  0  0  0
 23 18  1  0  0  0
 29 24  1  0  0  0
  3  4  1  0  0  0
M  END
> <minimizedAffinity>
-3.95878

> <CNNscore>
0.4501146674

> <CNNaffinity>
5.4099245071

> <CNN_VS>
2.4350864887

> <CNNaffinity_variance>
0.5625966787

$$$$
[H]c1c(N([H])C(=O)c2c([H])c([H])c(N3C([H])([H])C([H])([H])N(C([H])([H])[H])C([H])([H])C3([H])[H])c([H])c2[H])nc(C(F)(F)F)nc1N1C([H])([H])C([H])([H])OC([H])([H])C1([H])[H]


 33 36  0  0  0  0  0  0  0  0999 V2000
  154.3894  138.1948  186.1082 C   0  0  0  0  0  0  0  0  0  0  0  0
  153.3553  138.8545  186.5307 O   0  0  0  0  0  0  0  0  0  0  0  0
  154.7740  138.2353  184.7814 N   0  0  0  0  0  0  0  0  0  0  0  0
  155.5705  137.6860  184.4107 H   0  0  0  0  0  0  0  0  0  0  0  0
  156.3484  135.8385  188.9373 C   0  0  0  0  0  0  0  0  0  0  0  0
  155.7413  137.0302  189.3552 C   0  0  0  0  0  0  0  0  0  0  0  0
  155.1024  137.8401  188.4225 C   0  0  0  0  0  0  0  0  0  0  0  0
  155.1040  137.4458  187.1405 C   0  0  0  0  0  0  0  0  0  0  0  0
  155.7112  136.2609  186.6707 C   0  0  0  0  0  0  0  0  0  0  0  0
  156.3304  135.4665  187.6223 C   0  0  0  0  0  0  0  0  0  0  0  0
  158.4119  131.7804  191.7791 C   0  0  0  0  0  0  0  0  0  0  0  0
  158.4722  133.2079  191.4800 N   0  0  0  0  0  0  0  0  0  0  0  0
  158.5943  133.3215  190.0550 C   0  0  0  0  0  0  0  0  0  0  0  0
  157.3120  133.6664  189.3706 C   0  0  0  0  0  0  0  0  0  0  0  0
  156.8630  134.9609  189.9110 N   0  0  0  0  0  0  0  0  0  0  0  0
  156.9901  135.1824  191.3027 C   0  0  0  0  0  0  0  0  0  0  0  0
  157.2943  133.8691  192.0023 C   0  0  0  0  0  0  0  0  0  0  0  0
  154.1870  139.2093  183.9192 C   0  0  0  0  0  0  0  0  0  0  0  0
  153.2719  138.9328  182.9791 C   0  0  0  0  0  0  0  0  0  0  0  0
  152.7747  139.9079  182.1254 C   0  0  0  0  0  0  0  0  0  0  0  0
  153.2499  141.1669  182.2654 N   0  0  0  0  0  0  0  0  0  0  0  0
  154.1853  141.4284  183.2298 C   0  0  0  0  0  0  0  0  0  0  0  0
  154.6454  140.4839  184.0319 N   0  0  0  0  0  0  0  0  0  0  0  0
  151.6845  139.5881  181.2704 N   0  0  0  0  0  0  0  0  0  0  0  0
  152.0322  139.7686  179.8174 C   0  0  0  0  0  0  0  0  0  0  0  0
  150.8260  140.0926  179.0217 C   0  0  0  0  0  0  0  0  0  0  0  0
  149.7763  139.2377  179.1991 O   0  0  0  0  0  0  0  0  0  0  0  0
  149.8692  138.4195  180.3117 C   0  0  0  0  0  0  0  0  0  0  0  0
  150.3883  139.1278  181.5539 C   0  0  0  0  0  0  0  0  0  0  0  0
  154.6835  142.8456  183.3382 C   0  0  0  0  0  0  0  0  0  0  0  0
  153.7899  143.5172  184.1615 F   0  0  0  0  0  0  0  0  0  0  0  0
  154.6962  143.4496  182.1329 F   0  0  0  0  0  0  0  0  0  0  0  0
  155.8897  142.8734  183.9885 F   0  0  0  0  0  0  0  0  0  0  0  0
 11 12  1  0  0  0
 12 13  1  0  0  0
 13 14  1  0  0  0
 14 15  1  0  0  0
 15 16  1  0  0  0
 16 17  1  0  0  0
 15  5  1  0  0  0
  5  6  2  0  0  0
  6  7  1  0  0  0
  7  8  2  0  0  0
  8  9  1  0  0  0
  9 10  2  0  0  0
  8  1  1  0  0  0
  1  2  2  0  0  0
  1  3  1  0  0  0
  3 18  1  0  0  0
 18 19  2  0  0  0
 19 20  1  0  0  0
 20 21  2  0  0  0
 21 22  1  0  0  0
 22 23  2  0  0  0
 22 30  1  0  0  0
 30 31  1  0  0  0
 30 32  1  0  0  0
 30 33  1  0  0  0
 20 24  1  0  0  0
 24 25  1  0  0  0
 25 26  1  0  0  0
 26 27  1  0  0  0
 27 28  1  0  0  0
 28 29  1  0  0  0
 17 12  1  0  0  0
 10  5  1  0  0  0
 23 18  1  0  0  0
 29 24  1  0  0  0
  3  4  1  0  0  0
M  END
> <minimizedAffinity>
-7.16088

> <CNNscore>
0.4069337845

> <CNNaffinity>
5.6718840599

> <CNN_VS>
2.3080811501

> <CNNaffinity_variance>
0.0201501157

$$$$
[H]c1c(N([H])C(=O)c2c([H])c([H])c(N3C([H])([H])C([H])([H])N(C([H])([H])[H])C([H])([H])C3([H])[H])c([H])c2[H])nc(C(F)(F)F)nc1N1C([H])([H])C([H])([H])OC([H])([H])C1([H])[H]


 33 36  0  0  0  0  0  0  0  0999 V2000
  154.0044  140.7962  182.2760 C   0  0  0  0  0  0  0  0  0  0  0  0
  153.7479  141.9456  182.8201 O   0  0  0  0  0  0  0  0  0  0  0  0
  155.3037  140.3708  182.0747 N   0  0  0  0  0  0  0  0  0  0  0  0
  155.5355  139.4764  181.6057 H   0  0  0  0  0  0  0  0  0  0  0  0
  150.7980  138.3314  181.2570 C   0  0  0  0  0  0  0  0  0  0  0  0
  150.8010  139.6572  180.8035 C   0  0  0  0  0  0  0  0  0  0  0  0
  151.8507  140.5005  181.1515 C   0  0  0  0  0  0  0  0  0  0  0  0
  152.8255  140.0046  181.9280 C   0  0  0  0  0  0  0  0  0  0  0  0
  152.8601  138.6809  182.4179 C   0  0  0  0  0  0  0  0  0  0  0  0
  151.8085  137.8586  182.0465 C   0  0  0  0  0  0  0  0  0  0  0  0
  146.9287  134.6863  180.5198 C   0  0  0  0  0  0  0  0  0  0  0  0
  147.3911  136.0413  180.2350 N   0  0  0  0  0  0  0  0  0  0  0  0
  147.6771  136.6498  181.5024 C   0  0  0  0  0  0  0  0  0  0  0  0
  149.1328  136.6804  181.8362 C   0  0  0  0  0  0  0  0  0  0  0  0
  149.8073  137.4525  180.7787 N   0  0  0  0  0  0  0  0  0  0  0  0
  149.4052  137.2399  179.4388 C   0  0  0  0  0  0  0  0  0  0  0  0
  148.5422  135.9928  179.3572 C   0  0  0  0  0  0  0  0  0  0  0  0
  156.3707  141.0829  182.7002 C   0  0  0  0  0  0  0  0  0  0  0  0
  156.8888  142.2290  182.2359 C   0  0  0  0  0  0  0  0  0  0  0  0
  157.9667  142.8523  182.8494 C   0  0  0  0  0  0  0  0  0  0  0  0
  158.4944  142.2599  183.9453 N   0  0  0  0  0  0  0  0  0  0  0  0
  157.9525  141.0889  184.4024 C   0  0  0  0  0  0  0  0  0  0  0  0
  156.9258  140.5123  183.8019 N   0  0  0  0  0  0  0  0  0  0  0  0
  158.3562  144.1484  182.4133 N   0  0  0  0  0  0  0  0  0  0  0  0
  158.0957  144.3542  180.9454 C   0  0  0  0  0  0  0  0  0  0  0  0
  159.0453  145.3356  180.3727 C   0  0  0  0  0  0  0  0  0  0  0  0
  159.1281  146.5166  181.0530 O   0  0  0  0  0  0  0  0  0  0  0  0
  158.5861  146.4978  182.3265 C   0  0  0  0  0  0  0  0  0  0  0  0
  158.9064  145.2351  183.1122 C   0  0  0  0  0  0  0  0  0  0  0  0
  158.5822  140.4702  185.6226 C   0  0  0  0  0  0  0  0  0  0  0  0
  158.1141  141.1864  186.7158 F   0  0  0  0  0  0  0  0  0  0  0  0
  159.9257  140.5751  185.5822 F   0  0  0  0  0  0  0  0  0  0  0  0
  158.1279  139.1878  185.7891 F   0  0  0  0  0  0  0  0  0  0  0  0
 11 12  1  0  0  0
 12 13  1  0  0  0
 13 14  1  0  0  0
 14 15  1  0  0  0
 15 16  1  0  0  0
 16 17  1  0  0  0
 15  5  1  0  0  0
  5  6  2  0  0  0
  6  7  1  0  0  0
  7  8  2  0  0  0
  8  9  1  0  0  0
  9 10  2  0  0  0
  8  1  1  0  0  0
  1  2  2  0  0  0
  1  3  1  0  0  0
  3 18  1  0  0  0
 18 19  2  0  0  0
 19 20  1  0  0  0
 20 21  2  0  0  0
 21 22  1  0  0  0
 22 23  2  0  0  0
 22 30  1  0  0  0
 30 31  1  0  0  0
 30 32  1  0  0  0
 30 33  1  0  0  0
 20 24  1  0  0  0
 24 25  1  0  0  0
 25 26  1  0  0  0
 26 27  1  0  0  0
 27 28  1  0  0  0
 28 29  1  0  0  0
 17 12  1  0  0  0
 10  5  1  0  0  0
 23 18  1  0  0  0
 29 24  1  0  0  0
  3  4  1  0  0  0
M  END
> <minimizedAffinity>
-0.28596

> <CNNscore>
0.4062445462

> <CNNaffinity>
6.3651533127

> <CNN_VS>
2.5858087540

> <CNNaffinity_variance>
1.4933750629

$$$$
[H]c1c(N([H])C(=O)c2c([H])c([H])c(N3C([H])([H])C([H])([H])N(C([H])([H])[H])C([H])([H])C3([H])[H])c([H])c2[H])nc(C(F)(F)F)nc1N1C([H])([H])C([H])([H])OC([H])([H])C1([H])[H]


 33 36  0  0  0  0  0  0  0  0999 V2000
  155.1371  139.7854  184.0400 C   0  0  0  0  0  0  0  0  0  0  0  0
  154.7689  141.0240  183.9249 O   0  0  0  0  0  0  0  0  0  0  0  0
  156.4110  139.3795  183.6903 N   0  0  0  0  0  0  0  0  0  0  0  0
  156.7170  138.3905  183.7340 H   0  0  0  0  0  0  0  0  0  0  0  0
  152.0653  137.3126  185.3977 C   0  0  0  0  0  0  0  0  0  0  0  0
  152.9142  137.9124  186.3373 C   0  0  0  0  0  0  0  0  0  0  0  0
  153.9578  138.7225  185.9026 C   0  0  0  0  0  0  0  0  0  0  0  0
  154.1169  138.8890  184.5813 C   0  0  0  0  0  0  0  0  0  0  0  0
  153.2951  138.2971  183.5975 C   0  0  0  0  0  0  0  0  0  0  0  0
  152.2560  137.5045  184.0579 C   0  0  0  0  0  0  0  0  0  0  0  0
  148.4798  133.8310  187.3532 C   0  0  0  0  0  0  0  0  0  0  0  0
  148.9838  135.2006  187.3826 N   0  0  0  0  0  0  0  0  0  0  0  0
  150.3940  135.1113  187.6313 C   0  0  0  0  0  0  0  0  0  0  0  0
  151.2295  135.2825  186.4049 C   0  0  0  0  0  0  0  0  0  0  0  0
  150.9304  136.6158  185.8553 N   0  0  0  0  0  0  0  0  0  0  0  0
  149.5821  137.0449  185.8438 C   0  0  0  0  0  0  0  0  0  0  0  0
  148.6695  135.8663  186.1353 C   0  0  0  0  0  0  0  0  0  0  0  0
  157.4101  140.3682  183.4437 C   0  0  0  0  0  0  0  0  0  0  0  0
  158.2104  140.8855  184.3868 C   0  0  0  0  0  0  0  0  0  0  0  0
  159.1273  141.8890  184.1059 C   0  0  0  0  0  0  0  0  0  0  0  0
  159.1903  142.3441  182.8333 N   0  0  0  0  0  0  0  0  0  0  0  0
  158.3633  141.8046  181.8854 C   0  0  0  0  0  0  0  0  0  0  0  0
  157.4968  140.8495  182.1754 N   0  0  0  0  0  0  0  0  0  0  0  0
  160.0628  142.2711  185.1062 N   0  0  0  0  0  0  0  0  0  0  0  0
  161.4008  142.6349  184.5213 C   0  0  0  0  0  0  0  0  0  0  0  0
  162.4892  142.3789  185.4922 C   0  0  0  0  0  0  0  0  0  0  0  0
  162.2977  142.9313  186.7261 O   0  0  0  0  0  0  0  0  0  0  0  0
  161.0037  143.3480  186.9864 C   0  0  0  0  0  0  0  0  0  0  0  0
  159.9364  142.3788  186.5008 C   0  0  0  0  0  0  0  0  0  0  0  0
  158.4716  142.3519  180.4865 C   0  0  0  0  0  0  0  0  0  0  0  0
  157.6927  143.5005  180.4496 F   0  0  0  0  0  0  0  0  0  0  0  0
  157.9893  141.4751  179.5830 F   0  0  0  0  0  0  0  0  0  0  0  0
  159.7565  142.7592  180.2374 F   0  0  0  0  0  0  0  0  0  0  0  0
 11 12  1  0  0  0
 12 13  1  0  0  0
 13 14  1  0  0  0
 14 15  1  0  0  0
 15 16  1  0  0  0
 16 17  1  0  0  0
 15  5  1  0  0  0
  5  6  2  0  0  0
  6  7  1  0  0  0
  7  8  2  0  0  0
  8  9  1  0  0  0
  9 10  2  0  0  0
  8  1  1  0  0  0
  1  2  2  0  0  0
  1  3  1  0  0  0
  3 18  1  0  0  0
 18 19  2  0  0  0
 19 20  1  0  0  0
 20 21  2  0  0  0
 21 22  1  0  0  0
 22 23  2  0  0  0
 22 30  1  0  0  0
 30 31  1  0  0  0
 30 32  1  0  0  0
 30 33  1  0  0  0
 20 24  1  0  0  0
 24 25  1  0  0  0
 25 26  1  0  0  0
 26 27  1  0  0  0
 27 28  1  0  0  0
 28 29  1  0  0  0
 17 12  1  0  0  0
 10  5  1  0  0  0
 23 18  1  0  0  0
 29 24  1  0  0  0
  3  4  1  0  0  0
M  END
> <minimizedAffinity>
-8.39198

> <CNNscore>
0.3820185363

> <CNNaffinity>
6.1637296677

> <CNN_VS>
2.3546590805

> <CNNaffinity_variance>
0.0328191184

$$$$
[H]c1c(N([H])C(=O)c2c([H])c([H])c(N3C([H])([H])C([H])([H])N(C([H])([H])[H])C([H])([H])C3([H])[H])c([H])c2[H])nc(C(F)(F)F)nc1N1C([H])([H])C([H])([H])OC([H])([H])C1([H])[H]


 33 36  0  0  0  0  0  0  0  0999 V2000
  151.2697  136.9436  184.0765 C   0  0  0  0  0  0  0  0  0  0  0  0
  150.4151  137.5519  183.3131 O   0  0  0  0  0  0  0  0  0  0  0  0
  152.6282  137.1639  183.9518 N   0  0  0  0  0  0  0  0  0  0  0  0
  153.3332  136.6610  184.5206 H   0  0  0  0  0  0  0  0  0  0  0  0
  149.3906  134.5624  186.9389 C   0  0  0  0  0  0  0  0  0  0  0  0
  150.7909  134.6018  186.9074 C   0  0  0  0  0  0  0  0  0  0  0  0
  151.4356  135.3728  185.9461 C   0  0  0  0  0  0  0  0  0  0  0  0
  150.6780  136.0477  185.0688 C   0  0  0  0  0  0  0  0  0  0  0  0
  149.2663  136.0301  185.0540 C   0  0  0  0  0  0  0  0  0  0  0  0
  148.6492  135.2637  186.0297 C   0  0  0  0  0  0  0  0  0  0  0  0
  147.9601  131.5045  191.1108 C   0  0  0  0  0  0  0  0  0  0  0  0
  147.9695  132.8457  190.5346 N   0  0  0  0  0  0  0  0  0  0  0  0
  149.3326  133.1333  190.1920 C   0  0  0  0  0  0  0  0  0  0  0  0
  149.6312  132.9683  188.7376 C   0  0  0  0  0  0  0  0  0  0  0  0
  148.7539  133.8962  188.0037 N   0  0  0  0  0  0  0  0  0  0  0  0
  147.4097  134.0191  188.4282 C   0  0  0  0  0  0  0  0  0  0  0  0
  147.0760  132.8970  189.3957 C   0  0  0  0  0  0  0  0  0  0  0  0
  153.0826  138.2570  183.1546 C   0  0  0  0  0  0  0  0  0  0  0  0
  154.1961  138.9615  183.4023 C   0  0  0  0  0  0  0  0  0  0  0  0
  154.5636  140.0546  182.6298 C   0  0  0  0  0  0  0  0  0  0  0  0
  153.7515  140.4007  181.6045 N   0  0  0  0  0  0  0  0  0  0  0  0
  152.6182  139.6701  181.3692 C   0  0  0  0  0  0  0  0  0  0  0  0
  152.2872  138.6325  182.1183 N   0  0  0  0  0  0  0  0  0  0  0  0
  155.8385  140.6496  182.8355 N   0  0  0  0  0  0  0  0  0  0  0  0
  156.1928  140.7395  184.2953 C   0  0  0  0  0  0  0  0  0  0  0  0
  157.1038  141.8792  184.5488 C   0  0  0  0  0  0  0  0  0  0  0  0
  158.2076  141.9195  183.7461 O   0  0  0  0  0  0  0  0  0  0  0  0
  158.1457  141.1107  182.6245 C   0  0  0  0  0  0  0  0  0  0  0  0
  156.7944  141.1309  181.9261 C   0  0  0  0  0  0  0  0  0  0  0  0
  151.7480  140.1024  180.2186 C   0  0  0  0  0  0  0  0  0  0  0  0
  150.6445  139.2599  180.2187 F   0  0  0  0  0  0  0  0  0  0  0  0
  152.3938  139.9662  179.0430 F   0  0  0  0  0  0  0  0  0  0  0  0
  151.2599  141.3633  180.4438 F   0  0  0  0  0  0  0  0  0  0  0  0
 11 12  1  0  0  0
 12 13  1  0  0  0
 13 14  1  0  0  0
 14 15  1  0  0  0
 15 16  1  0  0  0
 16 17  1  0  0  0
 15  5  1  0  0  0
  5  6  2  0  0  0
  6  7  1  0  0  0
  7  8  2  0  0  0
  8  9  1  0  0  0
  9 10  2  0  0  0
  8  1  1  0  0  0
  1  2  2  0  0  0
  1  3  1  0  0  0
  3 18  1  0  0  0
 18 19  2  0  0  0
 19 20  1  0  0  0
 20 21  2  0  0  0
 21 22  1  0  0  0
 22 23  2  0  0  0
 22 30  1  0  0  0
 30 31  1  0  0  0
 30 32  1  0  0  0
 30 33  1  0  0  0
 20 24  1  0  0  0
 24 25  1  0  0  0
 25 26  1  0  0  0
 26 27  1  0  0  0
 27 28  1  0  0  0
 28 29  1  0  0  0
 17 12  1  0  0  0
 10  5  1  0  0  0
 23 18  1  0  0  0
 29 24  1  0  0  0
  3  4  1  0  0  0
M  END
> <minimizedAffinity>
-4.62512

> <CNNscore>
0.2831825018

> <CNNaffinity>
5.5989937782

> <CNN_VS>
1.5855370760

> <CNNaffinity_variance>
0.5754743814

$$$$
[H]c1c(N([H])C(=O)c2c([H])c([H])c(N3C([H])([H])C([H])([H])N(C([H])([H])[H])C([H])([H])C3([H])[H])c([H])c2[H])nc(C(F)(F)F)nc1N1C([H])([H])C([H])([H])OC([H])([H])C1([H])[H]


 33 36  0  0  0  0  0  0  0  0999 V2000
  154.6135  138.1858  185.9880 C   0  0  0  0  0  0  0  0  0  0  0  0
  155.1846  137.0336  186.1593 O   0  0  0  0  0  0  0  0  0  0  0  0
  153.5289  138.5706  186.7532 N   0  0  0  0  0  0  0  0  0  0  0  0
  153.0297  139.4670  186.6090 H   0  0  0  0  0  0  0  0  0  0  0  0
  156.4985  140.6848  183.2319 C   0  0  0  0  0  0  0  0  0  0  0  0
  155.1297  140.4252  183.0818 C   0  0  0  0  0  0  0  0  0  0  0  0
  154.4885  139.5768  183.9781 C   0  0  0  0  0  0  0  0  0  0  0  0
  155.2212  139.0254  184.9569 C   0  0  0  0  0  0  0  0  0  0  0  0
  156.6033  139.2478  185.1414 C   0  0  0  0  0  0  0  0  0  0  0  0
  157.2148  140.1062  184.2419 C   0  0  0  0  0  0  0  0  0  0  0  0
  159.4628  143.5317  179.7809 C   0  0  0  0  0  0  0  0  0  0  0  0
  158.1172  143.1889  180.2311 N   0  0  0  0  0  0  0  0  0  0  0  0
  158.0325  141.7569  180.2111 C   0  0  0  0  0  0  0  0  0  0  0  0
  158.1826  141.1301  181.5587 C   0  0  0  0  0  0  0  0  0  0  0  0
  157.0998  141.6554  182.4077 N   0  0  0  0  0  0  0  0  0  0  0  0
  156.7857  143.0317  182.3118 C   0  0  0  0  0  0  0  0  0  0  0  0
  157.8805  143.7522  181.5443 C   0  0  0  0  0  0  0  0  0  0  0  0
  153.1926  137.8078  187.9115 C   0  0  0  0  0  0  0  0  0  0  0  0
  152.2018  136.9059  187.9611 C   0  0  0  0  0  0  0  0  0  0  0  0
  151.8765  136.2321  189.1302 C   0  0  0  0  0  0  0  0  0  0  0  0
  152.5948  136.5180  190.2406 N   0  0  0  0  0  0  0  0  0  0  0  0
  153.6009  137.4433  190.1699 C   0  0  0  0  0  0  0  0  0  0  0  0
  153.8933  138.0737  189.0455 N   0  0  0  0  0  0  0  0  0  0  0  0
  150.9358  135.1673  189.0760 N   0  0  0  0  0  0  0  0  0  0  0  0
  151.2110  134.2258  187.9347 C   0  0  0  0  0  0  0  0  0  0  0  0
  149.9632  133.5752  187.4736 C   0  0  0  0  0  0  0  0  0  0  0  0
  149.2249  132.9881  188.4608 O   0  0  0  0  0  0  0  0  0  0  0  0
  149.5639  133.3657  189.7486 C   0  0  0  0  0  0  0  0  0  0  0  0
  149.8423  134.8537  189.8996 C   0  0  0  0  0  0  0  0  0  0  0  0
  154.3646  137.7267  191.4367 C   0  0  0  0  0  0  0  0  0  0  0  0
  153.5016  137.4518  192.4888 F   0  0  0  0  0  0  0  0  0  0  0  0
  154.7280  139.0232  191.5052 F   0  0  0  0  0  0  0  0  0  0  0  0
  155.4083  136.8476  191.5652 F   0  0  0  0  0  0  0  0  0  0  0  0
 11 12  1  0  0  0
 12 13  1  0  0  0
 13 14  1  0  0  0
 14 15  1  0  0  0
 15 16  1  0  0  0
 16 17  1  0  0  0
 15  5  1  0  0  0
  5  6  2  0  0  0
  6  7  1  0  0  0
  7  8  2  0  0  0
  8  9  1  0  0  0
  9 10  2  0  0  0
  8  1  1  0  0  0
  1  2  2  0  0  0
  1  3  1  0  0  0
  3 18  1  0  0  0
 18 19  2  0  0  0
 19 20  1  0  0  0
 20 21  2  0  0  0
 21 22  1  0  0  0
 22 23  2  0  0  0
 22 30  1  0  0  0
 30 31  1  0  0  0
 30 32  1  0  0  0
 30 33  1  0  0  0
 20 24  1  0  0  0
 24 25  1  0  0  0
 25 26  1  0  0  0
 26 27  1  0  0  0
 27 28  1  0  0  0
 28 29  1  0  0  0
 17 12  1  0  0  0
 10  5  1  0  0  0
 23 18  1  0  0  0
 29 24  1  0  0  0
  3  4  1  0  0  0
M  END
> <minimizedAffinity>
-7.64329

> <CNNscore>
0.2665331960

> <CNNaffinity>
5.8005757332

> <CNN_VS>
1.5460460186

> <CNNaffinity_variance>
0.1274782121

$$$$
[H]c1c(N([H])C(=O)c2c([H])c([H])c(N3C([H])([H])C([H])([H])N(C([H])([H])[H])C([H])([H])C3([H])[H])c([H])c2[H])nc(C(F)(F)F)nc1N1C([H])([H])C([H])([H])OC([H])([H])C1([H])[H]


 33 36  0  0  0  0  0  0  0  0999 V2000
  153.3398  138.0690  185.9985 C   0  0  0  0  0  0  0  0  0  0  0  0
  152.4780  137.5372  185.1875 O   0  0  0  0  0  0  0  0  0  0  0  0
  154.2541  139.0080  185.5600 N   0  0  0  0  0  0  0  0  0  0  0  0
  154.9785  139.4173  186.1774 H   0  0  0  0  0  0  0  0  0  0  0  0
  152.8043  136.7265  189.9107 C   0  0  0  0  0  0  0  0  0  0  0  0
  153.6851  137.7909  189.6769 C   0  0  0  0  0  0  0  0  0  0  0  0
  153.8934  138.2380  188.3765 C   0  0  0  0  0  0  0  0  0  0  0  0
  153.2408  137.6143  187.3844 C   0  0  0  0  0  0  0  0  0  0  0  0
  152.3535  136.5318  187.5695 C   0  0  0  0  0  0  0  0  0  0  0  0
  152.1548  136.1141  188.8757 C   0  0  0  0  0  0  0  0  0  0  0  0
  152.1625  134.4531  194.7295 C   0  0  0  0  0  0  0  0  0  0  0  0
  152.5576  135.6508  193.9945 N   0  0  0  0  0  0  0  0  0  0  0  0
  153.5554  135.2391  193.0494 C   0  0  0  0  0  0  0  0  0  0  0  0
  153.0318  135.0764  191.6598 C   0  0  0  0  0  0  0  0  0  0  0  0
  152.4938  136.3817  191.2402 N   0  0  0  0  0  0  0  0  0  0  0  0
  151.7472  137.1287  192.1818 C   0  0  0  0  0  0  0  0  0  0  0  0
  151.3961  136.2480  193.3683 C   0  0  0  0  0  0  0  0  0  0  0  0
  154.0856  139.5880  184.2670 C   0  0  0  0  0  0  0  0  0  0  0  0
  153.1411  139.2184  183.3902 C   0  0  0  0  0  0  0  0  0  0  0  0
  153.0562  139.7737  182.1209 C   0  0  0  0  0  0  0  0  0  0  0  0
  153.9712  140.7112  181.7829 N   0  0  0  0  0  0  0  0  0  0  0  0
  154.9288  141.0734  182.6914 C   0  0  0  0  0  0  0  0  0  0  0  0
  154.9913  140.5309  183.8951 N   0  0  0  0  0  0  0  0  0  0  0  0
  151.9324  139.4669  181.3054 N   0  0  0  0  0  0  0  0  0  0  0  0
  152.1997  139.7342  179.8488 C   0  0  0  0  0  0  0  0  0  0  0  0
  150.9457  140.0633  179.1332 C   0  0  0  0  0  0  0  0  0  0  0  0
  149.9302  139.1690  179.3162 O   0  0  0  0  0  0  0  0  0  0  0  0
  150.1028  138.2965  180.3768 C   0  0  0  0  0  0  0  0  0  0  0  0
  150.6656  138.9536  181.6280 C   0  0  0  0  0  0  0  0  0  0  0  0
  155.9251  142.1175  182.2609 C   0  0  0  0  0  0  0  0  0  0  0  0
  156.8696  142.2049  183.2746 F   0  0  0  0  0  0  0  0  0  0  0  0
  155.3356  143.3214  182.1165 F   0  0  0  0  0  0  0  0  0  0  0  0
  156.6037  141.6920  181.1486 F   0  0  0  0  0  0  0  0  0  0  0  0
 11 12  1  0  0  0
 12 13  1  0  0  0
 13 14  1  0  0  0
 14 15  1  0  0  0
 15 16  1  0  0  0
 16 17  1  0  0  0
 15  5  1  0  0  0
  5  6  2  0  0  0
  6  7  1  0  0  0
  7  8  2  0  0  0
  8  9  1  0  0  0
  9 10  2  0  0  0
  8  1  1  0  0  0
  1  2  2  0  0  0
  1  3  1  0  0  0
  3 18  1  0  0  0
 18 19  2  0  0  0
 19 20  1  0  0  0
 20 21  2  0  0  0
 21 22  1  0  0  0
 22 23  2  0  0  0
 22 30  1  0  0  0
 30 31  1  0  0  0
 30 32  1  0  0  0
 30 33  1  0  0  0
 20 24  1  0  0  0
 24 25  1  0  0  0
 25 26  1  0  0  0
 26 27  1  0  0  0
 27 28  1  0  0  0
 28 29  1  0  0  0
 17 12  1  0  0  0
 10  5  1  0  0  0
 23 18  1  0  0  0
 29 24  1  0  0  0
  3  4  1  0  0  0
M  END
> <minimizedAffinity>
-7.85565

> <CNNscore>
0.2318673283

> <CNNaffinity>
5.4417967796

> <CNN_VS>
1.2617748976

> <CNNaffinity_variance>
0.0264949389

$$$$
[H]c1c(N([H])C(=O)c2c([H])c([H])c(N3C([H])([H])C([H])([H])N(C([H])([H])[H])C([H])([H])C3([H])[H])c([H])c2[H])nc(C(F)(F)F)nc1N1C([H])([H])C([H])([H])OC([H])([H])C1([H])[H]


 33 36  0  0  0  0  0  0  0  0999 V2000
  154.8027  138.0610  186.2941 C   0  0  0  0  0  0  0  0  0  0  0  0
  154.9468  136.7815  186.1356 O   0  0  0  0  0  0  0  0  0  0  0  0
  154.2013  138.5815  187.4242 N   0  0  0  0  0  0  0  0  0  0  0  0
  154.0375  139.5960  187.5564 H   0  0  0  0  0  0  0  0  0  0  0  0
  156.4918  140.5139  183.3743 C   0  0  0  0  0  0  0  0  0  0  0  0
  155.1341  140.1823  183.2745 C   0  0  0  0  0  0  0  0  0  0  0  0
  154.5584  139.3477  184.2265 C   0  0  0  0  0  0  0  0  0  0  0  0
  155.3420  138.8789  185.2089 C   0  0  0  0  0  0  0  0  0  0  0  0
  156.7157  139.1756  185.3444 C   0  0  0  0  0  0  0  0  0  0  0  0
  157.2612  140.0188  184.3897 C   0  0  0  0  0  0  0  0  0  0  0  0
  159.3014  143.3761  179.8084 C   0  0  0  0  0  0  0  0  0  0  0  0
  157.9807  142.9156  180.2262 N   0  0  0  0  0  0  0  0  0  0  0  0
  158.0632  141.4878  180.3395 C   0  0  0  0  0  0  0  0  0  0  0  0
  158.2068  141.0069  181.7465 C   0  0  0  0  0  0  0  0  0  0  0  0
  157.0235  141.4720  182.4899 N   0  0  0  0  0  0  0  0  0  0  0  0
  156.5587  142.7864  182.2481 C   0  0  0  0  0  0  0  0  0  0  0  0
  157.6053  143.5617  181.4669 C   0  0  0  0  0  0  0  0  0  0  0  0
  153.9675  137.7249  188.5415 C   0  0  0  0  0  0  0  0  0  0  0  0
  152.7674  137.2295  188.8758 C   0  0  0  0  0  0  0  0  0  0  0  0
  152.5822  136.4475  190.0076 C   0  0  0  0  0  0  0  0  0  0  0  0
  153.6630  136.1978  190.7823 N   0  0  0  0  0  0  0  0  0  0  0  0
  154.8792  136.7144  190.4250 C   0  0  0  0  0  0  0  0  0  0  0  0
  155.0326  137.4574  189.3426 N   0  0  0  0  0  0  0  0  0  0  0  0
  151.3268  135.8117  190.2113 N   0  0  0  0  0  0  0  0  0  0  0  0
  150.7425  136.1310  191.5608 C   0  0  0  0  0  0  0  0  0  0  0  0
  149.8686  135.0321  192.0317 C   0  0  0  0  0  0  0  0  0  0  0  0
  148.9163  134.6346  191.1375 O   0  0  0  0  0  0  0  0  0  0  0  0
  149.1161  135.0679  189.8382 C   0  0  0  0  0  0  0  0  0  0  0  0
  150.5629  134.9798  189.3766 C   0  0  0  0  0  0  0  0  0  0  0  0
  156.0470  136.4097  191.3258 C   0  0  0  0  0  0  0  0  0  0  0  0
  155.5136  135.9920  192.5376 F   0  0  0  0  0  0  0  0  0  0  0  0
  156.7949  137.5106  191.5410 F   0  0  0  0  0  0  0  0  0  0  0  0
  156.7542  135.3422  190.8369 F   0  0  0  0  0  0  0  0  0  0  0  0
 11 12  1  0  0  0
 12 13  1  0  0  0
 13 14  1  0  0  0
 14 15  1  0  0  0
 15 16  1  0  0  0
 16 17  1  0  0  0
 15  5  1  0  0  0
  5  6  2  0  0  0
  6  7  1  0  0  0
  7  8  2  0  0  0
  8  9  1  0  0  0
  9 10  2  0  0  0
  8  1  1  0  0  0
  1  2  2  0  0  0
  1  3  1  0  0  0
  3 18  1  0  0  0
 18 19  2  0  0  0
 19 20  1  0  0  0
 20 21  2  0  0  0
 21 22  1  0  0  0
 22 23  2  0  0  0
 22 30  1  0  0  0
 30 31  1  0  0  0
 30 32  1  0  0  0
 30 33  1  0  0  0
 20 24  1  0  0  0
 24 25  1  0  0  0
 25 26  1  0  0  0
 26 27  1  0  0  0
 27 28  1  0  0  0
 28 29  1  0  0  0
 17 12  1  0  0  0
 10  5  1  0  0  0
 23 18  1  0  0  0
 29 24  1  0  0  0
  3  4  1  0  0  0
M  END
> <minimizedAffinity>
-7.99602

> <CNNscore>
0.2144039124

> <CNNaffinity>
5.7980489731

> <CNN_VS>
1.2431243658

> <CNNaffinity_variance>
0.0779117420

$$$$
[H]c1c(N([H])C(=O)c2c([H])c([H])c(N3C([H])([H])C([H])([H])N(C([H])([H])[H])C([H])([H])C3([H])[H])c([H])c2[H])nc(C(F)(F)F)nc1N1C([H])([H])C([H])([H])OC([H])([H])C1([H])[H]


 33 36  0  0  0  0  0  0  0  0999 V2000
  153.9397  138.1347  186.0932 C   0  0  0  0  0  0  0  0  0  0  0  0
  154.2958  137.2069  185.2592 O   0  0  0  0  0  0  0  0  0  0  0  0
  154.0039  139.4719  185.7503 N   0  0  0  0  0  0  0  0  0  0  0  0
  153.7645  140.2331  186.4111 H   0  0  0  0  0  0  0  0  0  0  0  0
  152.8019  136.7582  189.8622 C   0  0  0  0  0  0  0  0  0  0  0  0
  152.1685  136.2280  188.7304 C   0  0  0  0  0  0  0  0  0  0  0  0
  152.5189  136.6904  187.4665 C   0  0  0  0  0  0  0  0  0  0  0  0
  153.4549  137.6475  187.3836 C   0  0  0  0  0  0  0  0  0  0  0  0
  154.1119  138.2197  188.4947 C   0  0  0  0  0  0  0  0  0  0  0  0
  153.7527  137.7326  189.7411 C   0  0  0  0  0  0  0  0  0  0  0  0
  150.8861  135.1994  194.6268 C   0  0  0  0  0  0  0  0  0  0  0  0
  151.4420  134.7782  193.3445 N   0  0  0  0  0  0  0  0  0  0  0  0
  150.6376  135.3943  192.3288 C   0  0  0  0  0  0  0  0  0  0  0  0
  151.2665  136.6052  191.7205 C   0  0  0  0  0  0  0  0  0  0  0  0
  152.5419  136.1796  191.1194 N   0  0  0  0  0  0  0  0  0  0  0  0
  153.3465  135.2657  191.8403 C   0  0  0  0  0  0  0  0  0  0  0  0
  152.8384  135.1548  193.2673 C   0  0  0  0  0  0  0  0  0  0  0  0
  154.2186  139.8275  184.3850 C   0  0  0  0  0  0  0  0  0  0  0  0
  155.2776  140.5203  183.9420 C   0  0  0  0  0  0  0  0  0  0  0  0
  155.4105  140.8923  182.6114 C   0  0  0  0  0  0  0  0  0  0  0  0
  154.4232  140.5358  181.7578 N   0  0  0  0  0  0  0  0  0  0  0  0
  153.3493  139.8305  182.2299 C   0  0  0  0  0  0  0  0  0  0  0  0
  153.2429  139.4871  183.5018 N   0  0  0  0  0  0  0  0  0  0  0  0
  156.6333  141.4713  182.1740 N   0  0  0  0  0  0  0  0  0  0  0  0
  157.7473  140.4615  182.1100 C   0  0  0  0  0  0  0  0  0  0  0  0
  159.0617  141.1107  182.3191 C   0  0  0  0  0  0  0  0  0  0  0  0
  159.2994  142.1930  181.5212 O   0  0  0  0  0  0  0  0  0  0  0  0
  158.1812  142.7144  180.8938 C   0  0  0  0  0  0  0  0  0  0  0  0
  156.9514  142.7832  181.7866 C   0  0  0  0  0  0  0  0  0  0  0  0
  152.2772  139.4645  181.2376 C   0  0  0  0  0  0  0  0  0  0  0  0
  152.4217  138.1077  180.9815 F   0  0  0  0  0  0  0  0  0  0  0  0
  152.4340  140.1401  180.0815 F   0  0  0  0  0  0  0  0  0  0  0  0
  151.0384  139.6114  181.8056 F   0  0  0  0  0  0  0  0  0  0  0  0
 11 12  1  0  0  0
 12 13  1  0  0  0
 13 14  1  0  0  0
 14 15  1  0  0  0
 15 16  1  0  0  0
 16 17  1  0  0  0
 15  5  1  0  0  0
  5  6  2  0  0  0
  6  7  1  0  0  0
  7  8  2  0  0  0
  8  9  1  0  0  0
  9 10  2  0  0  0
  8  1  1  0  0  0
  1  2  2  0  0  0
  1  3  1  0  0  0
  3 18  1  0  0  0
 18 19  2  0  0  0
 19 20  1  0  0  0
 20 21  2  0  0  0
 21 22  1  0  0  0
 22 23  2  0  0  0
 22 30  1  0  0  0
 30 31  1  0  0  0
 30 32  1  0  0  0
 30 33  1  0  0  0
 20 24  1  0  0  0
 24 25  1  0  0  0
 25 26  1  0  0  0
 26 27  1  0  0  0
 27 28  1  0  0  0
 28 29  1  0  0  0
 17 12  1  0  0  0
 10  5  1  0  0  0
 23 18  1  0  0  0
 29 24  1  0  0  0
  3  4  1  0  0  0
M  END
> <minimizedAffinity>
-7.64769

> <CNNscore>
0.2012771815

> <CNNaffinity>
5.6407666206

> <CNN_VS>
1.1353576183

> <CNNaffinity_variance>
0.1049722061

$$$$
[H]c1c(C(=O)N([H])c2c([H])c([H])c(C(F)(F)F)c([H])c2[H])nc(C(F)(F)F)nc1N1C([H])([H])C([H])([H])N(S(=O)(=O)c2c([H])c([H])c([H])c([H])c2[H])C([H])([H])[C@@]1([H])C([H])([H])[H]


 40 43  0  0  0  0  0  0  0  0999 V2000
  153.3338  137.9432  184.3895 C   0  0  0  0  0  0  0  0  0  0  0  0
  154.5780  138.5217  184.3640 C   0  0  0  0  0  0  0  0  0  0  0  0
  154.9758  139.4057  183.3896 C   0  0  0  0  0  0  0  0  0  0  0  0
  154.0167  139.6806  182.4136 N   0  0  0  0  0  0  0  0  0  0  0  0
  152.8131  139.1429  182.4033 C   0  0  0  0  0  0  0  0  0  0  0  0
  152.4841  138.3121  183.3457 N   0  0  0  0  0  0  0  0  0  0  0  0
  152.8780  134.6691  185.2635 C   0  0  0  0  0  0  0  0  0  0  0  0
  153.6859  135.8663  185.6456 C   0  0  0  0  0  0  0  0  0  0  0  0
  153.9053  136.0314  187.1353 C   0  0  0  0  0  0  0  0  0  0  0  0
  152.6754  135.7077  187.7417 N   0  0  0  0  0  0  0  0  0  0  0  0
  151.7079  136.7235  187.4980 C   0  0  0  0  0  0  0  0  0  0  0  0
  151.6228  137.2301  186.0603 C   0  0  0  0  0  0  0  0  0  0  0  0
  152.7917  137.0564  185.3419 N   0  0  0  0  0  0  0  0  0  0  0  0
  152.7982  135.4928  189.4345 S   0  0  0  0  0  0  0  0  0  0  0  0
  151.5225  136.0750  190.0553 O   0  0  0  0  0  0  0  0  0  0  0  0
  152.7962  134.0298  189.7162 O   0  0  0  0  0  0  0  0  0  0  0  0
  154.1425  136.1970  190.2028 C   0  0  0  0  0  0  0  0  0  0  0  0
  154.1880  137.5621  190.3870 C   0  0  0  0  0  0  0  0  0  0  0  0
  155.2822  138.2029  190.9851 C   0  0  0  0  0  0  0  0  0  0  0  0
  156.3513  137.4568  191.4125 C   0  0  0  0  0  0  0  0  0  0  0  0
  156.3064  136.0665  191.2319 C   0  0  0  0  0  0  0  0  0  0  0  0
  155.2306  135.4801  190.6426 C   0  0  0  0  0  0  0  0  0  0  0  0
  151.8663  139.5488  181.2844 C   0  0  0  0  0  0  0  0  0  0  0  0
  152.1005  140.8434  180.9220 F   0  0  0  0  0  0  0  0  0  0  0  0
  152.1913  138.7467  180.2082 F   0  0  0  0  0  0  0  0  0  0  0  0
  150.5477  139.3896  181.6492 F   0  0  0  0  0  0  0  0  0  0  0  0
  156.1637  140.1164  183.2388 C   0  0  0  0  0  0  0  0  0  0  0  0
  156.7696  140.4374  184.4011 O   0  0  0  0  0  0  0  0  0  0  0  0
  156.9794  140.6346  182.1863 N   0  0  0  0  0  0  0  0  0  0  0  0
  156.7829  140.5527  181.2070 H   0  0  0  0  0  0  0  0  0  0  0  0
  158.1802  141.3170  182.6461 C   0  0  0  0  0  0  0  0  0  0  0  0
  158.2351  142.6575  182.8857 C   0  0  0  0  0  0  0  0  0  0  0  0
  159.3239  143.2002  183.5864 C   0  0  0  0  0  0  0  0  0  0  0  0
  160.3674  142.4393  184.0574 C   0  0  0  0  0  0  0  0  0  0  0  0
  160.2782  141.0514  183.7817 C   0  0  0  0  0  0  0  0  0  0  0  0
  159.2159  140.5212  183.0955 C   0  0  0  0  0  0  0  0  0  0  0  0
  161.4567  142.9385  184.9530 C   0  0  0  0  0  0  0  0  0  0  0  0
  162.6833  142.4065  184.6236 F   0  0  0  0  0  0  0  0  0  0  0  0
  161.4740  144.3317  184.6863 F   0  0  0  0  0  0  0  0  0  0  0  0
  161.1796  142.8056  186.2702 F   0  0  0  0  0  0  0  0  0  0  0  0
  7  8  1  0  0  0
  8  9  1  0  0  0
  9 10  1  0  0  0
 10 11  1  0  0  0
 11 12  1  0  0  0
 12 13  1  0  0  0
 13  1  1  0  0  0
  1  2  2  0  0  0
  2  3  1  0  0  0
  3  4  2  0  0  0
  4  5  1  0  0  0
  5  6  2  0  0  0
  5 23  1  0  0  0
 23 24  1  0  0  0
 23 25  1  0  0  0
 23 26  1  0  0  0
  3 27  1  0  0  0
 27 28  2  0  0  0
 27 29  1  0  0  0
 29 31  1  0  0  0
 31 32  2  0  0  0
 32 33  1  0  0  0
 33 34  2  0  0  0
 34 35  1  0  0  0
 35 36  2  0  0  0
 34 37  1  0  0  0
 37 38  1  0  0  0
 37 39  1  0  0  0
 37 40  1  0  0  0
 10 14  1  0  0  0
 14 15  2  0  0  0
 14 16  2  0  0  0
 14 17  1  0  0  0
 17 18  2  0  0  0
 18 19  1  0  0  0
 19 20  2  0  0  0
 20 21  1  0  0  0
 21 22  2  0  0  0
 13  8  1  0  0  0
  6  1  1  0  0  0
 36 31  1  0  0  0
 22 17  1  0  0  0
 29 30  1  0  0  0
M  END
> <minimizedAffinity>
-9.65518

> <CNNscore>
0.4212824702

> <CNNaffinity>
6.9650392532

> <CNN_VS>
2.9342489243

> <CNNaffinity_variance>
0.0469084084

$$$$
[H]c1c(C(=O)N([H])c2c([H])c([H])c(C(F)(F)F)c([H])c2[H])nc(C(F)(F)F)nc1N1C([H])([H])C([H])([H])N(S(=O)(=O)c2c([H])c([H])c([H])c([H])c2[H])C([H])([H])[C@@]1([H])C([H])([H])[H]


 40 43  0  0  0  0  0  0  0  0999 V2000
  153.4504  136.6223  186.9728 C   0  0  0  0  0  0  0  0  0  0  0  0
  153.9339  137.3914  185.9442 C   0  0  0  0  0  0  0  0  0  0  0  0
  155.0865  138.1342  186.0388 C   0  0  0  0  0  0  0  0  0  0  0  0
  155.7427  138.0532  187.2679 N   0  0  0  0  0  0  0  0  0  0  0  0
  155.3080  137.3279  188.2793 C   0  0  0  0  0  0  0  0  0  0  0  0
  154.2129  136.6437  188.1415 N   0  0  0  0  0  0  0  0  0  0  0  0
  151.4885  134.5677  188.8755 C   0  0  0  0  0  0  0  0  0  0  0  0
  151.4819  135.9295  188.2612 C   0  0  0  0  0  0  0  0  0  0  0  0
  150.1445  136.3615  187.6962 C   0  0  0  0  0  0  0  0  0  0  0  0
  149.6153  135.2249  187.0533 N   0  0  0  0  0  0  0  0  0  0  0  0
  150.3331  134.9395  185.8573 C   0  0  0  0  0  0  0  0  0  0  0  0
  151.8551  134.9879  185.9672 C   0  0  0  0  0  0  0  0  0  0  0  0
  152.3107  135.7930  186.9952 N   0  0  0  0  0  0  0  0  0  0  0  0
  147.9617  135.3928  186.6475 S   0  0  0  0  0  0  0  0  0  0  0  0
  147.4896  134.0348  186.1139 O   0  0  0  0  0  0  0  0  0  0  0  0
  147.2029  135.6605  187.9015 O   0  0  0  0  0  0  0  0  0  0  0  0
  147.5691  136.5887  185.5034 C   0  0  0  0  0  0  0  0  0  0  0  0
  147.5273  137.9126  185.8843 C   0  0  0  0  0  0  0  0  0  0  0  0
  147.1801  138.9391  184.9948 C   0  0  0  0  0  0  0  0  0  0  0  0
  146.8738  138.6307  183.6935 C   0  0  0  0  0  0  0  0  0  0  0  0
  146.9206  137.2850  183.3005 C   0  0  0  0  0  0  0  0  0  0  0  0
  147.2564  136.3153  184.1924 C   0  0  0  0  0  0  0  0  0  0  0  0
  156.1370  137.3231  189.5544 C   0  0  0  0  0  0  0  0  0  0  0  0
  156.9270  136.2110  189.5928 F   0  0  0  0  0  0  0  0  0  0  0  0
  156.9665  138.4238  189.4670 F   0  0  0  0  0  0  0  0  0  0  0  0
  155.3436  137.3803  190.6787 F   0  0  0  0  0  0  0  0  0  0  0  0
  155.7410  138.9189  185.0928 C   0  0  0  0  0  0  0  0  0  0  0  0
  155.0848  139.0363  183.9195 O   0  0  0  0  0  0  0  0  0  0  0  0
  156.9476  139.6748  184.9732 N   0  0  0  0  0  0  0  0  0  0  0  0
  157.6429  139.7733  185.6881 H   0  0  0  0  0  0  0  0  0  0  0  0
  157.1103  140.3347  183.6860 C   0  0  0  0  0  0  0  0  0  0  0  0
  156.5983  141.5661  183.4051 C   0  0  0  0  0  0  0  0  0  0  0  0
  157.0237  142.2574  182.2596 C   0  0  0  0  0  0  0  0  0  0  0  0
  157.9509  141.7519  181.3794 C   0  0  0  0  0  0  0  0  0  0  0  0
  158.4539  140.4661  181.7012 C   0  0  0  0  0  0  0  0  0  0  0  0
  158.0371  139.7896  182.8188 C   0  0  0  0  0  0  0  0  0  0  0  0
  158.5625  142.5142  180.2469 C   0  0  0  0  0  0  0  0  0  0  0  0
  158.1643  142.0297  179.0210 F   0  0  0  0  0  0  0  0  0  0  0  0
  158.0326  143.8188  180.4190 F   0  0  0  0  0  0  0  0  0  0  0  0
  159.9068  142.6335  180.3366 F   0  0  0  0  0  0  0  0  0  0  0  0
  7  8  1  0  0  0
  8  9  1  0  0  0
  9 10  1  0  0  0
 10 11  1  0  0  0
 11 12  1  0  0  0
 12 13  1  0  0  0
 13  1  1  0  0  0
  1  2  2  0  0  0
  2  3  1  0  0  0
  3  4  2  0  0  0
  4  5  1  0  0  0
  5  6  2  0  0  0
  5 23  1  0  0  0
 23 24  1  0  0  0
 23 25  1  0  0  0
 23 26  1  0  0  0
  3 27  1  0  0  0
 27 28  2  0  0  0
 27 29  1  0  0  0
 29 31  1  0  0  0
 31 32  2  0  0  0
 32 33  1  0  0  0
 33 34  2  0  0  0
 34 35  1  0  0  0
 35 36  2  0  0  0
 34 37  1  0  0  0
 37 38  1  0  0  0
 37 39  1  0  0  0
 37 40  1  0  0  0
 10 14  1  0  0  0
 14 15  2  0  0  0
 14 16  2  0  0  0
 14 17  1  0  0  0
 17 18  2  0  0  0
 18 19  1  0  0  0
 19 20  2  0  0  0
 20 21  1  0  0  0
 21 22  2  0  0  0
 13  8  1  0  0  0
  6  1  1  0  0  0
 36 31  1  0  0  0
 22 17  1  0  0  0
 29 30  1  0  0  0
M  END
> <minimizedAffinity>
-7.70191

> <CNNscore>
0.3930314481

> <CNNaffinity>
6.6054015160

> <CNN_VS>
2.5961306095

> <CNNaffinity_variance>
0.1773659885

$$$$
[H]c1c(C(=O)N([H])c2c([H])c([H])c(C(F)(F)F)c([H])c2[H])nc(C(F)(F)F)nc1N1C([H])([H])C([H])([H])N(S(=O)(=O)c2c([H])c([H])c([H])c([H])c2[H])C([H])([H])[C@@]1([H])C([H])([H])[H]


 40 43  0  0  0  0  0  0  0  0999 V2000
  154.0810  137.6009  185.8324 C   0  0  0  0  0  0  0  0  0  0  0  0
  155.1749  138.3216  185.4234 C   0  0  0  0  0  0  0  0  0  0  0  0
  155.2515  138.9413  184.1989 C   0  0  0  0  0  0  0  0  0  0  0  0
  154.1266  138.7875  183.3871 N   0  0  0  0  0  0  0  0  0  0  0  0
  153.0591  138.1013  183.7441 C   0  0  0  0  0  0  0  0  0  0  0  0
  153.0346  137.5328  184.9115 N   0  0  0  0  0  0  0  0  0  0  0  0
  154.7271  134.8207  187.7150 C   0  0  0  0  0  0  0  0  0  0  0  0
  155.0975  136.2650  187.6203 C   0  0  0  0  0  0  0  0  0  0  0  0
  155.2529  136.9663  188.9540 C   0  0  0  0  0  0  0  0  0  0  0  0
  154.1984  136.4937  189.7602 N   0  0  0  0  0  0  0  0  0  0  0  0
  152.9506  137.0215  189.3224 C   0  0  0  0  0  0  0  0  0  0  0  0
  152.7017  136.9787  187.8167 C   0  0  0  0  0  0  0  0  0  0  0  0
  153.8616  136.9516  187.0642 N   0  0  0  0  0  0  0  0  0  0  0  0
  154.3875  136.8920  191.4133 S   0  0  0  0  0  0  0  0  0  0  0  0
  155.7150  136.2782  191.8746 O   0  0  0  0  0  0  0  0  0  0  0  0
  154.5268  138.3716  191.5193 O   0  0  0  0  0  0  0  0  0  0  0  0
  153.1589  136.3799  192.4723 C   0  0  0  0  0  0  0  0  0  0  0  0
  153.3537  135.2645  193.2580 C   0  0  0  0  0  0  0  0  0  0  0  0
  152.3673  134.7764  194.1264 C   0  0  0  0  0  0  0  0  0  0  0  0
  151.1614  135.4251  194.2123 C   0  0  0  0  0  0  0  0  0  0  0  0
  150.9613  136.5641  193.4184 C   0  0  0  0  0  0  0  0  0  0  0  0
  151.9392  137.0055  192.5832 C   0  0  0  0  0  0  0  0  0  0  0  0
  151.9005  138.0330  182.7612 C   0  0  0  0  0  0  0  0  0  0  0  0
  150.7517  137.6979  183.4170 F   0  0  0  0  0  0  0  0  0  0  0  0
  151.7459  139.3159  182.2736 F   0  0  0  0  0  0  0  0  0  0  0  0
  152.1457  137.1359  181.7454 F   0  0  0  0  0  0  0  0  0  0  0  0
  156.2475  139.7437  183.6482 C   0  0  0  0  0  0  0  0  0  0  0  0
  155.9293  141.0533  183.5779 O   0  0  0  0  0  0  0  0  0  0  0  0
  157.5639  139.6050  183.1105 N   0  0  0  0  0  0  0  0  0  0  0  0
  158.0687  138.7431  183.0289 H   0  0  0  0  0  0  0  0  0  0  0  0
  158.1623  140.8579  182.6731 C   0  0  0  0  0  0  0  0  0  0  0  0
  157.9318  141.4113  181.4492 C   0  0  0  0  0  0  0  0  0  0  0  0
  158.3083  142.7405  181.1990 C   0  0  0  0  0  0  0  0  0  0  0  0
  158.9133  143.5388  182.1406 C   0  0  0  0  0  0  0  0  0  0  0  0
  159.1435  142.9252  183.3978 C   0  0  0  0  0  0  0  0  0  0  0  0
  158.7777  141.6263  183.6419 C   0  0  0  0  0  0  0  0  0  0  0  0
  159.1753  145.0031  181.9825 C   0  0  0  0  0  0  0  0  0  0  0  0
  159.4856  145.3369  180.6830 F   0  0  0  0  0  0  0  0  0  0  0  0
  157.9279  145.5877  182.3212 F   0  0  0  0  0  0  0  0  0  0  0  0
  160.0775  145.4911  182.8643 F   0  0  0  0  0  0  0  0  0  0  0  0
  7  8  1  0  0  0
  8  9  1  0  0  0
  9 10  1  0  0  0
 10 11  1  0  0  0
 11 12  1  0  0  0
 12 13  1  0  0  0
 13  1  1  0  0  0
  1  2  2  0  0  0
  2  3  1  0  0  0
  3  4  2  0  0  0
  4  5  1  0  0  0
  5  6  2  0  0  0
  5 23  1  0  0  0
 23 24  1  0  0  0
 23 25  1  0  0  0
 23 26  1  0  0  0
  3 27  1  0  0  0
 27 28  2  0  0  0
 27 29  1  0  0  0
 29 31  1  0  0  0
 31 32  2  0  0  0
 32 33  1  0  0  0
 33 34  2  0  0  0
 34 35  1  0  0  0
 35 36  2  0  0  0
 34 37  1  0  0  0
 37 38  1  0  0  0
 37 39  1  0  0  0
 37 40  1  0  0  0
 10 14  1  0  0  0
 14 15  2  0  0  0
 14 16  2  0  0  0
 14 17  1  0  0  0
 17 18  2  0  0  0
 18 19  1  0  0  0
 19 20  2  0  0  0
 20 21  1  0  0  0
 21 22  2  0  0  0
 13  8  1  0  0  0
  6  1  1  0  0  0
 36 31  1  0  0  0
 22 17  1  0  0  0
 29 30  1  0  0  0
M  END
> <minimizedAffinity>
-9.06582

> <CNNscore>
0.3716454804

> <CNNaffinity>
6.6886887550

> <CNN_VS>
2.4858210087

> <CNNaffinity_variance>
0.1051839814

$$$$
[H]c1c(C(=O)N([H])c2c([H])c([H])c(C(F)(F)F)c([H])c2[H])nc(C(F)(F)F)nc1N1C([H])([H])C([H])([H])N(S(=O)(=O)c2c([H])c([H])c([H])c([H])c2[H])C([H])([H])[C@@]1([H])C([H])([H])[H]


 40 43  0  0  0  0  0  0  0  0999 V2000
  153.6336  136.6993  187.6781 C   0  0  0  0  0  0  0  0  0  0  0  0
  154.0644  137.3693  186.5606 C   0  0  0  0  0  0  0  0  0  0  0  0
  155.1900  138.1580  186.5446 C   0  0  0  0  0  0  0  0  0  0  0  0
  155.8763  138.2333  187.7575 N   0  0  0  0  0  0  0  0  0  0  0  0
  155.4923  137.6066  188.8519 C   0  0  0  0  0  0  0  0  0  0  0  0
  154.4209  136.8734  188.8172 N   0  0  0  0  0  0  0  0  0  0  0  0
  152.4748  133.5042  187.3045 C   0  0  0  0  0  0  0  0  0  0  0  0
  152.8866  134.4679  188.3692 C   0  0  0  0  0  0  0  0  0  0  0  0
  152.0418  134.4204  189.6257 C   0  0  0  0  0  0  0  0  0  0  0  0
  150.7102  134.2817  189.1868 N   0  0  0  0  0  0  0  0  0  0  0  0
  150.2438  135.4896  188.5945 C   0  0  0  0  0  0  0  0  0  0  0  0
  151.1983  136.1589  187.6087 C   0  0  0  0  0  0  0  0  0  0  0  0
  152.5268  135.8378  187.8193 N   0  0  0  0  0  0  0  0  0  0  0  0
  149.6296  133.8607  190.4447 S   0  0  0  0  0  0  0  0  0  0  0  0
  148.2831  134.5188  190.1197 O   0  0  0  0  0  0  0  0  0  0  0  0
  149.4206  132.3862  190.4004 O   0  0  0  0  0  0  0  0  0  0  0  0
  150.0798  134.3033  192.0242 C   0  0  0  0  0  0  0  0  0  0  0  0
  150.3740  133.3265  192.9509 C   0  0  0  0  0  0  0  0  0  0  0  0
  150.7206  133.6282  194.2754 C   0  0  0  0  0  0  0  0  0  0  0  0
  150.7787  134.9389  194.6769 C   0  0  0  0  0  0  0  0  0  0  0  0
  150.4853  135.9362  193.7352 C   0  0  0  0  0  0  0  0  0  0  0  0
  150.1475  135.6058  192.4603 C   0  0  0  0  0  0  0  0  0  0  0  0
  156.3494  137.7685  190.0978 C   0  0  0  0  0  0  0  0  0  0  0  0
  157.5014  138.4313  189.7884 F   0  0  0  0  0  0  0  0  0  0  0  0
  155.6205  138.5712  190.9531 F   0  0  0  0  0  0  0  0  0  0  0  0
  156.6421  136.5535  190.6768 F   0  0  0  0  0  0  0  0  0  0  0  0
  155.7929  138.8585  185.5030 C   0  0  0  0  0  0  0  0  0  0  0  0
  155.0309  138.9694  184.3948 O   0  0  0  0  0  0  0  0  0  0  0  0
  157.0249  139.5288  185.2307 N   0  0  0  0  0  0  0  0  0  0  0  0
  157.7930  139.6116  185.8692 H   0  0  0  0  0  0  0  0  0  0  0  0
  157.0978  140.1227  183.9037 C   0  0  0  0  0  0  0  0  0  0  0  0
  156.4406  141.2652  183.5569 C   0  0  0  0  0  0  0  0  0  0  0  0
  156.7717  141.9299  182.3654 C   0  0  0  0  0  0  0  0  0  0  0  0
  157.7454  141.4843  181.5033 C   0  0  0  0  0  0  0  0  0  0  0  0
  158.4004  140.2892  181.8944 C   0  0  0  0  0  0  0  0  0  0  0  0
  158.0759  139.6385  183.0571 C   0  0  0  0  0  0  0  0  0  0  0  0
  158.2529  142.2422  180.3177 C   0  0  0  0  0  0  0  0  0  0  0  0
  157.8454  143.5575  180.3300 F   0  0  0  0  0  0  0  0  0  0  0  0
  159.6603  142.1960  180.4895 F   0  0  0  0  0  0  0  0  0  0  0  0
  157.9927  141.6382  179.1357 F   0  0  0  0  0  0  0  0  0  0  0  0
  7  8  1  0  0  0
  8  9  1  0  0  0
  9 10  1  0  0  0
 10 11  1  0  0  0
 11 12  1  0  0  0
 12 13  1  0  0  0
 13  1  1  0  0  0
  1  2  2  0  0  0
  2  3  1  0  0  0
  3  4  2  0  0  0
  4  5  1  0  0  0
  5  6  2  0  0  0
  5 23  1  0  0  0
 23 24  1  0  0  0
 23 25  1  0  0  0
 23 26  1  0  0  0
  3 27  1  0  0  0
 27 28  2  0  0  0
 27 29  1  0  0  0
 29 31  1  0  0  0
 31 32  2  0  0  0
 32 33  1  0  0  0
 33 34  2  0  0  0
 34 35  1  0  0  0
 35 36  2  0  0  0
 34 37  1  0  0  0
 37 38  1  0  0  0
 37 39  1  0  0  0
 37 40  1  0  0  0
 10 14  1  0  0  0
 14 15  2  0  0  0
 14 16  2  0  0  0
 14 17  1  0  0  0
 17 18  2  0  0  0
 18 19  1  0  0  0
 19 20  2  0  0  0
 20 21  1  0  0  0
 21 22  2  0  0  0
 13  8  1  0  0  0
  6  1  1  0  0  0
 36 31  1  0  0  0
 22 17  1  0  0  0
 29 30  1  0  0  0
M  END
> <minimizedAffinity>
-8.14297

> <CNNscore>
0.3528010845

> <CNNaffinity>
6.4188165665

> <CNN_VS>
2.2645654678

> <CNNaffinity_variance>
0.0943493396

$$$$
[H]c1c(C(=O)N([H])c2c([H])c([H])c(C(F)(F)F)c([H])c2[H])nc(C(F)(F)F)nc1N1C([H])([H])C([H])([H])N(S(=O)(=O)c2c([H])c([H])c([H])c([H])c2[H])C([H])([H])[C@@]1([H])C([H])([H])[H]


 40 43  0  0  0  0  0  0  0  0999 V2000
  153.2284  137.4847  185.8928 C   0  0  0  0  0  0  0  0  0  0  0  0
  154.0611  138.1260  185.0103 C   0  0  0  0  0  0  0  0  0  0  0  0
  155.2556  138.6951  185.3825 C   0  0  0  0  0  0  0  0  0  0  0  0
  155.5706  138.5757  186.7369 N   0  0  0  0  0  0  0  0  0  0  0  0
  154.7957  137.9697  187.6144 C   0  0  0  0  0  0  0  0  0  0  0  0
  153.6758  137.4480  187.2142 N   0  0  0  0  0  0  0  0  0  0  0  0
  150.8652  135.3341  187.1100 C   0  0  0  0  0  0  0  0  0  0  0  0
  151.0758  136.7882  186.8396 C   0  0  0  0  0  0  0  0  0  0  0  0
  149.8592  137.5140  186.3033 C   0  0  0  0  0  0  0  0  0  0  0  0
  149.2690  136.6360  185.3727 N   0  0  0  0  0  0  0  0  0  0  0  0
  150.0637  136.5369  184.1955 C   0  0  0  0  0  0  0  0  0  0  0  0
  151.5629  136.3533  184.4185 C   0  0  0  0  0  0  0  0  0  0  0  0
  152.0043  136.8336  185.6379 N   0  0  0  0  0  0  0  0  0  0  0  0
  147.6938  137.1135  184.9058 S   0  0  0  0  0  0  0  0  0  0  0  0
  146.8119  135.8598  184.9515 O   0  0  0  0  0  0  0  0  0  0  0  0
  147.1721  138.0558  185.9352 O   0  0  0  0  0  0  0  0  0  0  0  0
  147.5317  137.8322  183.3726 C   0  0  0  0  0  0  0  0  0  0  0  0
  147.9177  139.1421  183.1867 C   0  0  0  0  0  0  0  0  0  0  0  0
  147.7797  139.7978  181.9553 C   0  0  0  0  0  0  0  0  0  0  0  0
  147.2480  139.1225  180.8858 C   0  0  0  0  0  0  0  0  0  0  0  0
  146.8592  137.7873  181.0696 C   0  0  0  0  0  0  0  0  0  0  0  0
  147.0029  137.1854  182.2802 C   0  0  0  0  0  0  0  0  0  0  0  0
  155.2766  137.9022  189.0556 C   0  0  0  0  0  0  0  0  0  0  0  0
  154.7127  138.9096  189.7831 F   0  0  0  0  0  0  0  0  0  0  0  0
  154.7993  136.7064  189.5550 F   0  0  0  0  0  0  0  0  0  0  0  0
  156.6498  137.9686  189.1386 F   0  0  0  0  0  0  0  0  0  0  0  0
  156.2342  139.3306  184.6225 C   0  0  0  0  0  0  0  0  0  0  0  0
  155.7954  139.8054  183.4380 O   0  0  0  0  0  0  0  0  0  0  0  0
  157.6234  139.6522  184.7119 N   0  0  0  0  0  0  0  0  0  0  0  0
  158.2226  139.4238  185.4820 H   0  0  0  0  0  0  0  0  0  0  0  0
  158.1409  140.3769  183.5604 C   0  0  0  0  0  0  0  0  0  0  0  0
  158.4474  139.7791  182.3746 C   0  0  0  0  0  0  0  0  0  0  0  0
  158.6708  140.5632  181.2316 C   0  0  0  0  0  0  0  0  0  0  0  0
  158.5980  141.9360  181.2376 C   0  0  0  0  0  0  0  0  0  0  0  0
  158.2851  142.5208  182.4906 C   0  0  0  0  0  0  0  0  0  0  0  0
  158.0688  141.7554  183.6077 C   0  0  0  0  0  0  0  0  0  0  0  0
  158.6560  142.8029  180.0198 C   0  0  0  0  0  0  0  0  0  0  0  0
  158.0615  142.2065  178.9302 F   0  0  0  0  0  0  0  0  0  0  0  0
  157.8894  143.9348  180.3986 F   0  0  0  0  0  0  0  0  0  0  0  0
  159.8974  143.2597  179.7377 F   0  0  0  0  0  0  0  0  0  0  0  0
  7  8  1  0  0  0
  8  9  1  0  0  0
  9 10  1  0  0  0
 10 11  1  0  0  0
 11 12  1  0  0  0
 12 13  1  0  0  0
 13  1  1  0  0  0
  1  2  2  0  0  0
  2  3  1  0  0  0
  3  4  2  0  0  0
  4  5  1  0  0  0
  5  6  2  0  0  0
  5 23  1  0  0  0
 23 24  1  0  0  0
 23 25  1  0  0  0
 23 26  1  0  0  0
  3 27  1  0  0  0
 27 28  2  0  0  0
 27 29  1  0  0  0
 29 31  1  0  0  0
 31 32  2  0  0  0
 32 33  1  0  0  0
 33 34  2  0  0  0
 34 35  1  0  0  0
 35 36  2  0  0  0
 34 37  1  0  0  0
 37 38  1  0  0  0
 37 39  1  0  0  0
 37 40  1  0  0  0
 10 14  1  0  0  0
 14 15  2  0  0  0
 14 16  2  0  0  0
 14 17  1  0  0  0
 17 18  2  0  0  0
 18 19  1  0  0  0
 19 20  2  0  0  0
 20 21  1  0  0  0
 21 22  2  0  0  0
 13  8  1  0  0  0
  6  1  1  0  0  0
 36 31  1  0  0  0
 22 17  1  0  0  0
 29 30  1  0  0  0
M  END
> <minimizedAffinity>
-8.72372

> <CNNscore>
0.3116983771

> <CNNaffinity>
6.5895476341

> <CNN_VS>
2.0539512634

> <CNNaffinity_variance>
0.0252364837

$$$$
[H]c1c(C(=O)N([H])c2c([H])c([H])c(C(F)(F)F)c([H])c2[H])nc(C(F)(F)F)nc1N1C([H])([H])C([H])([H])N(S(=O)(=O)c2c([H])c([H])c([H])c([H])c2[H])C([H])([H])[C@@]1([H])C([H])([H])[H]


 40 43  0  0  0  0  0  0  0  0999 V2000
  152.2432  137.3183  184.5461 C   0  0  0  0  0  0  0  0  0  0  0  0
  153.2840  138.1910  184.3497 C   0  0  0  0  0  0  0  0  0  0  0  0
  153.3652  139.0318  183.2654 C   0  0  0  0  0  0  0  0  0  0  0  0
  152.3036  138.9385  182.3643 N   0  0  0  0  0  0  0  0  0  0  0  0
  151.2885  138.1115  182.5176 C   0  0  0  0  0  0  0  0  0  0  0  0
  151.2571  137.3358  183.5586 N   0  0  0  0  0  0  0  0  0  0  0  0
  152.6166  134.1213  185.6998 C   0  0  0  0  0  0  0  0  0  0  0  0
  153.1835  135.4911  185.8848 C   0  0  0  0  0  0  0  0  0  0  0  0
  153.5345  135.8418  187.3161 C   0  0  0  0  0  0  0  0  0  0  0  0
  152.4842  135.3308  188.1041 N   0  0  0  0  0  0  0  0  0  0  0  0
  151.2971  136.0958  187.9231 C   0  0  0  0  0  0  0  0  0  0  0  0
  150.9361  136.4320  186.4783 C   0  0  0  0  0  0  0  0  0  0  0  0
  152.0224  136.4352  185.6224 N   0  0  0  0  0  0  0  0  0  0  0  0
  152.8481  135.3113  189.7757 S   0  0  0  0  0  0  0  0  0  0  0  0
  151.5796  135.7505  190.5171 O   0  0  0  0  0  0  0  0  0  0  0  0
  153.1236  133.9017  190.1724 O   0  0  0  0  0  0  0  0  0  0  0  0
  154.1411  136.2885  190.2919 C   0  0  0  0  0  0  0  0  0  0  0  0
  153.9600  137.6481  190.4264 C   0  0  0  0  0  0  0  0  0  0  0  0
  154.9956  138.5083  190.8177 C   0  0  0  0  0  0  0  0  0  0  0  0
  156.2382  137.9920  191.0854 C   0  0  0  0  0  0  0  0  0  0  0  0
  156.4251  136.6079  190.9550 C   0  0  0  0  0  0  0  0  0  0  0  0
  155.3986  135.8049  190.5678 C   0  0  0  0  0  0  0  0  0  0  0  0
  150.1941  138.1311  181.4616 C   0  0  0  0  0  0  0  0  0  0  0  0
  150.3238  139.2393  180.6760 F   0  0  0  0  0  0  0  0  0  0  0  0
  150.4198  137.0247  180.6665 F   0  0  0  0  0  0  0  0  0  0  0  0
  148.9388  138.0951  182.0274 F   0  0  0  0  0  0  0  0  0  0  0  0
  154.3083  140.0026  182.9382 C   0  0  0  0  0  0  0  0  0  0  0  0
  155.2121  140.2479  183.9098 O   0  0  0  0  0  0  0  0  0  0  0  0
  154.6323  140.8591  181.8414 N   0  0  0  0  0  0  0  0  0  0  0  0
  154.1333  140.9029  180.9734 H   0  0  0  0  0  0  0  0  0  0  0  0
  155.7969  141.7021  182.0695 C   0  0  0  0  0  0  0  0  0  0  0  0
  157.0658  141.3332  181.7361 C   0  0  0  0  0  0  0  0  0  0  0  0
  158.0931  142.2900  181.7227 C   0  0  0  0  0  0  0  0  0  0  0  0
  157.8902  143.6132  182.0355 C   0  0  0  0  0  0  0  0  0  0  0  0
  156.5595  143.9561  182.3846 C   0  0  0  0  0  0  0  0  0  0  0  0
  155.5562  143.0215  182.3998 C   0  0  0  0  0  0  0  0  0  0  0  0
  158.9059  144.6988  181.8701 C   0  0  0  0  0  0  0  0  0  0  0  0
  159.4753  144.6894  180.6163 F   0  0  0  0  0  0  0  0  0  0  0  0
  158.1347  145.8806  182.0152 F   0  0  0  0  0  0  0  0  0  0  0  0
  159.8351  144.7266  182.8526 F   0  0  0  0  0  0  0  0  0  0  0  0
  7  8  1  0  0  0
  8  9  1  0  0  0
  9 10  1  0  0  0
 10 11  1  0  0  0
 11 12  1  0  0  0
 12 13  1  0  0  0
 13  1  1  0  0  0
  1  2  2  0  0  0
  2  3  1  0  0  0
  3  4  2  0  0  0
  4  5  1  0  0  0
  5  6  2  0  0  0
  5 23  1  0  0  0
 23 24  1  0  0  0
 23 25  1  0  0  0
 23 26  1  0  0  0
  3 27  1  0  0  0
 27 28  2  0  0  0
 27 29  1  0  0  0
 29 31  1  0  0  0
 31 32  2  0  0  0
 32 33  1  0  0  0
 33 34  2  0  0  0
 34 35  1  0  0  0
 35 36  2  0  0  0
 34 37  1  0  0  0
 37 38  1  0  0  0
 37 39  1  0  0  0
 37 40  1  0  0  0
 10 14  1  0  0  0
 14 15  2  0  0  0
 14 16  2  0  0  0
 14 17  1  0  0  0
 17 18  2  0  0  0
 18 19  1  0  0  0
 19 20  2  0  0  0
 20 21  1  0  0  0
 21 22  2  0  0  0
 13  8  1  0  0  0
  6  1  1  0  0  0
 36 31  1  0  0  0
 22 17  1  0  0  0
 29 30  1  0  0  0
M  END
> <minimizedAffinity>
-8.54848

> <CNNscore>
0.2898734808

> <CNNaffinity>
6.5905027390

> <CNN_VS>
1.9104119539

> <CNNaffinity_variance>
0.1210636944

$$$$
[H]c1c(C(=O)N([H])c2c([H])c([H])c(C(F)(F)F)c([H])c2[H])nc(C(F)(F)F)nc1N1C([H])([H])C([H])([H])N(S(=O)(=O)c2c([H])c([H])c([H])c([H])c2[H])C([H])([H])[C@@]1([H])C([H])([H])[H]


 40 43  0  0  0  0  0  0  0  0999 V2000
  155.1336  138.4103  186.0660 C   0  0  0  0  0  0  0  0  0  0  0  0
  154.0972  138.5957  185.1857 C   0  0  0  0  0  0  0  0  0  0  0  0
  154.2397  139.2471  183.9838 C   0  0  0  0  0  0  0  0  0  0  0  0
  155.5269  139.7140  183.7134 N   0  0  0  0  0  0  0  0  0  0  0  0
  156.5461  139.5572  184.5347 C   0  0  0  0  0  0  0  0  0  0  0  0
  156.3612  138.9353  185.6596 N   0  0  0  0  0  0  0  0  0  0  0  0
  153.2563  136.6614  188.3262 C   0  0  0  0  0  0  0  0  0  0  0  0
  154.3186  136.4518  187.2969 C   0  0  0  0  0  0  0  0  0  0  0  0
  155.3722  135.4311  187.6747 C   0  0  0  0  0  0  0  0  0  0  0  0
  155.6544  135.6582  189.0363 N   0  0  0  0  0  0  0  0  0  0  0  0
  156.3809  136.8708  189.2074 C   0  0  0  0  0  0  0  0  0  0  0  0
  155.8558  138.0761  188.4313 C   0  0  0  0  0  0  0  0  0  0  0  0
  155.1308  137.7357  187.3038 N   0  0  0  0  0  0  0  0  0  0  0  0
  156.5602  134.3962  189.7532 S   0  0  0  0  0  0  0  0  0  0  0  0
  157.0864  134.9254  191.0929 O   0  0  0  0  0  0  0  0  0  0  0  0
  155.6285  133.2745  190.0589 O   0  0  0  0  0  0  0  0  0  0  0  0
  157.8737  133.7894  188.8588 C   0  0  0  0  0  0  0  0  0  0  0  0
  157.8655  132.4780  188.4353 C   0  0  0  0  0  0  0  0  0  0  0  0
  158.9320  131.9128  187.7221 C   0  0  0  0  0  0  0  0  0  0  0  0
  160.0279  132.6821  187.4227 C   0  0  0  0  0  0  0  0  0  0  0  0
  160.0375  134.0190  187.8472 C   0  0  0  0  0  0  0  0  0  0  0  0
  158.9872  134.5316  188.5418 C   0  0  0  0  0  0  0  0  0  0  0  0
  157.8964  140.1051  184.0993 C   0  0  0  0  0  0  0  0  0  0  0  0
  158.5916  139.1470  183.4206 F   0  0  0  0  0  0  0  0  0  0  0  0
  157.6186  141.1280  183.2140 F   0  0  0  0  0  0  0  0  0  0  0  0
  158.6337  140.5558  185.1719 F   0  0  0  0  0  0  0  0  0  0  0  0
  153.3225  139.4771  182.9616 C   0  0  0  0  0  0  0  0  0  0  0  0
  152.5165  138.4286  182.6932 O   0  0  0  0  0  0  0  0  0  0  0  0
  152.9514  140.5279  182.0675 N   0  0  0  0  0  0  0  0  0  0  0  0
  153.3776  141.4341  182.0297 H   0  0  0  0  0  0  0  0  0  0  0  0
  151.8537  140.1880  181.1739 C   0  0  0  0  0  0  0  0  0  0  0  0
  152.0251  139.8961  179.8538 C   0  0  0  0  0  0  0  0  0  0  0  0
  150.9787  139.3100  179.1240 C   0  0  0  0  0  0  0  0  0  0  0  0
  149.7573  139.0056  179.6766 C   0  0  0  0  0  0  0  0  0  0  0  0
  149.6149  139.3314  181.0490 C   0  0  0  0  0  0  0  0  0  0  0  0
  150.6360  139.9057  181.7617 C   0  0  0  0  0  0  0  0  0  0  0  0
  148.6770  138.2284  178.9934 C   0  0  0  0  0  0  0  0  0  0  0  0
  148.6598  138.4492  177.6343 F   0  0  0  0  0  0  0  0  0  0  0  0
  149.0527  136.8819  179.2350 F   0  0  0  0  0  0  0  0  0  0  0  0
  147.4560  138.3900  179.5524 F   0  0  0  0  0  0  0  0  0  0  0  0
  7  8  1  0  0  0
  8  9  1  0  0  0
  9 10  1  0  0  0
 10 11  1  0  0  0
 11 12  1  0  0  0
 12 13  1  0  0  0
 13  1  1  0  0  0
  1  2  2  0  0  0
  2  3  1  0  0  0
  3  4  2  0  0  0
  4  5  1  0  0  0
  5  6  2  0  0  0
  5 23  1  0  0  0
 23 24  1  0  0  0
 23 25  1  0  0  0
 23 26  1  0  0  0
  3 27  1  0  0  0
 27 28  2  0  0  0
 27 29  1  0  0  0
 29 31  1  0  0  0
 31 32  2  0  0  0
 32 33  1  0  0  0
 33 34  2  0  0  0
 34 35  1  0  0  0
 35 36  2  0  0  0
 34 37  1  0  0  0
 37 38  1  0  0  0
 37 39  1  0  0  0
 37 40  1  0  0  0
 10 14  1  0  0  0
 14 15  2  0  0  0
 14 16  2  0  0  0
 14 17  1  0  0  0
 17 18  2  0  0  0
 18 19  1  0  0  0
 19 20  2  0  0  0
 20 21  1  0  0  0
 21 22  2  0  0  0
 13  8  1  0  0  0
  6  1  1  0  0  0
 36 31  1  0  0  0
 22 17  1  0  0  0
 29 30  1  0  0  0
M  END
> <minimizedAffinity>
-8.57926

> <CNNscore>
0.2550696731

> <CNNaffinity>
6.2396955490

> <CNN_VS>
1.5915571451

> <CNNaffinity_variance>
0.0963018388

$$$$
[H]c1c(C(=O)N([H])c2c([H])c([H])c(C(F)(F)F)c([H])c2[H])nc(C(F)(F)F)nc1N1C([H])([H])C([H])([H])N(S(=O)(=O)c2c([H])c([H])c([H])c([H])c2[H])C([H])([H])[C@@]1([H])C([H])([H])[H]


 40 43  0  0  0  0  0  0  0  0999 V2000
  155.5517  138.0466  186.2816 C   0  0  0  0  0  0  0  0  0  0  0  0
  154.4974  137.9845  185.4053 C   0  0  0  0  0  0  0  0  0  0  0  0
  154.4337  138.7301  184.2524 C   0  0  0  0  0  0  0  0  0  0  0  0
  155.5282  139.5665  184.0281 N   0  0  0  0  0  0  0  0  0  0  0  0
  156.5573  139.6550  184.8473 C   0  0  0  0  0  0  0  0  0  0  0  0
  156.5711  138.9305  185.9250 N   0  0  0  0  0  0  0  0  0  0  0  0
  156.4339  138.2101  189.5811 C   0  0  0  0  0  0  0  0  0  0  0  0
  155.2333  138.0165  188.7132 C   0  0  0  0  0  0  0  0  0  0  0  0
  154.2370  136.9994  189.2304 C   0  0  0  0  0  0  0  0  0  0  0  0
  155.0061  135.9296  189.7296 N   0  0  0  0  0  0  0  0  0  0  0  0
  155.6083  135.1994  188.6659 C   0  0  0  0  0  0  0  0  0  0  0  0
  156.2711  136.0375  187.5754 C   0  0  0  0  0  0  0  0  0  0  0  0
  155.7562  137.3167  187.4702 N   0  0  0  0  0  0  0  0  0  0  0  0
  154.0946  134.8308  190.6724 S   0  0  0  0  0  0  0  0  0  0  0  0
  153.4986  133.7978  189.7083 O   0  0  0  0  0  0  0  0  0  0  0  0
  155.0340  134.1029  191.5711 O   0  0  0  0  0  0  0  0  0  0  0  0
  152.8347  135.4843  191.6100 C   0  0  0  0  0  0  0  0  0  0  0  0
  151.5281  135.3403  191.1960 C   0  0  0  0  0  0  0  0  0  0  0  0
  150.4503  135.8832  191.9095 C   0  0  0  0  0  0  0  0  0  0  0  0
  150.6888  136.5808  193.0666 C   0  0  0  0  0  0  0  0  0  0  0  0
  152.0169  136.7248  193.4944 C   0  0  0  0  0  0  0  0  0  0  0  0
  153.0376  136.1890  192.7734 C   0  0  0  0  0  0  0  0  0  0  0  0
  157.6873  140.5983  184.4647 C   0  0  0  0  0  0  0  0  0  0  0  0
  158.6302  139.9274  183.7416 F   0  0  0  0  0  0  0  0  0  0  0  0
  157.1201  141.5468  183.6365 F   0  0  0  0  0  0  0  0  0  0  0  0
  158.2638  141.1792  185.5725 F   0  0  0  0  0  0  0  0  0  0  0  0
  153.4792  138.7547  183.2388 C   0  0  0  0  0  0  0  0  0  0  0  0
  153.1068  137.5350  182.7976 O   0  0  0  0  0  0  0  0  0  0  0  0
  152.7357  139.7152  182.4863 N   0  0  0  0  0  0  0  0  0  0  0  0
  152.8014  140.7098  182.5907 H   0  0  0  0  0  0  0  0  0  0  0  0
  151.8232  139.1313  181.5141 C   0  0  0  0  0  0  0  0  0  0  0  0
  150.8883  138.1924  181.8336 C   0  0  0  0  0  0  0  0  0  0  0  0
  149.8671  137.8817  180.9217 C   0  0  0  0  0  0  0  0  0  0  0  0
  149.7512  138.4838  179.6912 C   0  0  0  0  0  0  0  0  0  0  0  0
  150.7464  139.4484  179.3924 C   0  0  0  0  0  0  0  0  0  0  0  0
  151.7452  139.7507  180.2820 C   0  0  0  0  0  0  0  0  0  0  0  0
  148.5921  138.3162  178.7605 C   0  0  0  0  0  0  0  0  0  0  0  0
  148.1731  137.0066  178.6848 F   0  0  0  0  0  0  0  0  0  0  0  0
  147.5747  139.0887  179.3775 F   0  0  0  0  0  0  0  0  0  0  0  0
  148.7950  138.8588  177.5382 F   0  0  0  0  0  0  0  0  0  0  0  0
  7  8  1  0  0  0
  8  9  1  0  0  0
  9 10  1  0  0  0
 10 11  1  0  0  0
 11 12  1  0  0  0
 12 13  1  0  0  0
 13  1  1  0  0  0
  1  2  2  0  0  0
  2  3  1  0  0  0
  3  4  2  0  0  0
  4  5  1  0  0  0
  5  6  2  0  0  0
  5 23  1  0  0  0
 23 24  1  0  0  0
 23 25  1  0  0  0
 23 26  1  0  0  0
  3 27  1  0  0  0
 27 28  2  0  0  0
 27 29  1  0  0  0
 29 31  1  0  0  0
 31 32  2  0  0  0
 32 33  1  0  0  0
 33 34  2  0  0  0
 34 35  1  0  0  0
 35 36  2  0  0  0
 34 37  1  0  0  0
 37 38  1  0  0  0
 37 39  1  0  0  0
 37 40  1  0  0  0
 10 14  1  0  0  0
 14 15  2  0  0  0
 14 16  2  0  0  0
 14 17  1  0  0  0
 17 18  2  0  0  0
 18 19  1  0  0  0
 19 20  2  0  0  0
 20 21  1  0  0  0
 21 22  2  0  0  0
 13  8  1  0  0  0
  6  1  1  0  0  0
 36 31  1  0  0  0
 22 17  1  0  0  0
 29 30  1  0  0  0
M  END
> <minimizedAffinity>
-9.01910

> <CNNscore>
0.2389547527

> <CNNaffinity>
6.0999169350

> <CNN_VS>
1.4576041698

> <CNNaffinity_variance>
0.1143481582

$$$$
[H]c1c(C(=O)N([H])c2c([H])c([H])c(C(F)(F)F)c([H])c2[H])nc(C(F)(F)F)nc1N1C([H])([H])C([H])([H])N(S(=O)(=O)c2c([H])c([H])c([H])c([H])c2[H])C([H])([H])[C@@]1([H])C([H])([H])[H]


 40 43  0  0  0  0  0  0  0  0999 V2000
  154.3130  140.0463  183.6481 C   0  0  0  0  0  0  0  0  0  0  0  0
  154.4665  139.7419  184.9774 C   0  0  0  0  0  0  0  0  0  0  0  0
  153.8812  138.6488  185.5704 C   0  0  0  0  0  0  0  0  0  0  0  0
  153.1095  137.8568  184.7189 N   0  0  0  0  0  0  0  0  0  0  0  0
  152.9369  138.1182  183.4383 C   0  0  0  0  0  0  0  0  0  0  0  0
  153.5102  139.1638  182.9240 N   0  0  0  0  0  0  0  0  0  0  0  0
  154.1135  143.3700  182.8706 C   0  0  0  0  0  0  0  0  0  0  0  0
  154.9346  142.4186  183.6785 C   0  0  0  0  0  0  0  0  0  0  0  0
  156.4219  142.7057  183.6738 C   0  0  0  0  0  0  0  0  0  0  0  0
  156.7389  143.0616  182.3479 N   0  0  0  0  0  0  0  0  0  0  0  0
  156.6815  141.9258  181.4913 C   0  0  0  0  0  0  0  0  0  0  0  0
  155.4594  141.0265  181.6600 C   0  0  0  0  0  0  0  0  0  0  0  0
  154.8814  141.1069  182.9137 N   0  0  0  0  0  0  0  0  0  0  0  0
  158.2937  143.7590  182.1941 S   0  0  0  0  0  0  0  0  0  0  0  0
  158.7458  143.5344  180.7460 O   0  0  0  0  0  0  0  0  0  0  0  0
  158.1620  145.2300  182.3906 O   0  0  0  0  0  0  0  0  0  0  0  0
  159.5048  143.1732  183.2350 C   0  0  0  0  0  0  0  0  0  0  0  0
  160.1274  144.0339  184.1130 C   0  0  0  0  0  0  0  0  0  0  0  0
  161.1532  143.6168  184.9729 C   0  0  0  0  0  0  0  0  0  0  0  0
  161.5588  142.3062  184.9550 C   0  0  0  0  0  0  0  0  0  0  0  0
  160.9237  141.4258  184.0667 C   0  0  0  0  0  0  0  0  0  0  0  0
  159.9359  141.8673  183.2433 C   0  0  0  0  0  0  0  0  0  0  0  0
  152.0814  137.1560  182.6288 C   0  0  0  0  0  0  0  0  0  0  0  0
  150.7680  137.2996  182.9699 F   0  0  0  0  0  0  0  0  0  0  0  0
  152.2180  137.5492  181.3119 F   0  0  0  0  0  0  0  0  0  0  0  0
  152.4773  135.8488  182.8060 F   0  0  0  0  0  0  0  0  0  0  0  0
  153.9696  138.1671  186.8740 C   0  0  0  0  0  0  0  0  0  0  0  0
  153.0526  138.6824  187.7193 O   0  0  0  0  0  0  0  0  0  0  0  0
  154.7662  137.2530  187.6297 N   0  0  0  0  0  0  0  0  0  0  0  0
  155.5324  136.7169  187.2692 H   0  0  0  0  0  0  0  0  0  0  0  0
  154.3717  137.1346  189.0259 C   0  0  0  0  0  0  0  0  0  0  0  0
  154.8443  137.9507  190.0099 C   0  0  0  0  0  0  0  0  0  0  0  0
  154.2200  137.9665  191.2673 C   0  0  0  0  0  0  0  0  0  0  0  0
  153.1310  137.1856  191.5741 C   0  0  0  0  0  0  0  0  0  0  0  0
  152.6741  136.3448  190.5279 C   0  0  0  0  0  0  0  0  0  0  0  0
  153.2849  136.3276  189.3003 C   0  0  0  0  0  0  0  0  0  0  0  0
  152.3280  137.2903  192.8319 C   0  0  0  0  0  0  0  0  0  0  0  0
  152.4929  138.5086  193.4522 F   0  0  0  0  0  0  0  0  0  0  0  0
  150.9921  137.1898  192.3654 F   0  0  0  0  0  0  0  0  0  0  0  0
  152.5143  136.2551  193.6822 F   0  0  0  0  0  0  0  0  0  0  0  0
  7  8  1  0  0  0
  8  9  1  0  0  0
  9 10  1  0  0  0
 10 11  1  0  0  0
 11 12  1  0  0  0
 12 13  1  0  0  0
 13  1  1  0  0  0
  1  2  2  0  0  0
  2  3  1  0  0  0
  3  4  2  0  0  0
  4  5  1  0  0  0
  5  6  2  0  0  0
  5 23  1  0  0  0
 23 24  1  0  0  0
 23 25  1  0  0  0
 23 26  1  0  0  0
  3 27  1  0  0  0
 27 28  2  0  0  0
 27 29  1  0  0  0
 29 31  1  0  0  0
 31 32  2  0  0  0
 32 33  1  0  0  0
 33 34  2  0  0  0
 34 35  1  0  0  0
 35 36  2  0  0  0
 34 37  1  0  0  0
 37 38  1  0  0  0
 37 39  1  0  0  0
 37 40  1  0  0  0
 10 14  1  0  0  0
 14 15  2  0  0  0
 14 16  2  0  0  0
 14 17  1  0  0  0
 17 18  2  0  0  0
 18 19  1  0  0  0
 19 20  2  0  0  0
 20 21  1  0  0  0
 21 22  2  0  0  0
 13  8  1  0  0  0
  6  1  1  0  0  0
 36 31  1  0  0  0
 22 17  1  0  0  0
 29 30  1  0  0  0
M  END
> <minimizedAffinity>
-9.79886

> <CNNscore>
0.2310405970

> <CNNaffinity>
6.8612060547

> <CNN_VS>
1.5852171183

> <CNNaffinity_variance>
0.0455053858

$$$$
